@<TRIPOS>MOLECULE
tmp/5x27A00.pdb
 178 166 0 0 0
SMALL
GASTEIGER

@<TRIPOS>ATOM
      1  N        -45.9660    9.2560  -18.0650 N.3    20  LYS20      -0.1245
      2  CA       -45.3390    8.1300  -17.3870 C.3    20  LYS20       0.1561
      3  C        -45.2510    6.9470  -18.3420 C.2    20  LYS20       0.2260
      4  O        -45.9210    6.9380  -19.3680 O.2    20  LYS20      -0.2867
      5  CB       -46.1210    7.7600  -16.1360 C.3    20  LYS20       0.0271
      6  CG       -45.2940    7.1160  -15.0420 C.3    20  LYS20       0.0035
      7  CD       -46.1700    6.6650  -13.8800 C.3    20  LYS20       0.0206
      8  CE       -46.4010    5.1550  -13.9110 C.3    20  LYS20       0.1093
      9  NZ       -47.1800    4.6940  -12.7280 N.3    20  LYS20      -0.1314
     10  N        -46.3390    3.3790  -18.6500 N.3    22  LEU22      -0.1231
     11  CA       -47.1690    2.3310  -18.0970 C.3    22  LEU22       0.1693
     12  C        -46.5020    0.9850  -18.2280 C.2    22  LEU22       0.2592
     13  O        -46.4530    0.2020  -17.2920 O.2    22  LEU22      -0.2718
     14  CB       -48.5120    2.3150  -18.8030 C.3    22  LEU22       0.0284
     15  CG       -49.3050    3.5750  -18.5270 C.3    22  LEU22       0.0019
     16  CD1      -50.5680    3.5650  -19.3510 C.3    22  LEU22       0.0001
     17  CD2      -49.6290    3.6350  -17.0540 C.3    22  LEU22       0.0001
     18  N        -45.9660    0.7310  -19.4070 N.am   23  GLY23      -0.1957
     19  CA       -45.2290   -0.4850  -19.6450 C.3    23  GLY23       0.1869
     20  C        -44.2420   -0.3100  -20.7660 C.2    23  GLY23       0.2309
     21  O        -44.4820    0.4480  -21.6900 O.2    23  GLY23      -0.2863
     22  N        -45.3720    1.8670  -23.7270 N.3    30  VAL30      -0.1245
     23  CA       -46.6560    2.5390  -23.6120 C.3    30  VAL30       0.1561
     24  C        -46.6750    3.5500  -22.4820 C.2    30  VAL30       0.2260
     25  O        -46.2610    3.2450  -21.3810 O.2    30  VAL30      -0.2867
     26  CB       -47.7730    1.5280  -23.3680 C.3    30  VAL30       0.0252
     27  CG1      -49.1200    2.1800  -23.5550 C.3    30  VAL30       0.0019
     28  CG2      -47.6300    0.3510  -24.3050 C.3    30  VAL30       0.0019
     29  N        -53.5330    6.3010  -23.3810 N.3    47  ALA47      -0.1245
     30  CA       -52.2960    5.5690  -23.4240 C.3    47  ALA47       0.1562
     31  C        -51.7190    5.7190  -24.8380 C.2    47  ALA47       0.2260
     32  O        -52.4340    5.6150  -25.8350 O.2    47  ALA47      -0.2867
     33  CB       -52.5040    4.1560  -23.0720 C.3    47  ALA47       0.0290
     34  N        -49.0200    4.3550  -27.5800 N.3    49  LYS49      -0.1245
     35  CA       -48.1650    3.2180  -27.8290 C.3    49  LYS49       0.1561
     36  C        -47.1730    3.5440  -28.9100 C.2    49  LYS49       0.2260
     37  O        -47.5410    3.8330  -30.0300 O.2    49  LYS49      -0.2867
     38  CB       -48.9860    2.0140  -28.2460 C.3    49  LYS49       0.0271
     39  CG       -48.2680    1.1190  -29.2260 C.3    49  LYS49       0.0035
     40  CD       -48.2090   -0.3020  -28.7160 C.3    49  LYS49       0.0206
     41  CE       -49.0720   -1.2090  -29.5620 C.3    49  LYS49       0.1093
     42  NZ       -49.0510   -2.6050  -29.0610 N.3    49  LYS49      -0.1314
     43  N        -52.2770   -2.6160  -37.0290 N.3    66  GLU66      -0.1245
     44  CA       -52.9570   -2.6660  -35.7340 C.3    66  GLU66       0.1567
     45  C        -53.8740   -1.4710  -35.5510 C.2    66  GLU66       0.2260
     46  O        -55.0090   -1.6080  -35.1310 O.2    66  GLU66      -0.2867
     47  CB       -51.9270   -2.7410  -34.6170 C.3    66  GLU66       0.0388
     48  CG       -52.4630   -2.5600  -33.2590 C.3    66  GLU66       0.1160
     49  CD       -51.3870   -2.7490  -32.2290 C.2    66  GLU66       0.3649
     50  OE1      -50.8220   -1.7240  -31.8350 O.co2  66  GLU66      -0.2457
     51  OE2      -51.0850   -3.9010  -31.8260 O.co2  66  GLU66      -0.2457
     52  N        -58.0560   -1.0670  -34.9100 N.3    70  MET70      -0.1245
     53  CA       -58.5950   -0.3760  -33.7800 C.3    70  MET70       0.1570
     54  C        -59.4480    0.7930  -34.1610 C.2    70  MET70       0.2261
     55  O        -60.3380    1.1440  -33.4550 O.2    70  MET70      -0.2867
     56  CB       -57.4690    0.1240  -32.9510 C.3    70  MET70       0.0387
     57  CG       -56.9970   -0.8600  -31.9520 C.3    70  MET70       0.0595
     58  SD       -56.4720    0.1290  -30.6040 S.3    70  MET70      -0.1393
     59  CE       -54.9600   -0.5990  -30.3230 C.3    70  MET70       0.0692
     60  N        -49.8300    5.3020  -31.3250 N.3    92  LEU92      -0.1245
     61  CA       -51.2460    5.0220  -31.2860 C.3    92  LEU92       0.1561
     62  C        -51.8170    5.5840  -30.0130 C.2    92  LEU92       0.2260
     63  O        -51.3230    5.3100  -28.9420 O.2    92  LEU92      -0.2867
     64  CB       -51.4790    3.5250  -31.3130 C.3    92  LEU92       0.0270
     65  CG       -51.4830    2.9140  -32.6990 C.3    92  LEU92       0.0019
     66  CD1      -50.7450    3.8450  -33.6300 C.3    92  LEU92       0.0001
     67  CD2      -50.8170    1.5600  -32.6600 C.3    92  LEU92       0.0001
     68  N        -55.1000    5.8500  -27.6060 N.3    94  THR94      -0.1203
     69  CA       -56.3070    5.1450  -27.3020 C.3    94  THR94       0.1994
     70  C        -56.6740    5.5020  -25.8880 C.2    94  THR94       0.2618
     71  O        -55.8500    5.9870  -25.1560 O.2    94  THR94      -0.2717
     72  CB       -56.0760    3.6490  -27.4270 C.3    94  THR94       0.1784
     73  OG1      -57.3260    2.9660  -27.3230 O.3    94  THR94      -0.2211
     74  CG2      -55.1560    3.1920  -26.3480 C.3    94  THR94       0.0376
     75  N        -57.9190    5.2890  -25.5070 N.am   95  GLN95      -0.1965
     76  CA       -58.3380    5.6140  -24.1640 C.3    95  GLN95       0.1733
     77  C        -57.5800    4.8030  -23.1530 C.2    95  GLN95       0.2616
     78  O        -57.3170    3.6310  -23.3460 O.2    95  GLN95      -0.2715
     79  CB       -59.8170    5.3330  -23.9760 C.3    95  GLN95       0.0408
     80  CG       -60.1540    4.9230  -22.5590 C.3    95  GLN95       0.0908
     81  CD       -61.5560    4.3970  -22.4100 C.2    95  GLN95       0.2608
     82  OE1      -62.3950    5.0180  -21.7790 O.2    95  GLN95      -0.2717
     83  NE2      -61.8100    3.2410  -22.9780 N.am   95  GLN95      -0.0878
     84  N        -57.2300    5.4590  -22.0640 N.am   96  LEU96      -0.1963
     85  CA       -56.5440    4.8320  -20.9620 C.3    96  LEU96       0.1728
     86  C        -57.4740    4.0250  -20.1020 C.2    96  LEU96       0.2616
     87  O        -58.5650    4.4510  -19.7870 O.2    96  LEU96      -0.2715
     88  CB       -55.8930    5.8980  -20.1000 C.3    96  LEU96       0.0311
     89  CG       -55.2850    5.4500  -18.7860 C.3    96  LEU96       0.0022
     90  CD1      -53.8080    5.2050  -18.9550 C.3    96  LEU96       0.0001
     91  CD2      -55.5020    6.5210  -17.7530 C.3    96  LEU96       0.0001
     92  N        -57.0130    2.8540  -19.7100 N.am   97  MET97      -0.1964
     93  CA       -57.6750    2.0270  -18.7000 C.3    97  MET97       0.1722
     94  C        -56.9280    2.0820  -17.3710 C.2    97  MET97       0.2458
     95  O        -55.8460    1.5200  -17.2310 O.2    97  MET97      -0.2730
     96  CB       -57.7420    0.6020  -19.1970 C.3    97  MET97       0.0427
     97  CG       -58.1740    0.5650  -20.6570 C.3    97  MET97       0.0599
     98  SD       -59.9270    0.9920  -20.8000 S.3    97  MET97      -0.1393
     99  CE       -60.6090   -0.6410  -20.6930 C.3    97  MET97       0.0692
    100  N        -57.4910    2.7960  -16.4020 N.am   98  PRO98      -0.2716
    101  CA       -56.7660    3.0990  -15.1710 C.3    98  PRO98       0.1536
    102  C        -56.2080    1.8840  -14.4490 C.2    98  PRO98       0.2599
    103  O        -55.0820    2.0020  -13.9800 O.2    98  PRO98      -0.2715
    104  CB       -57.8140    3.7970  -14.3440 C.3    98  PRO98       0.0310
    105  CG       -58.6490    4.4860  -15.3730 C.3    98  PRO98       0.0237
    106  CD       -58.7180    3.5920  -16.5360 C.3    98  PRO98       0.0939
    107  N        -56.9360    0.7800  -14.4080 N.am   99  PHE99      -0.1960
    108  CA       -56.5730   -0.3730  -13.6090 C.3    99  PHE99       0.1771
    109  C        -55.7180   -1.3990  -14.3170 C.2    99  PHE99       0.2620
    110  O        -55.3320   -2.3920  -13.7370 O.2    99  PHE99      -0.2715
    111  CB       -57.8290   -1.0080  -13.0620 C.3    99  PHE99       0.0574
    112  CG       -58.6290   -0.0820  -12.2160 C.ar   99  PHE99      -0.0200
    113  CD1      -59.5150    0.7860  -12.7830 C.ar   99  PHE99      -0.0042
    114  CD2      -58.4640   -0.0640  -10.8560 C.ar   99  PHE99      -0.0042
    115  CE1      -60.2420    1.6490  -12.0090 C.ar   99  PHE99      -0.0003
    116  CE2      -59.1870    0.7920  -10.0730 C.ar   99  PHE99      -0.0003
    117  CZ       -60.0800    1.6510  -10.6510 C.ar   99  PHE99      -0.0000
    118  N        -55.4230   -1.1470  -15.5760 N.am  100  GLY100     -0.1940
    119  CA       -54.5060   -1.9810  -16.3090 C.3   100  GLY100      0.2014
    120  C        -55.1270   -3.2360  -16.8470 C.2   100  GLY100      0.2639
    121  O        -56.3310   -3.3840  -16.8760 O.2   100  GLY100     -0.2714
    122  N        -54.2760   -4.1410  -17.2940 N.am  101  CYS101     -0.1967
    123  CA       -54.7230   -5.3970  -17.8450 C.3   101  CYS101      0.1712
    124  C        -55.2990   -6.2950  -16.7780 C.2   101  CYS101      0.2296
    125  O        -54.8820   -6.2590  -15.6390 O.2   101  CYS101     -0.2864
    126  CB       -53.5970   -6.0810  -18.6010 C.3   101  CYS101      0.0983
    127  SG       -52.6760   -7.2930  -17.6710 S.3   101  CYS101     -0.0798
    128  N        -53.0250   -8.9540  -14.6670 N.3   104  ASP104     -0.1239
    129  CA       -52.3880   -8.3620  -13.5110 C.3   104  ASP104      0.1674
    130  C        -53.3860   -8.1190  -12.4250 C.2   104  ASP104      0.2266
    131  O        -53.0630   -8.3180  -11.2720 O.2   104  ASP104     -0.2867
    132  CB       -51.7070   -7.0510  -13.8590 C.3   104  ASP104      0.1410
    133  CG       -50.4280   -7.2530  -14.6230 C.2   104  ASP104      0.3668
    134  OD1      -49.7890   -6.2250  -14.9420 O.co2 104  ASP104     -0.2456
    135  OD2      -50.0580   -8.4290  -14.8830 O.co2 104  ASP104     -0.2456
    136  N        -53.2330   -9.2790   -8.4580 N.3   108  GLU108     -0.1245
    137  CA       -53.0650   -8.2930   -7.4070 C.3   108  GLU108      0.1567
    138  C        -54.1720   -8.3230   -6.3660 C.2   108  GLU108      0.2260
    139  O        -53.9020   -8.1440   -5.1890 O.2   108  GLU108     -0.2867
    140  CB       -52.9880   -6.8940   -8.0020 C.3   108  GLU108      0.0388
    141  CG       -51.6340   -6.2340   -7.9180 C.3   108  GLU108      0.1160
    142  CD       -51.0860   -5.8520   -9.2950 C.2   108  GLU108      0.3649
    143  OE1      -51.2650   -4.6870   -9.7440 O.co2 108  GLU108     -0.2457
    144  OE2      -50.4770   -6.7380   -9.9330 O.co2 108  GLU108     -0.2457
    145  N        -54.0880  -11.1860  -20.4260 N.3   145  ARG145     -0.1245
    146  CA       -53.1130  -10.1010  -20.5080 C.3   145  ARG145      0.1563
    147  C        -53.5660   -9.0370  -21.4930 C.2   145  ARG145      0.2260
    148  O        -53.2490   -7.8570  -21.3360 O.2   145  ARG145     -0.2867
    149  CB       -51.7410  -10.6450  -20.9090 C.3   145  ARG145      0.0307
    150  CG       -51.4850  -10.6790  -22.3990 C.3   145  ARG145      0.0489
    151  CD       -50.2210  -11.3890  -22.7440 C.3   145  ARG145      0.2205
    152  NE       -50.5290  -12.7580  -23.1150 N.pl3 145  ARG145     -0.0865
    153  CZ       -50.7120  -13.1610  -24.3690 C.cat 145  ARG145      0.5346
    154  NH1      -50.5910  -12.2680  -25.3530 N.pl3 145  ARG145      0.1354
    155  NH2      -51.0010  -14.4450  -24.6430 N.pl3 145  ARG145      0.1354
    156  N        -58.2080   -5.3130  -20.7430 N.3   148  LEU148     -0.1245
    157  CA       -57.8810   -4.1590  -19.8890 C.3   148  LEU148      0.1561
    158  C        -59.0870   -3.7010  -19.0910 C.2   148  LEU148      0.2260
    159  O        -60.2070   -3.8460  -19.5350 O.2   148  LEU148     -0.2867
    160  CB       -57.3380   -2.9740  -20.7110 C.3   148  LEU148      0.0270
    161  CG       -56.2850   -3.2600  -21.7880 C.3   148  LEU148      0.0019
    162  CD1      -56.0420   -2.0150  -22.6280 C.3   148  LEU148      0.0001
    163  CD2      -54.9960   -3.7920  -21.1900 C.3   148  LEU148      0.0001
    164  N        -58.2170   -5.7950  -26.1320 N.3   158  THR158     -0.1203
    165  CA       -57.1830   -5.0170  -26.7850 C.3   158  THR158      0.1994
    166  C        -56.2020   -5.8820  -27.5770 C.2   158  THR158      0.2617
    167  O        -56.4250   -7.0740  -27.7530 O.2   158  THR158     -0.2717
    168  CB       -56.4410   -4.1970  -25.7450 C.3   158  THR158      0.1784
    169  OG1      -55.7970   -3.0820  -26.3780 O.3   158  THR158     -0.2211
    170  CG2      -55.4180   -5.0470  -24.9960 C.3   158  THR158      0.0376
    171  N        -55.1250   -5.2610  -28.0510 N.am  159  ASP159     -0.1973
    172  CA       -54.0510   -5.9290  -28.7790 C.3   159  ASP159      0.1709
    173  C        -54.5380   -6.6120  -30.0270 C.2   159  ASP159      0.2293
    174  O        -54.5390   -7.8420  -30.1280 O.2   159  ASP159     -0.2864
    175  CB       -53.3180   -6.9210  -27.8980 C.3   159  ASP159      0.1436
    176  CG       -51.8320   -6.7390  -27.9750 C.2   159  ASP159      0.3671
    177  OD1      -51.2250   -7.2930  -28.9310 O.co2 159  ASP159     -0.2456
    178  OD2      -51.2920   -6.0220  -27.0950 O.co2 159  ASP159     -0.2456
@<TRIPOS>BOND
     1    43    44    1
     2    44    45    1
     3    44    47    1
     4    45    46    2
     5    52    53    1
     6    47    48    1
     7    54    53    1
     8    54    55    2
     9    53    56    1
    10    66    65    1
    11    48    49    1
    12    56    57    1
    13    65    67    1
    14    65    64    1
    15    49    50   ar
    16    49    51   ar
    17    57    58    1
    18    60    61    1
    19    64    61    1
    20    61    62    1
    21    58    59    1
    22   174   173    2
    23    37    36    2
    24   173   172    1
    25    62    63    2
    26    41    42    1
    27    41    40    1
    28    39    40    1
    29    39    38    1
    30   177   176   ar
    31    36    35    1
    32   172   171    1
    33   172   175    1
    34    38    35    1
    35   171   166   am
    36   176   175    1
    37   176   178   ar
    38    35    34    1
    39   167   166    2
    40    68    69    1
    41   166   165    1
    42    72    73    1
    43    72    69    1
    44    72    74    1
    45    69    70    1
    46   165   164    1
    47   165   168    1
    48   169   168    1
    49    70    75   am
    50    70    71    2
    51    32    31    2
    52   168   170    1
    53    75    76    1
    54   154   153    1
    55    31    30    1
    56   155   153    1
    57   153   152    2
    58    28    26    1
    59    76    79    1
    60    76    77    1
    61    79    80    1
    62    22    23    1
    63    23    26    1
    64    23    24    1
    65    27    26    1
    66    30    29    1
    67    30    33    1
    68    78    77    2
    69    77    84   am
    70   152   151    1
    71    83    81   am
    72   151   150    1
    73   162   161    1
    74    80    81    1
    75    24    25    2
    76    81    82    2
    77   150   149    1
    78    84    85    1
    79   161   163    1
    80   161   160    1
    81    21    20    2
    82   147   148    2
    83   147   146    1
    84    85    86    1
    85    85    88    1
    86   149   146    1
    87    98    99    1
    88    98    97    1
    89    20    19    1
    90   156   157    1
    91   160   157    1
    92    97    96    1
    93   146   145    1
    94    86    87    2
    95    86    92   am
    96    88    89    1
    97   157   158    1
    98    92    93    1
    99    19    18    1
   100   159   158    2
   101    18    12   am
   102     4     3    2
   103    16    15    1
   104    96    93    1
   105    90    89    1
   106    14    15    1
   107    14    11    1
   108    89    91    1
   109    93    94    1
   110    10    11    1
   111   126   123    1
   112   126   127    1
   113    15    17    1
   114     3     2    1
   115    12    11    1
   116    12    13    2
   117     1     2    1
   118   123   122    1
   119   123   124    1
   120     2     5    1
   121    94    95    2
   122    94   100   am
   123   122   120   am
   124   121   120    2
   125   120   119    1
   126   124   125    2
   127   106   100    1
   128   106   105    1
   129   100   101    1
   130   119   118    1
   131     5     6    1
   132   118   109   am
   133   105   104    1
   134   101   102    1
   135   101   104    1
   136     6     7    1
   137   134   133   ar
   138   135   133   ar
   139   128   129    1
   140   133   132    1
   141   102   107   am
   142   102   103    2
   143   107   108    1
   144   109   110    2
   145   109   108    1
   146     8     7    1
   147     8     9    1
   148   132   129    1
   149   108   111    1
   150   129   130    1
   151   111   112    1
   152   113   112   ar
   153   113   115   ar
   154   130   131    2
   155   112   114   ar
   156   115   117   ar
   157   114   116   ar
   158   117   116   ar
   159   144   142   ar
   160   143   142   ar
   161   142   141    1
   162   136   137    1
   163   140   141    1
   164   140   137    1
   165   137   138    1
   166   138   139    2
