@<TRIPOS>MOLECULE
tmp/5x2aA00.pdb
 186 176 0 0 0
SMALL
GASTEIGER

@<TRIPOS>ATOM
      1  N         12.3520   20.3190  -23.7160 N.3    17  LYS17      -0.1245
      2  CA        12.6870   19.5280  -24.8720 C.3    17  LYS17       0.1561
      3  C         11.9710   20.1960  -26.0050 C.2    17  LYS17       0.2260
      4  O         10.9130   20.7640  -25.8260 O.2    17  LYS17      -0.2867
      5  CB        12.1110   18.1110  -24.6980 C.3    17  LYS17       0.0271
      6  CG        12.7290   17.1450  -25.5660 C.3    17  LYS17       0.0035
      7  CD        11.8620   15.9200  -25.5440 C.3    17  LYS17       0.0206
      8  CE        12.5570   14.7530  -26.0920 C.3    17  LYS17       0.1093
      9  NZ        12.0920   14.4220  -27.4300 N.3    17  LYS17      -0.1314
     10  N          9.7420   19.5870  -29.2510 N.3    19  LEU19      -0.1231
     11  CA         8.9130   18.5090  -29.8100 C.3    19  LEU19       0.1693
     12  C          8.7180   18.6120  -31.3280 C.2    19  LEU19       0.2592
     13  O          8.3520   17.6070  -31.9980 O.2    19  LEU19      -0.2718
     14  CB         7.4970   18.5500  -29.1630 C.3    19  LEU19       0.0284
     15  CG         7.4710   18.2850  -27.6730 C.3    19  LEU19       0.0019
     16  CD1        6.0640   18.5490  -27.1040 C.3    19  LEU19       0.0001
     17  CD2        7.9350   16.8150  -27.4100 C.3    19  LEU19       0.0001
     18  N          8.8240   19.8110  -31.8470 N.am   20  GLY20      -0.1957
     19  CA         8.6790   20.0360  -33.2860 C.3    20  GLY20       0.1869
     20  C          8.5090   21.4790  -33.5600 C.2    20  GLY20       0.2309
     21  O          8.6640   22.3330  -32.6840 O.2    20  GLY20      -0.2863
     22  N          7.2390   24.1130  -30.7730 N.3    27  VAL27      -0.1245
     23  CA         6.5450   23.4870  -29.6870 C.3    27  VAL27       0.1561
     24  C          7.5500   22.7920  -28.7970 C.2    27  VAL27       0.2260
     25  O          8.4500   22.0920  -29.2780 O.2    27  VAL27      -0.2867
     26  CB         5.5010   22.5210  -30.1420 C.3    27  VAL27       0.0252
     27  CG1        4.8240   21.8550  -28.9000 C.3    27  VAL27       0.0019
     28  CG2        4.4850   23.2420  -31.0230 C.3    27  VAL27       0.0019
     29  N          2.5740   21.0160  -22.8680 N.3    44  ALA44      -0.1231
     30  CA         3.1050   21.4030  -24.1800 C.3    44  ALA44       0.1694
     31  C          3.1040   22.9100  -24.2700 C.2    44  ALA44       0.2592
     32  O          2.1250   23.5850  -23.8820 O.2    44  ALA44      -0.2718
     33  CB         2.2510   20.7700  -25.3280 C.3    44  ALA44       0.0304
     34  N          4.1910   23.4890  -24.7980 N.am   45  ILE45      -0.1966
     35  CA         4.2580   24.9280  -24.9280 C.3    45  ILE45       0.1727
     36  C          4.5350   25.3280  -26.3660 C.2    45  ILE45       0.2616
     37  O          5.5340   24.9050  -26.9140 O.2    45  ILE45      -0.2715
     38  CB         5.4090   25.5190  -24.0600 C.3    45  ILE45       0.0290
     39  CG1        5.1470   25.1670  -22.5900 C.3    45  ILE45       0.0022
     40  CG2        5.4590   27.0330  -24.3060 C.3    45  ILE45       0.0023
     41  CD1        6.3640   25.2020  -21.7450 C.3    45  ILE45       0.0001
     42  N          3.6860   26.1210  -26.9700 N.am   46  LYS46      -0.1977
     43  CA         3.9870   26.5840  -28.2940 C.3    46  LYS46       0.1596
     44  C          4.3540   28.0470  -28.1900 C.2    46  LYS46       0.2287
     45  O          3.5620   28.8710  -27.7330 O.2    46  LYS46      -0.2864
     46  CB         2.8110   26.4780  -29.2830 C.3    46  LYS46       0.0298
     47  CG         3.1840   27.0170  -30.7320 C.3    46  LYS46       0.0038
     48  CD         2.0780   26.7450  -31.7980 C.3    46  LYS46       0.0206
     49  CE         2.1720   25.4050  -32.4780 C.3    46  LYS46       0.1093
     50  NZ         1.5040   25.3110  -33.8340 N.3    46  LYS46      -0.1314
     51  N          1.8390   29.5730  -25.6860 N.3    89  LEU89      -0.1245
     52  CA         0.5480   28.9630  -25.5140 C.3    89  LEU89       0.1561
     53  C          0.7080   27.6590  -24.7660 C.2    89  LEU89       0.2260
     54  O          1.5230   26.8130  -25.1910 O.2    89  LEU89      -0.2867
     55  CB        -0.0560   28.6900  -26.8760 C.3    89  LEU89       0.0270
     56  CG        -0.3040   29.9390  -27.7340 C.3    89  LEU89       0.0019
     57  CD1       -0.7820   29.5390  -29.1170 C.3    89  LEU89       0.0001
     58  CD2       -1.3930   30.8940  -27.1170 C.3    89  LEU89       0.0001
     59  N         -0.7190   23.9990  -23.3550 N.3    91  MET91      -0.1230
     60  CA        -1.7510   23.0550  -23.6480 C.3    91  MET91       0.1702
     61  C         -1.4040   21.6640  -23.2100 C.2    91  MET91       0.2592
     62  O         -0.3290   21.5880  -22.6370 O.2    91  MET91      -0.2718
     63  CB        -1.9460   22.9040  -25.1520 C.3    91  MET91       0.0401
     64  CG        -2.5450   24.2120  -25.7960 C.3    91  MET91       0.0596
     65  SD        -2.8370   23.9150  -27.5370 S.3    91  MET91      -0.1393
     66  CE        -4.4030   23.0720  -27.4890 C.3    91  MET91       0.0692
     67  N         -2.2500   20.7730  -23.0030 N.am   92  GLN92      -0.1966
     68  CA        -1.9200   19.4760  -22.4370 C.3    92  GLN92       0.1733
     69  C         -0.9210   18.7440  -23.3480 C.2    92  GLN92       0.2616
     70  O         -1.0420   18.8300  -24.5770 O.2    92  GLN92      -0.2715
     71  CB        -3.2110   18.6640  -22.2810 C.3    92  GLN92       0.0408
     72  CG        -3.1130   17.3480  -21.6790 C.3    92  GLN92       0.0908
     73  CD        -4.5320   16.8190  -21.4270 C.2    92  GLN92       0.2608
     74  OE1       -5.4260   16.9980  -22.2880 O.2    92  GLN92      -0.2717
     75  NE2       -4.7610   16.2140  -20.2370 N.am   92  GLN92      -0.0878
     76  N          0.0020   17.9930  -22.7390 N.am   93  LEU93      -0.1963
     77  CA         1.0080   17.2350  -23.4810 C.3    93  LEU93       0.1728
     78  C          0.4060   15.8990  -23.8530 C.2    93  LEU93       0.2616
     79  O         -0.1420   15.1990  -23.0100 O.2    93  LEU93      -0.2715
     80  CB         2.2490   16.9530  -22.6250 C.3    93  LEU93       0.0311
     81  CG         3.3580   16.0400  -23.1900 C.3    93  LEU93       0.0022
     82  CD1        4.0410   16.7080  -24.3810 C.3    93  LEU93       0.0001
     83  CD2        4.4240   15.7340  -22.1070 C.3    93  LEU93       0.0001
     84  N          0.5850   15.5040  -25.1080 N.am   94  MET94      -0.1964
     85  CA         0.1510   14.1640  -25.5580 C.3    94  MET94       0.1722
     86  C          1.3560   13.2800  -25.8840 C.2    94  MET94       0.2458
     87  O          1.9490   13.4970  -26.9070 O.2    94  MET94      -0.2730
     88  CB        -0.7270   14.3660  -26.8020 C.3    94  MET94       0.0427
     89  CG        -1.7690   15.4530  -26.6160 C.3    94  MET94       0.0599
     90  SD        -3.0900   14.6050  -25.7780 S.3    94  MET94      -0.1393
     91  CE        -4.3000   15.9020  -25.5090 C.3    94  MET94       0.0692
     92  N          1.7210   12.3080  -25.0140 N.am   95  PRO95      -0.2716
     93  CA         2.9550   11.5170  -25.2170 C.3    95  PRO95       0.1536
     94  C          2.9950   10.7910  -26.5460 C.2    95  PRO95       0.2599
     95  O          4.0810   10.5620  -27.0900 O.2    95  PRO95      -0.2715
     96  CB         2.8740   10.4480  -24.1160 C.3    95  PRO95       0.0310
     97  CG         2.2690   11.1790  -22.9650 C.3    95  PRO95       0.0237
     98  CD         1.2270   12.1230  -23.6270 C.3    95  PRO95       0.0939
     99  N          1.8380   10.4310  -27.0800 N.am   96  PHE96      -0.1960
    100  CA         1.8060    9.7740  -28.4190 C.3    96  PHE96       0.1771
    101  C          2.1070   10.6140  -29.6160 C.2    96  PHE96       0.2620
    102  O          2.3520   10.0840  -30.6840 O.2    96  PHE96      -0.2715
    103  CB         0.4560    9.0420  -28.6410 C.3    96  PHE96       0.0574
    104  CG         0.3730    7.7320  -27.9700 C.ar   96  PHE96      -0.0200
    105  CD1        0.9910    6.6150  -28.5090 C.ar   96  PHE96      -0.0042
    106  CD2       -0.4300    7.5790  -26.8450 C.ar   96  PHE96      -0.0042
    107  CE1        0.8680    5.3260  -27.8640 C.ar   96  PHE96      -0.0003
    108  CE2       -0.5360    6.3700  -26.1810 C.ar   96  PHE96      -0.0003
    109  CZ         0.0910    5.1940  -26.7200 C.ar   96  PHE96      -0.0000
    110  N          2.0280   11.9330  -29.4750 N.am   97  GLY97      -0.1940
    111  CA         2.3680   12.8560  -30.5340 C.3    97  GLY97       0.2014
    112  C          1.2790   12.9880  -31.6270 C.2    97  GLY97       0.2639
    113  O          0.0850   12.7000  -31.3960 O.2    97  GLY97      -0.2714
    114  N          1.6830   13.4030  -32.8220 N.am   98  CYS98      -0.1967
    115  CA         0.6310   13.6660  -33.8570 C.3    98  CYS98       0.1712
    116  C          0.2380   12.4220  -34.6570 C.2    98  CYS98       0.2296
    117  O          0.9690   11.4360  -34.7200 O.2    98  CYS98      -0.2864
    118  CB         0.9800   14.8340  -34.7690 C.3    98  CYS98       0.0983
    119  SG         2.2350   14.4250  -36.0110 S.3    98  CYS98      -0.0798
    120  N          2.5430   11.3230  -37.6920 N.3   101  ASP101     -0.1239
    121  CA         3.6830   10.4540  -37.3030 C.3   101  ASP101      0.1674
    122  C          3.2450    9.0870  -36.8790 C.2   101  ASP101      0.2266
    123  O          3.9230    8.1020  -37.1710 O.2   101  ASP101     -0.2867
    124  CB         4.4780   11.0620  -36.1530 C.3   101  ASP101      0.1410
    125  CG         5.2180   12.3080  -36.5650 C.2   101  ASP101      0.3668
    126  OD1        5.4300   12.5690  -37.7980 O.co2 101  ASP101     -0.2456
    127  OD2        5.5870   13.0400  -35.6590 O.co2 101  ASP101     -0.2456
    128  N          4.6600    5.6780  -38.4890 N.3   105  GLU105     -0.1245
    129  CA         5.3310    4.7210  -37.6080 C.3   105  GLU105      0.1567
    130  C          4.6450    3.3490  -37.5270 C.2   105  GLU105      0.2260
    131  O          5.3120    2.3020  -37.3740 O.2   105  GLU105     -0.2867
    132  CB         5.5290    5.3810  -36.2540 C.3   105  GLU105      0.0388
    133  CG         6.6380    6.4380  -36.3180 C.3   105  GLU105      0.1160
    134  CD         6.7820    7.2500  -35.0460 C.2   105  GLU105      0.3649
    135  OE1        6.5190    6.6870  -33.9680 O.co2 105  GLU105     -0.2457
    136  OE2        7.1710    8.4460  -35.1290 O.co2 105  GLU105     -0.2457
    137  N         -1.0140   16.3570  -39.4250 N.3   142  ARG142     -0.1231
    138  CA        -0.0130   16.9030  -38.5070 C.3   142  ARG142      0.1694
    139  C         -0.6030   17.6730  -37.3310 C.2   142  ARG142      0.2592
    140  O          0.0870   17.8920  -36.3600 O.2   142  ARG142     -0.2718
    141  CB         0.9650   17.8230  -39.2400 C.3   142  ARG142      0.0321
    142  CG         0.3850   19.1240  -39.7650 C.3   142  ARG142      0.0489
    143  CD         1.4640   19.9860  -40.4540 C.3   142  ARG142      0.2205
    144  NE         0.7180   21.0580  -41.0720 N.pl3 142  ARG142     -0.0865
    145  CZ         0.1370   21.0000  -42.2860 C.cat 142  ARG142      0.5346
    146  NH1       -0.5680   22.0260  -42.6950 N.pl3 142  ARG142      0.1354
    147  NH2        0.3090   19.9520  -43.0900 N.pl3 142  ARG142      0.1354
    148  N         -1.8230   18.1600  -37.5000 N.am  143  ASN143     -0.1974
    149  CA        -2.5640   18.9550  -36.4540 C.3   143  ASN143      0.1688
    150  C         -3.6840   18.1520  -35.8420 C.2   143  ASN143      0.2292
    151  O         -4.6980   18.7320  -35.4220 O.2   143  ASN143     -0.2864
    152  CB        -3.1640   20.1770  -37.1110 C.3   143  ASN143      0.1181
    153  CG        -2.1470   21.2270  -37.2520 C.2   143  ASN143      0.2629
    154  OD1       -1.2130   21.1730  -36.4610 O.2   143  ASN143     -0.2716
    155  ND2       -2.2470   22.1400  -38.2240 N.am  143  ASN143     -0.0877
    156  N         -3.8340   15.2140  -32.7980 N.3   145  LEU145     -0.1245
    157  CA        -2.9330   14.5830  -31.8410 C.3   145  LEU145      0.1561
    158  C         -3.5470   13.2680  -31.4010 C.2   145  LEU145      0.2260
    159  O         -4.7300   13.1380  -31.3120 O.2   145  LEU145     -0.2867
    160  CB        -2.7430   15.4470  -30.5860 C.3   145  LEU145      0.0270
    161  CG        -2.1500   16.8150  -30.9340 C.3   145  LEU145      0.0019
    162  CD1       -1.9910   17.6880  -29.7440 C.3   145  LEU145      0.0001
    163  CD2       -0.7680   16.5300  -31.6420 C.3   145  LEU145      0.0001
    164  N         -5.8290   19.7620  -32.9900 N.3   155  THR155     -0.1203
    165  CA        -5.1340   20.8560  -32.2980 C.3   155  THR155      0.1994
    166  C         -4.9380   22.0370  -33.2200 C.2   155  THR155      0.2617
    167  O         -5.3920   22.0130  -34.4050 O.2   155  THR155     -0.2717
    168  CB        -3.7960   20.3590  -31.6460 C.3   155  THR155      0.1784
    169  OG1       -3.3590   21.3790  -30.7600 O.3   155  THR155     -0.2211
    170  CG2       -2.6420   20.0450  -32.7150 C.3   155  THR155      0.0376
    171  N         -4.3250   23.1050  -32.7210 N.am  156  ASP156     -0.1973
    172  CA        -3.9870   24.2880  -33.5430 C.3   156  ASP156      0.1709
    173  C         -5.1920   25.1480  -33.9960 C.2   156  ASP156      0.2293
    174  O         -5.1030   26.0330  -34.9040 O.2   156  ASP156     -0.2864
    175  CB        -3.1120   23.8670  -34.7510 C.3   156  ASP156      0.1436
    176  CG        -1.6100   24.1490  -34.5360 C.2   156  ASP156      0.3671
    177  OD1       -1.1950   24.4340  -33.4080 O.co2 156  ASP156     -0.2456
    178  OD2       -0.8560   24.1540  -35.5310 O.co2 156  ASP156     -0.2456
    179  N         -4.8650   29.3200  -34.4580 N.3   159  LEU159     -0.1245
    180  CA        -3.5430   29.8110  -34.7590 C.3   159  LEU159      0.1561
    181  C         -3.4360   30.5940  -36.0610 C.2   159  LEU159      0.2260
    182  O         -2.8680   31.6670  -36.1020 O.2   159  LEU159     -0.2867
    183  CB        -2.5480   28.6690  -34.7190 C.3   159  LEU159      0.0270
    184  CG        -2.1010   28.5850  -33.2750 C.3   159  LEU159      0.0019
    185  CD1       -3.0080   27.7020  -32.4580 C.3   159  LEU159      0.0001
    186  CD2       -0.6540   28.1930  -33.1270 C.3   159  LEU159      0.0001
@<TRIPOS>BOND
     1   147   145    1
     2   146   145    1
     3   145   144    2
     4   144   143    1
     5   143   142    1
     6   142   141    1
     7   137   138    1
     8   141   138    1
     9   138   139    1
    10   128   129    1
    11   155   153   am
    12   126   125   ar
    13   120   121    1
    14   129   130    1
    15   129   132    1
    16   130   131    2
    17   148   139   am
    18   148   149    1
    19   139   140    2
    20   121   122    1
    21   121   124    1
    22   153   152    1
    23   153   154    2
    24   123   122    2
    25   152   149    1
    26   125   124    1
    27   125   127   ar
    28   149   150    1
    29   133   132    1
    30   133   134    1
    31   182   181    2
    32   181   180    1
    33   119   118    1
    34   150   151    2
    35   178   176   ar
    36   136   134   ar
    37   134   135   ar
    38   174   173    2
    39   118   115    1
    40   180   183    1
    41   180   179    1
    42   175   176    1
    43   175   172    1
    44   117   116    2
    45   183   184    1
    46   116   115    1
    47   176   177   ar
    48   167   166    2
    49   173   172    1
    50   115   114    1
    51    50    49    1
    52    20    19    1
    53    20    21    2
    54   172   171    1
    55    19    18    1
    56   184   186    1
    57   184   185    1
    58   166   171   am
    59   166   165    1
    60   164   165    1
    61   114   112   am
    62   156   157    1
    63   170   168    1
    64    49    48    1
    65   165   168    1
    66    13    12    2
    67    18    12   am
    68   157   158    1
    69   157   160    1
    70    48    47    1
    71   168   169    1
    72   163   161    1
    73   112   113    2
    74   112   111    1
    75   158   159    2
    76    12    11    1
    77    28    26    1
    78   161   160    1
    79   161   162    1
    80    22    23    1
    81    47    46    1
    82   102   101    2
    83   111   110    1
    84    26    23    1
    85    26    27    1
    86    11    10    1
    87    11    14    1
    88    23    24    1
    89   101   110   am
    90   101   100    1
    91    46    43    1
    92    25    24    2
    93    14    15    1
    94    57    56    1
    95   103   100    1
    96   103   104    1
    97   105   104   ar
    98   105   107   ar
    99   100    99    1
   100    43    44    1
   101    43    42    1
   102    44    45    2
   103   104   106   ar
   104   107   109   ar
   105    56    58    1
   106    56    55    1
   107    15    17    1
   108    15    16    1
   109    65    66    1
   110    65    64    1
   111     9     8    1
   112    95    94    2
   113    99    94   am
   114    42    36   am
   115    37    36    2
   116    87    86    2
   117    55    52    1
   118   106   108   ar
   119    88    89    1
   120    88    85    1
   121   109   108   ar
   122    89    90    1
   123    94    93    1
   124    36    35    1
   125     8     7    1
   126     3     4    2
   127     3     2    1
   128    86    85    1
   129    86    92   am
   130    64    63    1
   131    90    91    1
   132    51    52    1
   133     6     7    1
   134     6     5    1
   135    85    84    1
   136    52    53    1
   137    33    30    1
   138    93    92    1
   139    93    96    1
   140    54    53    2
   141    63    60    1
   142    84    78   am
   143    92    98    1
   144    35    34    1
   145    35    38    1
   146     2     5    1
   147     2     1    1
   148    34    31   am
   149    70    69    2
   150    82    81    1
   151    40    38    1
   152    31    30    1
   153    31    32    2
   154    30    29    1
   155    96    97    1
   156    38    39    1
   157    78    77    1
   158    78    79    2
   159    60    59    1
   160    60    61    1
   161    98    97    1
   162    77    76    1
   163    77    80    1
   164    69    76   am
   165    69    68    1
   166    61    67   am
   167    61    62    2
   168    81    80    1
   169    81    83    1
   170    67    68    1
   171    39    41    1
   172    68    71    1
   173    74    73    2
   174    71    72    1
   175    72    73    1
   176    73    75   am
