@<TRIPOS>MOLECULE
tmp/5x2aA01.pdb
 100 95 0 0 0
SMALL
GASTEIGER

@<TRIPOS>ATOM
      1  N          9.7420   19.5870  -29.2510 N.3    19  LEU19      -0.1231
      2  CA         8.9130   18.5090  -29.8100 C.3    19  LEU19       0.1693
      3  C          8.7180   18.6120  -31.3280 C.2    19  LEU19       0.2593
      4  O          8.3520   17.6070  -31.9980 O.2    19  LEU19      -0.2718
      5  CB         7.4970   18.5500  -29.1630 C.3    19  LEU19       0.0284
      6  CG         7.4710   18.2850  -27.6730 C.3    19  LEU19       0.0019
      7  CD1        6.0640   18.5490  -27.1040 C.3    19  LEU19       0.0001
      8  CD2        7.9350   16.8150  -27.4100 C.3    19  LEU19       0.0001
      9  N          8.8240   19.8110  -31.8470 N.am   20  GLY20      -0.1942
     10  CA         8.6790   20.0360  -33.2860 C.3    20  GLY20       0.2014
     11  C          8.5090   21.4790  -33.5600 C.2    20  GLY20       0.2640
     12  O          8.6640   22.3330  -32.6840 O.2    20  GLY20      -0.2714
     13  N          8.1430   21.7890  -34.7960 N.am   21  SER21      -0.1935
     14  CA         7.9470   23.1740  -35.1850 C.3    21  SER21       0.2055
     15  C          6.9790   23.2190  -36.3660 C.2    21  SER21       0.2644
     16  O          6.7270   22.1800  -36.9900 O.2    21  SER21      -0.2714
     17  CB         9.2860   23.8060  -35.5470 C.3    21  SER21       0.2130
     18  OG         9.7870   23.2910  -36.7680 O.3    21  SER21      -0.2179
     19  N          6.4100   24.3940  -36.6420 N.am   22  GLY22      -0.1939
     20  CA         5.5110   24.5260  -37.7770 C.3    22  GLY22       0.2014
     21  C          5.6280   25.9340  -38.2770 C.2    22  GLY22       0.2639
     22  O          6.5520   26.6710  -37.8890 O.2    22  GLY22      -0.2714
     23  N          4.6400   26.3420  -39.0800 N.am   23  ALA23      -0.1963
     24  CA         4.6530   27.6720  -39.6880 C.3    23  ALA23       0.1728
     25  C          4.3060   28.8020  -38.7150 C.2    23  ALA23       0.2616
     26  O          4.5280   29.9510  -39.0320 O.2    23  ALA23      -0.2715
     27  CB         3.7640   27.7130  -40.9630 C.3    23  ALA23       0.0334
     28  N          3.7670   28.4750  -37.5330 N.am   24  PHE24      -0.1960
     29  CA         3.4360   29.4990  -36.5310 C.3    24  PHE24       0.1771
     30  C          4.3800   29.5590  -35.3110 C.2    24  PHE24       0.2620
     31  O          4.3940   30.5750  -34.5910 O.2    24  PHE24      -0.2715
     32  CB         1.9500   29.4150  -36.0860 C.3    24  PHE24       0.0574
     33  CG         0.9710   29.2750  -37.2280 C.ar   24  PHE24      -0.0200
     34  CD1        0.7200   30.3640  -38.0960 C.ar   24  PHE24      -0.0042
     35  CD2        0.2960   28.0650  -37.4420 C.ar   24  PHE24      -0.0042
     36  CE1       -0.1680   30.2420  -39.1530 C.ar   24  PHE24      -0.0003
     37  CE2       -0.6120   27.9280  -38.4990 C.ar   24  PHE24      -0.0003
     38  CZ        -0.8410   29.0230  -39.3570 C.ar   24  PHE24      -0.0000
     39  N          5.1740   28.5180  -35.0700 N.am   25  GLY25      -0.1954
     40  CA         6.1250   28.5690  -33.9480 C.3    25  GLY25       0.1869
     41  C          6.8040   27.2380  -33.6700 C.2    25  GLY25       0.2309
     42  O          6.7530   26.3360  -34.5020 O.2    25  GLY25      -0.2863
     43  N          7.2390   24.1130  -30.7730 N.3    27  VAL27      -0.1245
     44  CA         6.5450   23.4870  -29.6870 C.3    27  VAL27       0.1561
     45  C          7.5500   22.7920  -28.7970 C.2    27  VAL27       0.2260
     46  O          8.4500   22.0920  -29.2780 O.2    27  VAL27      -0.2867
     47  CB         5.5010   22.5210  -30.1420 C.3    27  VAL27       0.0252
     48  CG1        4.8240   21.8550  -28.9000 C.3    27  VAL27       0.0019
     49  CG2        4.4850   23.2420  -31.0230 C.3    27  VAL27       0.0019
     50  N          3.6860   26.1210  -26.9700 N.3    46  LYS46      -0.1245
     51  CA         3.9870   26.5840  -28.2940 C.3    46  LYS46       0.1561
     52  C          4.3540   28.0470  -28.1900 C.2    46  LYS46       0.2260
     53  O          3.5620   28.8710  -27.7330 O.2    46  LYS46      -0.2867
     54  CB         2.8110   26.4780  -29.2830 C.3    46  LYS46       0.0271
     55  CG         3.1840   27.0170  -30.7320 C.3    46  LYS46       0.0035
     56  CD         2.0780   26.7450  -31.7980 C.3    46  LYS46       0.0206
     57  CE         2.1720   25.4050  -32.4780 C.3    46  LYS46       0.1093
     58  NZ         1.5040   25.3110  -33.8340 N.3    46  LYS46      -0.1314
     59  N         -6.5650   25.2690  -40.7510 N.3   138  ASP138     -0.1239
     60  CA        -5.2520   24.5520  -40.9040 C.3   138  ASP138      0.1674
     61  C         -5.3610   23.1330  -40.4990 C.2   138  ASP138      0.2266
     62  O         -4.4530   22.5410  -39.8870 O.2   138  ASP138     -0.2867
     63  CB        -4.0280   25.3320  -40.2250 C.3   138  ASP138      0.1410
     64  CG        -2.6470   24.6870  -40.5080 C.2   138  ASP138      0.3668
     65  OD1       -2.4540   24.0500  -41.5860 O.co2 138  ASP138     -0.2456
     66  OD2       -1.7440   24.7530  -39.6000 O.co2 138  ASP138     -0.2456
     67  N         -1.0140   16.3570  -39.4250 N.3   142  ARG142     -0.1231
     68  CA        -0.0130   16.9030  -38.5070 C.3   142  ARG142      0.1694
     69  C         -0.6030   17.6730  -37.3310 C.2   142  ARG142      0.2592
     70  O          0.0870   17.8920  -36.3600 O.2   142  ARG142     -0.2718
     71  CB         0.9650   17.8230  -39.2400 C.3   142  ARG142      0.0321
     72  CG         0.3850   19.1240  -39.7650 C.3   142  ARG142      0.0489
     73  CD         1.4640   19.9860  -40.4540 C.3   142  ARG142      0.2205
     74  NE         0.7180   21.0580  -41.0720 N.pl3 142  ARG142     -0.0865
     75  CZ         0.1370   21.0000  -42.2860 C.cat 142  ARG142      0.5346
     76  NH1       -0.5680   22.0260  -42.6950 N.pl3 142  ARG142      0.1354
     77  NH2        0.3090   19.9520  -43.0900 N.pl3 142  ARG142      0.1354
     78  N         -1.8230   18.1600  -37.5000 N.am  143  ASN143     -0.1974
     79  CA        -2.5640   18.9550  -36.4540 C.3   143  ASN143      0.1688
     80  C         -3.6840   18.1520  -35.8420 C.2   143  ASN143      0.2292
     81  O         -4.6980   18.7320  -35.4220 O.2   143  ASN143     -0.2864
     82  CB        -3.1640   20.1770  -37.1110 C.3   143  ASN143      0.1181
     83  CG        -2.1470   21.2270  -37.2520 C.2   143  ASN143      0.2629
     84  OD1       -1.2130   21.1730  -36.4610 O.2   143  ASN143     -0.2716
     85  ND2       -2.2470   22.1400  -38.2240 N.am  143  ASN143     -0.0877
     86  N         -5.8290   19.7620  -32.9900 N.3   155  THR155     -0.1203
     87  CA        -5.1340   20.8560  -32.2980 C.3   155  THR155      0.1994
     88  C         -4.9380   22.0370  -33.2200 C.2   155  THR155      0.2617
     89  O         -5.3920   22.0130  -34.4050 O.2   155  THR155     -0.2717
     90  CB        -3.7960   20.3590  -31.6460 C.3   155  THR155      0.1784
     91  OG1       -3.3590   21.3790  -30.7600 O.3   155  THR155     -0.2211
     92  CG2       -2.6420   20.0450  -32.7150 C.3   155  THR155      0.0376
     93  N         -4.3250   23.1050  -32.7210 N.am  156  ASP156     -0.1973
     94  CA        -3.9870   24.2880  -33.5430 C.3   156  ASP156      0.1709
     95  C         -5.1920   25.1480  -33.9960 C.2   156  ASP156      0.2293
     96  O         -5.1030   26.0330  -34.9040 O.2   156  ASP156     -0.2864
     97  CB        -3.1120   23.8670  -34.7510 C.3   156  ASP156      0.1436
     98  CG        -1.6100   24.1490  -34.5360 C.2   156  ASP156      0.3671
     99  OD1       -1.1950   24.4340  -33.4080 O.co2 156  ASP156     -0.2456
    100  OD2       -0.8560   24.1540  -35.5310 O.co2 156  ASP156     -0.2456
@<TRIPOS>BOND
     1    77    75    1
     2    76    75    1
     3    75    74    2
     4    65    64   ar
     5    74    73    1
     6    27    24    1
     7    60    59    1
     8    60    61    1
     9    60    63    1
    10    64    63    1
    11    64    66   ar
    12    61    62    2
    13    73    72    1
    14    72    71    1
    15    24    23    1
    16    24    25    1
    17    67    68    1
    18    38    36   ar
    19    38    37   ar
    20    71    68    1
    21    36    34   ar
    22    23    21   am
    23    26    25    2
    24    25    28   am
    25    68    69    1
    26    37    35   ar
    27    21    22    2
    28    21    20    1
    29    85    83   am
    30    34    33   ar
    31    20    19    1
    32    28    29    1
    33    78    69   am
    34    78    79    1
    35    35    33   ar
    36    69    70    2
    37    83    82    1
    38    83    84    2
    39    33    32    1
    40    82    79    1
    41    16    15    2
    42    18    17    1
    43    19    15   am
    44    29    32    1
    45    29    30    1
    46    79    80    1
    47    15    14    1
    48    80    81    2
    49    17    14    1
    50   100    98   ar
    51    30    39   am
    52    30    31    2
    53    14    13    1
    54    39    40    1
    55    96    95    2
    56    13    11   am
    57    97    98    1
    58    97    94    1
    59    98    99   ar
    60    42    41    2
    61    89    88    2
    62    95    94    1
    63    40    41    1
    64    58    57    1
    65    11    10    1
    66    11    12    2
    67    94    93    1
    68    10     9    1
    69    88    93   am
    70    88    87    1
    71    86    87    1
    72    92    90    1
    73    57    56    1
    74    87    90    1
    75     4     3    2
    76     9     3   am
    77    56    55    1
    78    90    91    1
    79     3     2    1
    80    49    47    1
    81    43    44    1
    82    55    54    1
    83    47    44    1
    84    47    48    1
    85     2     1    1
    86     2     5    1
    87    44    45    1
    88    54    51    1
    89    46    45    2
    90     5     6    1
    91    51    52    1
    92    51    50    1
    93    52    53    2
    94     6     8    1
    95     6     7    1
