@<TRIPOS>MOLECULE
tmp/5x2aB00.pdb
 84 82 0 0 0
SMALL
GASTEIGER

@<TRIPOS>ATOM
      1  N        -22.6440   10.0360  -10.0480 N.3    17  LYS17      -0.1231
      2  CA       -22.3860   10.9090   -8.9100 C.3    17  LYS17       0.1693
      3  C        -23.1970   10.5130   -7.6850 C.2    17  LYS17       0.2592
      4  O        -24.3430   10.1740   -7.7860 O.2    17  LYS17      -0.2718
      5  CB       -22.6500   12.3650   -9.2850 C.3    17  LYS17       0.0285
      6  CG       -22.7150   13.3260   -8.1180 C.3    17  LYS17       0.0035
      7  CD       -22.8460   14.7790   -8.5550 C.3    17  LYS17       0.0206
      8  CE       -24.2710   15.2930   -8.3910 C.3    17  LYS17       0.1093
      9  NZ       -24.3940   16.6350   -7.7440 N.3    17  LYS17      -0.1314
     10  N        -22.5940   10.6020   -6.5160 N.am   18  VAL18      -0.1966
     11  CA       -23.2870   10.2350   -5.3080 C.3    18  VAL18       0.1727
     12  C        -24.1760   11.3800   -4.8900 C.2    18  VAL18       0.2616
     13  O        -23.7070   12.4740   -4.7670 O.2    18  VAL18      -0.2715
     14  CB       -22.2950    9.9280   -4.1780 C.3    18  VAL18       0.0290
     15  CG1      -23.0150    9.8070   -2.8600 C.3    18  VAL18       0.0023
     16  CG2      -21.5380    8.6590   -4.4780 C.3    18  VAL18       0.0023
     17  N        -25.4620   11.1140   -4.7100 N.am   19  LEU19      -0.1977
     18  CA       -26.3960   12.1000   -4.1710 C.3    19  LEU19       0.1596
     19  C        -26.5350   12.0980   -2.6490 C.2    19  LEU19       0.2287
     20  O        -26.6710   13.1280   -2.0480 O.2    19  LEU19      -0.2864
     21  CB       -27.7690   11.9870   -4.8510 C.3    19  LEU19       0.0297
     22  CG       -27.8010   12.2850   -6.3520 C.3    19  LEU19       0.0022
     23  CD1      -29.1750   12.1120   -6.9890 C.3    19  LEU19       0.0001
     24  CD2      -27.2920   13.6790   -6.6320 C.3    19  LEU19       0.0001
     25  N        -35.1320   10.6590  -11.4320 N.3    93  LEU93      -0.1231
     26  CA       -34.2220   11.6330  -10.7710 C.3    93  LEU93       0.1693
     27  C        -35.0560   12.9000  -10.4800 C.2    93  LEU93       0.2592
     28  O        -35.7690   13.3950  -11.3700 O.2    93  LEU93      -0.2718
     29  CB       -33.0910   11.9520  -11.7240 C.3    93  LEU93       0.0284
     30  CG       -32.0700   12.9450  -11.1190 C.3    93  LEU93       0.0019
     31  CD1      -31.3680   12.4110   -9.8790 C.3    93  LEU93       0.0001
     32  CD2      -31.0810   13.4610  -12.1850 C.3    93  LEU93       0.0001
     33  N        -35.0180   13.3700   -9.2310 N.am   94  MET94      -0.1966
     34  CA       -35.6950   14.5840   -8.8100 C.3    94  MET94       0.1721
     35  C        -34.6390   15.6010   -8.4320 C.2    94  MET94       0.2458
     36  O        -34.1540   15.5180   -7.2800 O.2    94  MET94      -0.2730
     37  CB       -36.4360   14.2680   -7.5340 C.3    94  MET94       0.0427
     38  CG       -37.3720   13.1140   -7.6240 C.3    94  MET94       0.0599
     39  SD       -38.7200   13.5230   -8.6740 S.3    94  MET94      -0.1393
     40  CE       -39.9060   12.9840   -7.5070 C.3    94  MET94       0.0692
     41  N        -34.3270   16.5540   -9.3070 N.am   95  PRO95      -0.2716
     42  CA       -33.2300   17.5700   -9.0550 C.3    95  PRO95       0.1536
     43  C        -33.3800   18.3330   -7.7550 C.2    95  PRO95       0.2599
     44  O        -32.3610   18.6520   -7.1360 O.2    95  PRO95      -0.2715
     45  CB       -33.3160   18.5340  -10.2390 C.3    95  PRO95       0.0310
     46  CG       -33.9420   17.7330  -11.3070 C.3    95  PRO95       0.0237
     47  CD       -34.9850   16.8550  -10.5960 C.3    95  PRO95       0.0939
     48  N        -34.6000   18.5400   -7.2800 N.am   96  PHE96      -0.1960
     49  CA       -34.7520   19.2790   -6.0100 C.3    96  PHE96       0.1771
     50  C        -34.3900   18.4710   -4.7650 C.2    96  PHE96       0.2620
     51  O        -34.2740   19.0510   -3.6620 O.2    96  PHE96      -0.2715
     52  CB       -36.1570   19.8180   -5.8040 C.3    96  PHE96       0.0574
     53  CG       -36.4700   21.0180   -6.6490 C.ar   96  PHE96      -0.0200
     54  CD1      -36.1390   22.3030   -6.2260 C.ar   96  PHE96      -0.0042
     55  CD2      -37.1710   20.8760   -7.8350 C.ar   96  PHE96      -0.0042
     56  CE1      -36.4240   23.4070   -7.0350 C.ar   96  PHE96      -0.0003
     57  CE2      -37.4810   21.9420   -8.6560 C.ar   96  PHE96      -0.0003
     58  CZ       -37.1310   23.2490   -8.2660 C.ar   96  PHE96      -0.0000
     59  N        -34.3010   17.1590   -4.8980 N.am   97  GLY97      -0.1940
     60  CA       -34.0000   16.3150   -3.7080 C.3    97  GLY97       0.2014
     61  C        -35.1130   16.2060   -2.6540 C.2    97  GLY97       0.2639
     62  O        -36.2990   16.3070   -3.0000 O.2    97  GLY97      -0.2714
     63  N        -34.7680   15.9380   -1.4010 N.am   98  CYS98      -0.1967
     64  CA       -35.8250   15.6090   -0.4360 C.3    98  CYS98       0.1712
     65  C        -36.4540   16.7910    0.2800 C.2    98  CYS98       0.2296
     66  O        -35.8460   17.8860    0.3790 O.2    98  CYS98      -0.2864
     67  CB       -35.3730   14.5320    0.5370 C.3    98  CYS98       0.0983
     68  SG       -34.3830   15.2010    1.9240 S.3    98  CYS98      -0.0798
     69  N        -34.6740   18.5020    3.3660 N.3   101  ASP101     -0.1239
     70  CA       -33.5260   19.3990    3.0430 C.3   101  ASP101      0.1674
     71  C        -34.1180   20.6340    2.4500 C.2   101  ASP101      0.2266
     72  O        -33.6550   21.7220    2.7550 O.2   101  ASP101     -0.2867
     73  CB       -32.5240   18.8160    2.0500 C.3   101  ASP101      0.1410
     74  CG       -31.7990   17.5720    2.6050 C.2   101  ASP101      0.3668
     75  OD1      -31.9090   17.3220    3.8150 O.co2 101  ASP101     -0.2456
     76  OD2      -31.1710   16.8410    1.8390 O.co2 101  ASP101     -0.2456
     77  N        -39.9360   13.3490   -1.5910 N.3   145  LEU145     -0.1245
     78  CA       -39.0610   13.9970   -2.5780 C.3   145  LEU145      0.1561
     79  C        -39.8190   15.1620   -3.2010 C.2   145  LEU145      0.2260
     80  O        -41.0190   15.1250   -3.2770 O.2   145  LEU145     -0.2867
     81  CB       -38.7450   13.0570   -3.7250 C.3   145  LEU145      0.0270
     82  CG       -37.7970   11.8470   -3.2700 C.3   145  LEU145      0.0019
     83  CD1      -37.2590   11.1580   -4.5110 C.3   145  LEU145      0.0001
     84  CD2      -36.6650   12.3580   -2.4390 C.3   145  LEU145      0.0001
@<TRIPOS>BOND
     1    32    30    1
     2    29    30    1
     3    29    26    1
     4    25    26    1
     5    28    27    2
     6    46    47    1
     7    46    45    1
     8    30    31    1
     9    26    27    1
    10    47    41    1
    11    27    33   am
    12    45    42    1
    13     1     2    1
    14    41    42    1
    15    41    35   am
    16     5     2    1
    17     5     6    1
    18    33    34    1
    19    42    43    1
    20     2     3    1
    21    34    35    1
    22    34    37    1
    23    39    38    1
    24    39    40    1
    25    57    58   ar
    26    57    55   ar
    27     7     8    1
    28     7     6    1
    29    35    36    2
    30     8     9    1
    31    58    56   ar
    32    55    53   ar
    33     4     3    2
    34    43    48   am
    35    43    44    2
    36     3    10   am
    37    38    37    1
    38    48    49    1
    39    56    54   ar
    40    23    22    1
    41    53    54   ar
    42    53    52    1
    43    24    22    1
    44    10    11    1
    45    22    21    1
    46    49    52    1
    47    49    50    1
    48    11    12    1
    49    11    14    1
    50    59    50   am
    51    59    60    1
    52    12    13    2
    53    12    17   am
    54    21    18    1
    55    50    51    2
    56    17    18    1
    57    83    82    1
    58    16    14    1
    59    14    15    1
    60    18    19    1
    61    81    82    1
    62    81    78    1
    63    60    61    1
    64    80    79    2
    65    82    84    1
    66    79    78    1
    67    62    61    2
    68    61    63   am
    69    19    20    2
    70    78    77    1
    71    63    64    1
    72    64    65    1
    73    64    67    1
    74    65    66    2
    75    67    68    1
    76    76    74   ar
    77    73    74    1
    78    73    70    1
    79    71    72    2
    80    71    70    1
    81    74    75   ar
    82    70    69    1
