@<TRIPOS>MOLECULE
tmp/5x2aB01.pdb
 170 159 0 0 0
SMALL
GASTEIGER

@<TRIPOS>ATOM
      1  N        -25.4620   11.1140   -4.7100 N.3    19  LEU19      -0.1231
      2  CA       -26.3960   12.1000   -4.1710 C.3    19  LEU19       0.1693
      3  C        -26.5350   12.0980   -2.6490 C.2    19  LEU19       0.2593
      4  O        -26.6710   13.1280   -2.0480 O.2    19  LEU19      -0.2718
      5  CB       -27.7690   11.9870   -4.8510 C.3    19  LEU19       0.0284
      6  CG       -27.8010   12.2850   -6.3520 C.3    19  LEU19       0.0019
      7  CD1      -29.1750   12.1120   -6.9890 C.3    19  LEU19       0.0001
      8  CD2      -27.2920   13.6790   -6.6320 C.3    19  LEU19       0.0001
      9  N        -26.4990   10.9340   -2.0330 N.am   20  GLY20      -0.1942
     10  CA       -26.5830   10.8870   -0.5830 C.3    20  GLY20       0.2014
     11  C        -26.5860    9.4870   -0.1510 C.2    20  GLY20       0.2640
     12  O        -26.7270    8.5760   -1.0160 O.2    20  GLY20      -0.2714
     13  N        -26.4520    9.2370    1.1550 N.am   21  SER21      -0.1935
     14  CA       -26.6010    7.8380    1.6180 C.3    21  SER21       0.2055
     15  C        -27.4660    7.7690    2.8240 C.2    21  SER21       0.2644
     16  O        -27.4370    8.7010    3.6050 O.2    21  SER21      -0.2714
     17  CB       -25.2610    7.2410    2.0610 C.3    21  SER21       0.2130
     18  OG       -24.2500    7.5990    1.1440 O.3    21  SER21      -0.2179
     19  N        -28.1120    6.6310    3.0590 N.am   22  GLY22      -0.1939
     20  CA       -28.8960    6.4350    4.2710 C.3    22  GLY22       0.2014
     21  C        -28.7240    5.0650    4.8250 C.2    22  GLY22       0.2639
     22  O        -27.8250    4.3120    4.4080 O.2    22  GLY22      -0.2714
     23  N        -29.6340    4.7010    5.7120 N.am   23  ALA23      -0.1963
     24  CA       -29.5190    3.4220    6.4030 C.3    23  ALA23       0.1728
     25  C        -29.7900    2.2460    5.4550 C.2    23  ALA23       0.2616
     26  O        -29.3360    1.1590    5.7360 O.2    23  ALA23      -0.2715
     27  CB       -30.4810    3.3660    7.5730 C.3    23  ALA23       0.0334
     28  N        -30.5220    2.4760    4.3510 N.am   24  PHE24      -0.1960
     29  CA       -30.8440    1.3990    3.3580 C.3    24  PHE24       0.1771
     30  C        -29.9070    1.3500    2.1490 C.2    24  PHE24       0.2620
     31  O        -29.9690    0.4090    1.3660 O.2    24  PHE24      -0.2715
     32  CB       -32.3170    1.4680    2.8480 C.3    24  PHE24       0.0574
     33  CG       -33.3450    1.2370    3.9260 C.ar   24  PHE24      -0.0200
     34  CD1      -34.2900    2.2110    4.2060 C.ar   24  PHE24      -0.0042
     35  CD2      -33.3570    0.0780    4.6740 C.ar   24  PHE24      -0.0042
     36  CE1      -35.2270    2.0250    5.2610 C.ar   24  PHE24      -0.0003
     37  CE2      -34.2950   -0.1200    5.7330 C.ar   24  PHE24      -0.0003
     38  CZ       -35.2060    0.8750    6.0290 C.ar   24  PHE24      -0.0000
     39  N        -29.0420    2.3380    1.9730 N.am   25  GLY25      -0.1954
     40  CA       -28.0590    2.2970    0.8820 C.3    25  GLY25       0.1869
     41  C        -27.6660    3.7150    0.4380 C.2    25  GLY25       0.2309
     42  O        -27.8750    4.6860    1.1920 O.2    25  GLY25      -0.2863
     43  N        -27.6390    6.6520   -2.9000 N.3    27  VAL27      -0.1245
     44  CA       -28.3470    7.0450   -4.1160 C.3    27  VAL27       0.1561
     45  C        -27.4080    7.8100   -5.0040 C.2    27  VAL27       0.2260
     46  O        -26.6760    8.6890   -4.5320 O.2    27  VAL27      -0.2867
     47  CB       -29.6300    7.9050   -3.7790 C.3    27  VAL27       0.0252
     48  CG1      -30.3190    8.3780   -5.0950 C.3    27  VAL27       0.0019
     49  CG2      -30.5770    7.0880   -2.9450 C.3    27  VAL27       0.0019
     50  N        -32.1220    8.1580  -11.1960 N.3    44  ALA44      -0.1245
     51  CA       -31.5440    8.0300   -9.8540 C.3    44  ALA44       0.1562
     52  C        -31.3500    6.5230   -9.7050 C.2    44  ALA44       0.2260
     53  O        -32.2140    5.7380  -10.1010 O.2    44  ALA44      -0.2867
     54  CB       -32.5210    8.5320   -8.7730 C.3    44  ALA44       0.0290
     55  N        -30.4810    3.6260   -6.6920 N.3    46  LYS46      -0.1245
     56  CA       -30.1490    3.3310   -5.3510 C.3    46  LYS46       0.1561
     57  C        -29.4470    1.9610   -5.2530 C.2    46  LYS46       0.2260
     58  O        -30.0140    0.9590   -5.6080 O.2    46  LYS46      -0.2867
     59  CB       -31.3670    3.3100   -4.4630 C.3    46  LYS46       0.0271
     60  CG       -30.9790    3.2650   -3.0030 C.3    46  LYS46       0.0035
     61  CD       -32.2390    3.4380   -2.0910 C.3    46  LYS46       0.0206
     62  CE       -31.9370    4.0270   -0.7250 C.3    46  LYS46       0.1093
     63  NZ       -33.1980    4.6560   -0.1170 N.3    46  LYS46      -0.1314
     64  N        -43.5860    7.7250   -5.4150 N.3    76  CYS76      -0.1235
     65  CA       -42.5970    7.3720   -6.4410 C.3    76  CYS76       0.1677
     66  C        -42.6910    5.8560   -6.7840 C.2    76  CYS76       0.2270
     67  O        -42.6820    5.0340   -5.8630 O.2    76  CYS76      -0.2867
     68  CB       -41.1770    7.6490   -5.9490 C.3    76  CYS76       0.0956
     69  SG       -40.9220    9.4450   -5.7260 S.3    76  CYS76      -0.0801
     70  N        -34.8840    4.7320  -10.4430 N.3    91  MET91      -0.1230
     71  CA       -36.0640    5.5740  -10.2570 C.3    91  MET91       0.1702
     72  C        -35.8760    6.8690  -11.0090 C.2    91  MET91       0.2592
     73  O        -34.7770    7.2020  -11.4560 O.2    91  MET91      -0.2718
     74  CB       -36.2210    5.8450   -8.7670 C.3    91  MET91       0.0401
     75  CG       -36.8740    4.5950   -8.1560 C.3    91  MET91       0.0596
     76  SD       -37.2300    4.7640   -6.4590 S.3    91  MET91      -0.1393
     77  CE       -38.9340    5.2160   -6.5790 C.3    91  MET91       0.0692
     78  N        -36.9520    7.6440  -11.0990 N.am   92  GLN92      -0.1966
     79  CA       -36.8500    8.9880  -11.6380 C.3    92  GLN92       0.1733
     80  C        -35.9810    9.9040  -10.7730 C.2    92  GLN92       0.2616
     81  O        -36.1310    9.9070   -9.5300 O.2    92  GLN92      -0.2715
     82  CB       -38.2390    9.6410  -11.6760 C.3    92  GLN92       0.0408
     83  CG       -38.3320   10.5350  -12.8650 C.3    92  GLN92       0.0908
     84  CD       -39.7010   11.3420  -12.9080 C.2    92  GLN92       0.2608
     85  OE1      -40.5060   11.2740  -11.9830 O.2    92  GLN92      -0.2717
     86  NE2      -39.9290   12.0460  -13.9940 N.am   92  GLN92      -0.0878
     87  N        -35.1320   10.6590  -11.4320 N.am   93  LEU93      -0.1963
     88  CA       -34.2220   11.6330  -10.7710 C.3    93  LEU93       0.1728
     89  C        -35.0560   12.9000  -10.4800 C.2    93  LEU93       0.2616
     90  O        -35.7690   13.3950  -11.3700 O.2    93  LEU93      -0.2715
     91  CB       -33.0910   11.9520  -11.7240 C.3    93  LEU93       0.0311
     92  CG       -32.0700   12.9450  -11.1190 C.3    93  LEU93       0.0022
     93  CD1      -31.3680   12.4110   -9.8790 C.3    93  LEU93       0.0001
     94  CD2      -31.0810   13.4610  -12.1850 C.3    93  LEU93       0.0001
     95  N        -35.0180   13.3700   -9.2310 N.am   94  MET94      -0.1977
     96  CA       -35.6950   14.5840   -8.8100 C.3    94  MET94       0.1605
     97  C        -34.6390   15.6010   -8.4320 C.2    94  MET94       0.2287
     98  O        -34.1540   15.5180   -7.2800 O.2    94  MET94      -0.2864
     99  CB       -36.4360   14.2680   -7.5340 C.3    94  MET94       0.0413
    100  CG       -37.3720   13.1140   -7.6240 C.3    94  MET94       0.0598
    101  SD       -38.7200   13.5230   -8.6740 S.3    94  MET94      -0.1393
    102  CE       -39.9060   12.9840   -7.5070 C.3    94  MET94       0.0692
    103  N        -34.3010   17.1590   -4.8980 N.3    97  GLY97      -0.1210
    104  CA       -34.0000   16.3150   -3.7080 C.3    97  GLY97       0.1956
    105  C        -35.1130   16.2060   -2.6540 C.2    97  GLY97       0.2612
    106  O        -36.2990   16.3070   -3.0000 O.2    97  GLY97      -0.2717
    107  N        -34.7680   15.9380   -1.4010 N.am   98  CYS98      -0.1970
    108  CA       -35.8250   15.6090   -0.4360 C.3    98  CYS98       0.1712
    109  C        -36.4540   16.7910    0.2800 C.2    98  CYS98       0.2296
    110  O        -35.8460   17.8860    0.3790 O.2    98  CYS98      -0.2864
    111  CB       -35.3730   14.5320    0.5370 C.3    98  CYS98       0.0983
    112  SG       -34.3830   15.2010    1.9240 S.3    98  CYS98      -0.0798
    113  N        -34.6740   18.5020    3.3660 N.3   101  ASP101     -0.1239
    114  CA       -33.5260   19.3990    3.0430 C.3   101  ASP101      0.1674
    115  C        -34.1180   20.6340    2.4500 C.2   101  ASP101      0.2266
    116  O        -33.6550   21.7220    2.7550 O.2   101  ASP101     -0.2867
    117  CB       -32.5240   18.8160    2.0500 C.3   101  ASP101      0.1410
    118  CG       -31.7990   17.5720    2.6050 C.2   101  ASP101      0.3668
    119  OD1      -31.9090   17.3220    3.8150 O.co2 101  ASP101     -0.2456
    120  OD2      -31.1710   16.8410    1.8390 O.co2 101  ASP101     -0.2456
    121  N        -41.6950    3.4000    6.8170 N.3   138  ASP138     -0.1239
    122  CA       -40.6080    4.3620    6.9870 C.3   138  ASP138      0.1674
    123  C        -40.9100    5.7740    6.4850 C.2   138  ASP138      0.2266
    124  O        -40.0390    6.4200    5.9240 O.2   138  ASP138     -0.2867
    125  CB       -39.3060    3.8330    6.3740 C.3   138  ASP138      0.1410
    126  CG       -38.0910    4.6720    6.7450 C.2   138  ASP138      0.3668
    127  OD1      -38.1410    5.4150    7.7420 O.co2 138  ASP138     -0.2456
    128  OD2      -37.0830    4.5880    6.0270 O.co2 138  ASP138     -0.2456
    129  N        -37.5260   12.9530    5.1740 N.3   142  ARG142     -0.1182
    130  CA       -36.4090   12.6920    4.3920 C.3   142  ARG142      0.1910
    131  C        -36.8040   11.7430    3.2690 C.2   142  ARG142      0.2634
    132  O        -36.0160   11.5800    2.3560 O.2   142  ARG142     -0.2714
    133  CB       -35.2850   11.9800    5.2400 C.2   142  ARG142      0.0007
    134  CG       -35.7150   10.6490    5.9220 C.2   142  ARG142      0.0176
    135  CD       -34.6270    9.9710    6.8180 C.3   142  ARG142      0.2464
    136  NE       -35.2490    8.7710    7.3810 N.pl3 142  ARG142     -0.0815
    137  CZ       -35.9180    8.7560    8.5100 C.cat 142  ARG142      0.5349
    138  NH1      -36.5240    7.6540    8.8970 N.pl3 142  ARG142      0.1354
    139  NH2      -35.9970    9.8490    9.2410 N.pl3 142  ARG142      0.1354
    140  N        -37.9720   11.0880    3.3900 N.am  143  ASN143     -0.1972
    141  CA       -38.4260   10.0860    2.3730 C.3   143  ASN143      0.1688
    142  C        -39.6130   10.6690    1.6150 C.2   143  ASN143      0.2292
    143  O        -40.4610    9.9360    1.1040 O.2   143  ASN143     -0.2864
    144  CB       -38.8520    8.7700    3.0680 C.3   143  ASN143      0.1181
    145  CG       -37.6510    7.9390    3.4110 C.2   143  ASN143      0.2629
    146  OD1      -36.6200    8.1190    2.7600 O.2   143  ASN143     -0.2716
    147  ND2      -37.6990    7.1860    4.5030 N.am  143  ASN143     -0.0877
    148  N        -39.9360   13.3490   -1.5910 N.3   145  LEU145     -0.1245
    149  CA       -39.0610   13.9970   -2.5780 C.3   145  LEU145      0.1561
    150  C        -39.8190   15.1620   -3.2010 C.2   145  LEU145      0.2260
    151  O        -41.0190   15.1250   -3.2770 O.2   145  LEU145     -0.2867
    152  CB       -38.7450   13.0570   -3.7250 C.3   145  LEU145      0.0270
    153  CG       -37.7970   11.8470   -3.2700 C.3   145  LEU145      0.0019
    154  CD1      -37.2590   11.1580   -4.5110 C.3   145  LEU145      0.0001
    155  CD2      -36.6650   12.3580   -2.4390 C.3   145  LEU145      0.0001
    156  N        -41.1990    8.6310   -1.2120 N.3   155  THR155     -0.1203
    157  CA       -40.2920    7.6540   -1.8390 C.3   155  THR155      0.1994
    158  C        -39.9610    6.4990   -0.8340 C.2   155  THR155      0.2617
    159  O        -40.4660    6.4980    0.2990 O.2   155  THR155     -0.2717
    160  CB       -39.0500    8.3350   -2.4080 C.3   155  THR155      0.1784
    161  OG1      -38.3760    7.4220   -3.2620 O.3   155  THR155     -0.2211
    162  CG2      -38.0610    8.8330   -1.2980 C.3   155  THR155      0.0376
    163  N        -39.1800    5.5340   -1.2990 N.am  156  ASP156     -0.1973
    164  CA       -38.6350    4.4370   -0.4790 C.3   156  ASP156      0.1709
    165  C        -39.7090    3.5230   -0.0360 C.2   156  ASP156      0.2293
    166  O        -39.4710    2.7280    0.8620 O.2   156  ASP156     -0.2864
    167  CB       -37.8930    4.9560    0.7540 C.3   156  ASP156      0.1436
    168  CG       -36.3840    5.1670    0.5090 C.2   156  ASP156      0.3671
    169  OD1      -35.8510    5.0480   -0.6220 O.co2 156  ASP156     -0.2456
    170  OD2      -35.6820    5.4040    1.5170 O.co2 156  ASP156     -0.2456
@<TRIPOS>BOND
     1    86    84   am
     2    84    83    1
     3    84    85    2
     4    83    82    1
     5    94    92    1
     6    91    92    1
     7    91    88    1
     8    82    79    1
     9    79    78    1
    10    79    80    1
    11    73    72    2
    12    87    80   am
    13    87    88    1
    14    90    89    2
    15    50    51    1
    16    92    93    1
    17    78    72   am
    18    72    71    1
    19    80    81    2
    20    88    89    1
    21    89    95   am
    22    70    71    1
    23    71    74    1
    24    53    52    2
    25    51    52    1
    26    51    54    1
    27    95    96    1
    28    96    97    1
    29    96    99    1
    30    74    75    1
    31   101   100    1
    32   101   102    1
    33    97    98    2
    34    75    76    1
    35   100    99    1
    36     7     6    1
    37    66    65    1
    38    66    67    2
    39    55    56    1
    40     8     6    1
    41    77    76    1
    42    65    68    1
    43    65    64    1
    44     6     5    1
    45    68    69    1
    46    58    57    2
    47    56    57    1
    48    56    59    1
    49    48    47    1
    50    45    46    2
    51    45    44    1
    52   103   104    1
    53     5     2    1
    54     1     2    1
    55   154   153    1
    56    59    60    1
    57     2     3    1
    58    44    47    1
    59    44    43    1
    60    47    49    1
    61   152   153    1
    62   152   149    1
    63   104   105    1
    64   151   150    2
    65   153   155    1
    66   161   160    1
    67   150   149    1
    68    60    61    1
    69   106   105    2
    70   105   107   am
    71     3     4    2
    72     3     9   am
    73   149   148    1
    74   160   157    1
    75   160   162    1
    76    61    62    1
    77     9    10    1
    78   157   156    1
    79   157   158    1
    80   107   108    1
    81   163   158   am
    82   163   164    1
    83    12    11    2
    84   158   159    2
    85    62    63    1
    86   169   168   ar
    87    10    11    1
    88   164   165    1
    89   164   167    1
    90   108   109    1
    91   108   111    1
    92    11    13   am
    93   165   166    2
    94   109   110    2
    95    41    40    1
    96    41    42    2
    97   168   167    1
    98   168   170   ar
    99   111   112    1
   100    40    39    1
   101   143   142    2
   102    18    17    1
   103    13    14    1
   104    31    30    2
   105   142   141    1
   106    14    17    1
   107    14    15    1
   108   120   118   ar
   109    39    30   am
   110   117   118    1
   111   117   114    1
   112    30    29    1
   113   132   131    2
   114   141   144    1
   115   141   140    1
   116   115   116    2
   117   115   114    1
   118   118   119   ar
   119   146   145    2
   120    15    19   am
   121    15    16    2
   122    32    29    1
   123    32    33    1
   124   114   113    1
   125    19    20    1
   126   144   145    1
   127   131   140   am
   128   131   130    1
   129    29    28    1
   130   145   147   am
   131    33    34   ar
   132    33    35   ar
   133    34    36   ar
   134    20    21    1
   135    28    25   am
   136   130   129    1
   137   130   133    1
   138    22    21    2
   139    35    37   ar
   140    21    23   am
   141   133   134    2
   142    36    38   ar
   143    25    26    2
   144    25    24    1
   145    23    24    1
   146    37    38   ar
   147   134   135    1
   148   124   123    2
   149   128   126   ar
   150   125   126    1
   151   125   122    1
   152    24    27    1
   153   123   122    1
   154   126   127   ar
   155   121   122    1
   156   135   136    1
   157   136   137    2
   158   137   138    1
   159   137   139    1
