@<TRIPOS>MOLECULE
tmp/5x2bL00.pdb
 208 204 0 0 0
SMALL
GASTEIGER

@<TRIPOS>ATOM
      1  N         49.3810   41.3580  189.6090 N.3    41  PRO41      -0.2102
      2  CA        49.3530   41.6870  191.0260 C.3    41  PRO41       0.1504
      3  C         48.7590   43.0590  191.1550 C.2    41  PRO41       0.2576
      4  O         48.9140   43.8970  190.2710 O.2    41  PRO41      -0.2718
      5  CB        50.8250   41.7330  191.4070 C.3    41  PRO41       0.0282
      6  CG        51.5070   40.8970  190.4400 C.3    41  PRO41       0.0208
      7  CD        50.6910   40.8780  189.1750 C.3    41  PRO41       0.0893
      8  N         48.0520   43.2720  192.2440 N.am   42  LYS42      -0.1966
      9  CA        47.6140   44.6040  192.5740 C.3    42  LYS42       0.1728
     10  C         46.7540   45.1050  191.4810 C.2    42  LYS42       0.2617
     11  O         46.6890   46.3210  191.2200 O.2    42  LYS42      -0.2715
     12  CB        48.8390   45.4890  192.7320 C.3    42  LYS42       0.0311
     13  CG        50.0420   44.7030  193.2370 C.3    42  LYS42       0.0038
     14  CD        49.7200   43.7900  194.4300 C.3    42  LYS42       0.0206
     15  CE        48.9980   44.5640  195.5060 C.3    42  LYS42       0.1093
     16  NZ        48.8280   43.7910  196.7420 N.3    42  LYS42      -0.1314
     17  N         46.0900   44.1830  190.8090 N.am   43  SER43      -0.1936
     18  CA        45.2720   44.6720  189.7340 C.3    43  SER43       0.2055
     19  C         43.8630   44.3660  190.0160 C.2    43  SER43       0.2644
     20  O         42.9660   45.0700  189.5730 O.2    43  SER43      -0.2714
     21  CB        45.7200   44.0790  188.4510 C.3    43  SER43       0.2130
     22  OG        47.1210   44.2150  188.3920 O.3    43  SER43      -0.2179
     23  N         43.6770   43.3010  190.7650 N.am   44  GLY44      -0.1939
     24  CA        42.3700   42.9770  191.2670 C.3    44  GLY44       0.2014
     25  C         42.2320   41.4870  191.4500 C.2    44  GLY44       0.2640
     26  O         41.3920   40.8450  190.8240 O.2    44  GLY44      -0.2714
     27  N         43.0500   40.9370  192.3370 N.am   45  THR45      -0.1936
     28  CA        43.1450   39.4880  192.5080 C.3    45  THR45       0.2028
     29  C         42.2880   38.8910  193.6750 C.2    45  THR45       0.2642
     30  O         41.5520   37.9220  193.4900 O.2    45  THR45      -0.2714
     31  CB        44.6320   39.0880  192.6860 C.3    45  THR45       0.1808
     32  OG1       45.4860   40.0650  192.0780 O.3    45  THR45      -0.2208
     33  CG2       44.9170   37.7280  192.0660 C.3    45  THR45       0.0379
     34  N         42.3710   39.4490  194.8760 N.am   46  HIS46      -0.1959
     35  CA        41.6640   38.8520  196.0150 C.3    46  HIS46       0.1787
     36  C         40.1790   39.1930  196.0220 C.2    46  HIS46       0.2620
     37  O         39.3800   38.4870  196.5990 O.2    46  HIS46      -0.2715
     38  CB        42.2700   39.3210  197.3570 C.3    46  HIS46       0.0785
     39  CG        43.4380   38.5020  197.8520 C.ar   46  HIS46       0.0821
     40  ND1       44.7370   38.7250  197.4400 N.ar   46  HIS46      -0.2267
     41  CD2       43.5050   37.4880  198.7530 C.ar   46  HIS46       0.1154
     42  CE1       45.5410   37.8750  198.0520 C.ar   46  HIS46       0.1986
     43  NE2       44.8240   37.1140  198.8470 N.ar   46  HIS46      -0.2212
     44  N         39.8030   40.2920  195.4060 N.am   47  TRP47      -0.1974
     45  CA        38.4250   40.6810  195.4310 C.3    47  TRP47       0.1640
     46  C         37.6830   39.8300  194.4500 C.2    47  TRP47       0.2290
     47  O         36.5340   39.3950  194.6550 O.2    47  TRP47      -0.2864
     48  CB        38.3530   42.0640  194.9270 C.3    47  TRP47       0.0576
     49  CG        37.0790   42.6430  195.1410 C.ar   47  TRP47       0.0006
     50  CD1       36.0250   42.1060  195.7790 C.ar   47  TRP47       0.0946
     51  CD2       36.7070   43.9120  194.7210 C.ar   47  TRP47       0.0152
     52  NE1       34.9910   42.9940  195.7860 N.ar   47  TRP47      -0.2442
     53  CE2       35.3830   44.1110  195.1220 C.ar   47  TRP47       0.0810
     54  CE3       37.3740   44.9160  194.0280 C.ar   47  TRP47       0.0012
     55  CZ2       34.6990   45.2790  194.8570 C.ar   47  TRP47       0.0191
     56  CZ3       36.7140   46.0700  193.7580 C.ar   47  TRP47       0.0001
     57  CH2       35.3760   46.2560  194.1790 C.ar   47  TRP47       0.0015
     58  N         48.8520   34.5370  188.3570 N.3    89  HIS89      -0.1241
     59  CA        49.3920   35.8110  187.8980 C.3    89  HIS89       0.1621
     60  C         50.3180   35.5930  186.6440 C.2    89  HIS89       0.2264
     61  O         51.0690   36.4870  186.2850 O.2    89  HIS89      -0.2867
     62  CB        50.1790   36.5660  189.0250 C.3    89  HIS89       0.0745
     63  CG        49.3450   37.0560  190.2000 C.ar   89  HIS89       0.0817
     64  ND1       48.2220   37.8330  190.0520 N.ar   89  HIS89      -0.2268
     65  CD2       49.5440   36.9260  191.5260 C.ar   89  HIS89       0.1154
     66  CE1       47.7260   38.1180  191.2450 C.ar   89  HIS89       0.1986
     67  NE2       48.5040   37.5740  192.1650 N.ar   89  HIS89      -0.2212
     68  N         43.9640   46.3380  186.2740 N.3   111  ARG111     -0.1245
     69  CA        43.7780   47.4980  187.0460 C.3   111  ARG111      0.1563
     70  C         44.5930   48.5790  186.3690 C.2   111  ARG111      0.2260
     71  O         45.5500   48.3120  185.6560 O.2   111  ARG111     -0.2867
     72  CB        44.2740   47.2260  188.4320 C.3   111  ARG111      0.0307
     73  CG        44.4610   48.4730  189.1560 C.3   111  ARG111      0.0489
     74  CD        44.8150   48.1520  190.5200 C.3   111  ARG111      0.2205
     75  NE        44.1190   49.0920  191.3440 N.pl3 111  ARG111     -0.0865
     76  CZ        44.3180   49.1740  192.6390 C.cat 111  ARG111      0.5346
     77  NH1       45.2090   48.3620  193.1860 N.pl3 111  ARG111      0.1354
     78  NH2       43.6510   50.0710  193.3700 N.pl3 111  ARG111      0.1354
     79  N         47.4480   53.0720  189.7160 N.3   115  ASP115     -0.1239
     80  CA        46.9810   52.5880  191.0080 C.3   115  ASP115      0.1674
     81  C         47.6360   51.2840  191.2830 C.2   115  ASP115      0.2266
     82  O         48.0560   51.0140  192.4150 O.2   115  ASP115     -0.2867
     83  CB        45.4860   52.4330  191.0520 C.3   115  ASP115      0.1410
     84  CG        44.8230   53.7360  191.0490 C.2   115  ASP115      0.3668
     85  OD1       45.4880   54.7010  191.4750 O.co2 115  ASP115     -0.2456
     86  OD2       43.6760   53.8350  190.6210 O.co2 115  ASP115     -0.2456
     87  N         49.9460   50.5570  194.4310 N.3   119  SER119     -0.1217
     88  CA        49.5440   49.4100  195.2390 C.3   119  SER119      0.1889
     89  C         50.6620   48.3960  195.5110 C.2   119  SER119      0.2288
     90  O         50.8060   47.8760  196.6170 O.2   119  SER119     -0.2866
     91  CB        48.4170   48.7270  194.5240 C.3   119  SER119      0.2089
     92  OG        47.8860   47.7010  195.3310 O.3   119  SER119     -0.2183
     93  N         39.1400   46.5110  187.0690 N.3   174  TYR174     -0.1241
     94  CA        39.2230   46.8710  188.4860 C.3   174  TYR174      0.1605
     95  C         38.2630   48.0430  188.7150 C.2   174  TYR174      0.2264
     96  O         37.4040   48.0210  189.6090 O.2   174  TYR174     -0.2867
     97  CB        40.6700   47.2140  188.9120 C.3   174  TYR174      0.0534
     98  CG        40.7750   47.5520  190.3840 C.ar  174  TYR174     -0.0201
     99  CD1       40.9970   46.5820  191.3300 C.ar  174  TYR174     -0.0009
    100  CD2       40.6470   48.8610  190.8320 C.ar  174  TYR174     -0.0009
    101  CE1       41.1030   46.9160  192.6990 C.ar  174  TYR174      0.0417
    102  CE2       40.7420   49.2000  192.1830 C.ar  174  TYR174      0.0417
    103  CZ        40.9610   48.2300  193.1130 C.ar  174  TYR174      0.1957
    104  OH        41.0650   48.5900  194.4530 O.3   174  TYR174     -0.2866
    105  N         34.2420   48.7950  191.1400 N.3   178  LYS178     -0.1245
    106  CA        34.0310   49.8480  192.1210 C.3   178  LYS178      0.1561
    107  C         32.8740   50.6870  191.6000 C.2   178  LYS178      0.2260
    108  O         31.9120   50.9150  192.3160 O.2   178  LYS178     -0.2867
    109  CB        35.2640   50.7180  192.3170 C.3   178  LYS178      0.0271
    110  CG        36.5430   50.0490  192.8300 C.3   178  LYS178      0.0035
    111  CD        36.4950   49.6860  194.3210 C.3   178  LYS178      0.0206
    112  CE        36.5230   50.8970  195.2370 C.3   178  LYS178      0.1093
    113  NZ        36.1050   50.5360  196.6420 N.3   178  LYS178     -0.1314
    114  N         31.3050   41.7750  199.7550 N.3   208  THR208     -0.1203
    115  CA        32.6160   41.9540  199.1410 C.3   208  THR208      0.1994
    116  C         33.0010   43.4090  198.9500 C.2   208  THR208      0.2619
    117  O         33.7080   43.7550  198.0040 O.2   208  THR208     -0.2717
    118  CB        32.6590   41.2710  197.8020 C.3   208  THR208      0.1784
    119  OG1       31.7220   41.9180  196.9260 O.3   208  THR208     -0.2211
    120  CG2       32.3410   39.7770  197.9790 C.3   208  THR208      0.0376
    121  N         32.5320   44.2390  199.8740 N.am  209  SER209     -0.1937
    122  CA        32.9020   45.6480  199.9350 C.3   209  SER209      0.2055
    123  C         34.2910   45.8090  200.5090 C.2   209  SER209      0.2643
    124  O         34.6210   45.1950  201.4960 O.2   209  SER209     -0.2714
    125  CB        31.9280   46.4140  200.8330 C.3   209  SER209      0.2130
    126  OG        31.0190   47.1850  200.0680 O.3   209  SER209     -0.2179
    127  N         35.0970   46.6600  199.9190 N.am  210  PHE210     -0.1973
    128  CA        36.4180   46.8160  200.4660 C.3   210  PHE210      0.1639
    129  C         36.4460   46.6660  201.9910 C.2   210  PHE210      0.2290
    130  O         37.2040   45.8490  202.5470 O.2   210  PHE210     -0.2864
    131  CB        36.9930   48.1660  200.1350 C.3   210  PHE210      0.0560
    132  CG        38.3330   48.3590  200.7420 C.ar  210  PHE210     -0.0200
    133  CD1       39.4460   47.7910  200.1560 C.ar  210  PHE210     -0.0042
    134  CD2       38.4750   49.0220  201.9470 C.ar  210  PHE210     -0.0042
    135  CE1       40.6880   47.9200  200.7300 C.ar  210  PHE210     -0.0003
    136  CE2       39.7080   49.1540  202.5150 C.ar  210  PHE210     -0.0003
    137  CZ        40.8240   48.5930  201.9040 C.ar  210  PHE210     -0.0000
    138  N         35.6660   42.8710  203.2860 N.3   213  MET213     -0.1245
    139  CA        36.7340   41.9050  203.1290 C.3   213  MET213      0.1570
    140  C         37.9500   42.2430  203.9680 C.2   213  MET213      0.2261
    141  O         38.8280   41.4040  204.1270 O.2   213  MET213     -0.2867
    142  CB        37.1370   41.8400  201.6710 C.3   213  MET213      0.0387
    143  CG        36.0320   41.3320  200.7880 C.3   213  MET213      0.0595
    144  SD        36.6750   41.3760  199.1510 S.3   213  MET213     -0.1393
    145  CE        37.9180   40.1000  199.3030 C.3   213  MET213      0.0692
    146  N         47.0230   34.4340  196.1710 N.3   229  CYS229     -0.1235
    147  CA        48.0480   35.1890  195.4610 C.3   229  CYS229      0.1677
    148  C         49.3520   34.6850  195.9770 C.2   229  CYS229      0.2270
    149  O         49.5850   34.6430  197.1770 O.2   229  CYS229     -0.2867
    150  CB        47.9370   36.6760  195.6940 C.3   229  CYS229      0.0956
    151  SG        49.3330   37.6120  195.1450 S.3   229  CYS229     -0.0801
    152  N         46.8290   43.0850  202.3770 N.3   238  VAL238     -0.1231
    153  CA        46.2830   43.4960  201.0930 C.3   238  VAL238      0.1692
    154  C         45.2520   44.6230  201.1940 C.2   238  VAL238      0.2592
    155  O         45.1780   45.4520  200.2930 O.2   238  VAL238     -0.2718
    156  CB        45.7290   42.3250  200.2360 C.3   238  VAL238      0.0266
    157  CG1       45.9190   40.9680  200.9150 C.3   238  VAL238      0.0020
    158  CG2       44.2680   42.6060  199.8540 C.3   238  VAL238      0.0020
    159  N         44.4790   44.6870  202.2740 N.am  239  PHE239     -0.1962
    160  CA        43.4640   45.7420  202.3910 C.3   239  PHE239      0.1771
    161  C         44.0310   47.0400  202.9350 C.2   239  PHE239      0.2619
    162  O         43.9450   47.3750  204.1230 O.2   239  PHE239     -0.2715
    163  CB        42.2900   45.2370  203.1830 C.3   239  PHE239      0.0574
    164  CG        41.7940   43.9600  202.6600 C.ar  239  PHE239     -0.0200
    165  CD1       41.2660   43.9020  201.4000 C.ar  239  PHE239     -0.0042
    166  CD2       41.9420   42.8050  203.3690 C.ar  239  PHE239     -0.0042
    167  CE1       40.8280   42.7220  200.8810 C.ar  239  PHE239     -0.0003
    168  CE2       41.5020   41.6220  202.8530 C.ar  239  PHE239     -0.0003
    169  CZ        40.9410   41.5780  201.6030 C.ar  239  PHE239     -0.0000
    170  N         44.6290   47.7500  201.9940 N.am  240  ARG240     -0.1963
    171  CA        45.2740   49.0180  202.2110 C.3   240  ARG240      0.1729
    172  C         44.2130   50.1110  202.0920 C.2   240  ARG240      0.2616
    173  O         43.5450   50.4600  203.0750 O.2   240  ARG240     -0.2715
    174  CB        46.3440   49.1650  201.1390 C.3   240  ARG240      0.0348
    175  CG        47.2730   50.3320  201.3140 C.3   240  ARG240      0.0492
    176  CD        48.4120   50.2650  200.3070 C.3   240  ARG240      0.2205
    177  NE        47.9400   50.4290  198.9340 N.pl3 240  ARG240     -0.0865
    178  CZ        47.8190   51.6060  198.3210 C.cat 240  ARG240      0.5346
    179  NH1       48.1400   52.7210  198.9690 N.pl3 240  ARG240      0.1354
    180  NH2       47.3650   51.6840  197.0640 N.pl3 240  ARG240      0.1354
    181  N         44.0540   50.6390  200.8790 N.am  241  LYS241     -0.1963
    182  CA        42.9630   51.5680  200.5760 C.3   241  LYS241      0.1728
    183  C         41.8310   50.8270  199.8530 C.2   241  LYS241      0.2617
    184  O         40.7810   50.5730  200.4360 O.2   241  LYS241     -0.2715
    185  CB        43.4390   52.7860  199.7530 C.3   241  LYS241      0.0311
    186  CG        44.1000   53.9140  200.5780 C.3   241  LYS241      0.0038
    187  CD        44.3530   55.2050  199.7590 C.3   241  LYS241      0.0206
    188  CE        45.5780   56.0370  200.2740 C.3   241  LYS241      0.1093
    189  NZ        45.7140   56.1870  201.7730 N.3   241  LYS241     -0.1314
    190  N         42.0470   50.4450  198.6010 N.am  242  GLY242     -0.1940
    191  CA        40.9860   49.8350  197.8170 C.3   242  GLY242      0.2014
    192  C         40.1960   50.8980  197.0620 C.2   242  GLY242      0.2638
    193  O         38.9820   50.7700  196.8200 O.2   242  GLY242     -0.2714
    194  N         40.8920   51.9670  196.6930 N.am  243  VAL243     -0.1977
    195  CA        40.2830   53.0060  195.8770 C.3   243  VAL243      0.1596
    196  C         41.0260   53.1410  194.5600 C.2   243  VAL243      0.2287
    197  O         42.1270   52.6010  194.4110 O.2   243  VAL243     -0.2864
    198  CB        40.2020   54.3940  196.6160 C.3   243  VAL243      0.0276
    199  CG1       41.5750   54.9880  196.8550 C.3   243  VAL243      0.0022
    200  CG2       39.3430   55.3720  195.8180 C.3   243  VAL243      0.0022
    201  N         44.5880   56.9010  193.5600 N.3   246  ASP246     -0.1239
    202  CA        45.5550   57.2950  194.5790 C.3   246  ASP246      0.1674
    203  C         46.9620   57.5180  194.0290 C.2   246  ASP246      0.2266
    204  O         47.8030   58.1450  194.6870 O.2   246  ASP246     -0.2867
    205  CB        45.6260   56.2390  195.6650 C.3   246  ASP246      0.1410
    206  CG        46.6340   56.5800  196.7250 C.2   246  ASP246      0.3668
    207  OD1       46.6970   57.7530  197.1340 O.co2 246  ASP246     -0.2456
    208  OD2       47.3660   55.6740  197.1460 O.co2 246  ASP246     -0.2456
@<TRIPOS>BOND
     1    71    70    2
     2    68    69    1
     3    61    60    2
     4    70    69    1
     5    60    59    1
     6    69    72    1
     7    93    94    1
     8    59    58    1
     9    59    62    1
    10    22    21    1
    11    72    73    1
    12    21    18    1
    13    94    95    1
    14    94    97    1
    15    95    96    2
    16    97    98    1
    17    62    63    1
    18    73    74    1
    19     7     1    1
    20     7     6    1
    21    20    19    2
    22     1     2    1
    23    79    80    1
    24    18    19    1
    25    18    17    1
    26    19    23   am
    27    64    63   ar
    28    64    66   ar
    29    63    65   ar
    30     4     3    2
    31    98   100   ar
    32    98    99   ar
    33     6     5    1
    34    74    75    1
    35    86    84   ar
    36    23    24    1
    37    17    10   am
    38    26    25    2
    39   100   102   ar
    40    80    83    1
    41    80    81    1
    42     2     3    1
    43     2     5    1
    44    84    83    1
    45    84    85   ar
    46   105   106    1
    47     3     8   am
    48    11    10    2
    49    66    67   ar
    50    24    25    1
    51    81    82    2
    52    99   101   ar
    53    75    76    2
    54    25    27   am
    55    10     9    1
    56    65    67   ar
    57   107   106    1
    58   107   108    2
    59    33    31    1
    60    32    31    1
    61   106   109    1
    62   102   103   ar
    63     8     9    1
    64   109   110    1
    65    27    28    1
    66    28    31    1
    67    28    29    1
    68     9    12    1
    69    76    77    1
    70    76    78    1
    71   101   103   ar
    72    12    13    1
    73   110   111    1
    74   103   104    1
    75    13    14    1
    76    30    29    2
    77   201   202    1
    78    29    34   am
    79    56    54   ar
    80    56    57   ar
    81    54    51   ar
    82   203   202    1
    83   203   204    2
    84    57    55   ar
    85   111   112    1
    86   197   196    2
    87    14    15    1
    88    87    88    1
    89    46    47    2
    90    46    45    1
    91    91    88    1
    92    91    92    1
    93   196   195    1
    94   202   205    1
    95    51    53   ar
    96    51    49   ar
    97    55    53   ar
    98    34    35    1
    99    48    49    1
   100    48    45    1
   101    53    52   ar
   102    49    50   ar
   103   151   150    1
   104   112   113    1
   105    88    89    1
   106    44    45    1
   107    44    36   am
   108   147   150    1
   109   147   148    1
   110   147   146    1
   111    15    16    1
   112    89    90    2
   113   205   206    1
   114    50    52   ar
   115   200   198    1
   116   195   198    1
   117   195   194    1
   118   148   149    2
   119    35    36    1
   120    35    38    1
   121    36    37    2
   122   198   199    1
   123   194   192   am
   124   206   207   ar
   125   206   208   ar
   126   193   192    2
   127   119   118    1
   128   192   191    1
   129   180   178    1
   130    38    39    1
   131    40    39   ar
   132    40    42   ar
   133   118   120    1
   134   118   115    1
   135   191   190    1
   136    39    41   ar
   137   117   116    2
   138    42    43   ar
   139   178   177    2
   140   178   179    1
   141   190   183   am
   142    41    43   ar
   143   177   176    1
   144   116   115    1
   145   116   121   am
   146   115   114    1
   147   144   145    1
   148   144   143    1
   149   185   182    1
   150   185   186    1
   151   187   188    1
   152   187   186    1
   153   183   184    2
   154   183   182    1
   155   158   156    1
   156   121   122    1
   157   127   128    1
   158   127   123   am
   159   122   123    1
   160   122   125    1
   161   126   125    1
   162   131   128    1
   163   131   132    1
   164   133   135   ar
   165   133   132   ar
   166   156   157    1
   167   156   153    1
   168   188   189    1
   169   155   154    2
   170   176   175    1
   171   128   129    1
   172   123   124    2
   173   182   181    1
   174   135   137   ar
   175   132   134   ar
   176   143   142    1
   177   181   172   am
   178   167   165   ar
   179   167   169   ar
   180   153   154    1
   181   153   152    1
   182   174   175    1
   183   174   171    1
   184   154   159   am
   185   165   164   ar
   186   169   168   ar
   187   142   139    1
   188   137   136   ar
   189   134   136   ar
   190   129   130    2
   191   170   171    1
   192   170   161   am
   193   172   171    1
   194   172   173    2
   195   159   160    1
   196   160   161    1
   197   160   163    1
   198   164   163    1
   199   164   166   ar
   200   168   166   ar
   201   161   162    2
   202   139   138    1
   203   139   140    1
   204   140   141    2
