@<TRIPOS>MOLECULE
tmp/5x2mD00.pdb
 87 80 0 0 0
SMALL
GASTEIGER

@<TRIPOS>ATOM
      1  N        108.7950   50.1970   54.5680 N.3    36  LEU36      -0.1245
      2  CA       107.7260   50.5810   55.4710 C.3    36  LEU36       0.1561
      3  C        107.9410   51.9940   55.9510 C.2    36  LEU36       0.2260
      4  O        109.0300   52.3510   56.3810 O.2    36  LEU36      -0.2867
      5  CB       107.6360   49.6220   56.6670 C.3    36  LEU36       0.0270
      6  CG       106.4260   49.7870   57.6010 C.3    36  LEU36       0.0019
      7  CD1      105.1230   49.4670   56.8790 C.3    36  LEU36       0.0001
      8  CD2      106.5810   48.9190   58.8560 C.3    36  LEU36       0.0001
      9  N        106.7150   53.9850   58.8760 N.3    38  LYS38      -0.1245
     10  CA       106.0290   53.7360   60.1550 C.3    38  LYS38       0.1561
     11  C        105.0010   54.8090   60.5370 C.2    38  LYS38       0.2260
     12  O        103.9260   54.4990   61.0580 O.2    38  LYS38      -0.2867
     13  CB       107.0480   53.6020   61.2820 C.3    38  LYS38       0.0271
     14  CG       107.8880   52.3390   61.2550 C.3    38  LYS38       0.0035
     15  CD       108.7540   52.2940   62.5130 C.3    38  LYS38       0.0206
     16  CE       109.7630   51.1580   62.4910 C.3    38  LYS38       0.1093
     17  NZ       109.1270   49.8210   62.5420 N.3    38  LYS38      -0.1314
     18  N        101.9460   54.2380   58.3880 N.3    41  LEU41      -0.1245
     19  CA       101.1060   53.1550   58.9060 C.3    41  LEU41       0.1561
     20  C        100.3730   53.6270   60.1500 C.2    41  LEU41       0.2260
     21  O         99.1870   53.3460   60.3310 O.2    41  LEU41      -0.2867
     22  CB       101.9420   51.9130   59.2190 C.3    41  LEU41       0.0270
     23  CG       101.2100   50.7260   59.8420 C.3    41  LEU41       0.0019
     24  CD1       99.9980   50.3120   59.0090 C.3    41  LEU41       0.0001
     25  CD2      102.1660   49.5680   60.0280 C.3    41  LEU41       0.0001
     26  N        103.2400   42.7020   55.3270 N.3   299  GLU299     -0.1231
     27  CA       103.7740   42.2330   56.5990 C.3   299  GLU299      0.1699
     28  C        102.9540   42.6330   57.8380 C.2   299  GLU299      0.2592
     29  O        103.3190   42.2640   58.9580 O.2   299  GLU299     -0.2718
     30  CB       105.2150   42.7310   56.7730 C.3   299  GLU299      0.0402
     31  CG       105.3650   44.2350   56.9710 C.3   299  GLU299      0.1161
     32  CD       105.4080   45.0160   55.6640 C.2   299  GLU299      0.3649
     33  OE1      104.4670   44.8940   54.8480 O.co2 299  GLU299     -0.2457
     34  OE2      106.3960   45.7500   55.4490 O.co2 299  GLU299     -0.2457
     35  N        101.8580   43.3720   57.6490 N.am  300  CYS300     -0.1970
     36  CA       101.0000   43.7710   58.7800 C.3   300  CYS300      0.1712
     37  C        100.0710   42.6440   59.2560 C.2   300  CYS300      0.2296
     38  O         99.2340   42.8500   60.1400 O.2   300  CYS300     -0.2864
     39  CB       100.1630   45.0040   58.4240 C.3   300  CYS300      0.0983
     40  SG       101.1060   46.5390   58.1860 S.3   300  CYS300     -0.0798
     41  N        101.1300   40.0660   60.7090 N.3   302  SER302     -0.1202
     42  CA       101.7600   39.5570   61.9180 C.3   302  SER302      0.2020
     43  C        101.9030   40.6200   63.0000 C.2   302  SER302      0.2619
     44  O        102.6830   40.4470   63.9310 O.2   302  SER302     -0.2717
     45  CB       103.1310   38.9800   61.5860 C.3   302  SER302      0.2103
     46  OG       103.9380   39.9620   60.9660 O.3   302  SER302     -0.2182
     47  N        101.1580   41.7160   62.8770 N.am  303  LEU303     -0.1965
     48  CA       101.1030   42.7250   63.9340 C.3   303  LEU303      0.1728
     49  C        100.6890   42.0840   65.2470 C.2   303  LEU303      0.2616
     50  O         99.8490   41.1830   65.2770 O.2   303  LEU303     -0.2715
     51  CB       100.1350   43.8580   63.5820 C.3   303  LEU303      0.0311
     52  CG       100.6440   44.8470   62.5330 C.3   303  LEU303      0.0022
     53  CD1       99.5870   45.9110   62.2420 C.3   303  LEU303      0.0001
     54  CD2      101.9580   45.4820   62.9770 C.3   303  LEU303      0.0001
     55  N        101.3010   42.5480   66.3270 N.am  304  SER304     -0.1950
     56  CA       101.0900   41.9780   67.6440 C.3   304  SER304      0.1924
     57  C        101.2830   43.1190   68.6480 C.2   304  SER304      0.2314
     58  O        101.6380   44.2250   68.2360 O.2   304  SER304     -0.2863
     59  CB       102.0520   40.8110   67.8750 C.3   304  SER304      0.2116
     60  OG       103.3930   41.2420   67.8750 O.3   304  SER304     -0.2180
     61  N        103.6250   43.8340   70.5100 N.3   306  ALA306     -0.1231
     62  CA       104.9900   44.3570   70.3690 C.3   306  ALA306      0.1694
     63  C        105.0920   45.5490   69.3980 C.2   306  ALA306      0.2592
     64  O        106.0340   46.3340   69.4640 O.2   306  ALA306     -0.2718
     65  CB       105.9350   43.2360   69.9280 C.3   306  ALA306      0.0304
     66  N        104.1150   45.6870   68.5120 N.am  307  ASN307     -0.1974
     67  CA       104.0980   46.7750   67.5410 C.3   307  ASN307      0.1688
     68  C        103.3190   48.0040   67.9660 C.2   307  ASN307      0.2292
     69  O        103.0550   48.8820   67.1420 O.2   307  ASN307     -0.2864
     70  CB       103.5320   46.2600   66.2320 C.3   307  ASN307      0.1181
     71  CG       104.3230   45.1140   65.7000 C.2   307  ASN307      0.2629
     72  OD1      103.8790   43.9700   65.7190 O.2   307  ASN307     -0.2716
     73  ND2      105.5190   45.4090   65.2330 N.am  307  ASN307     -0.0877
     74  N        104.2330   50.3630   69.6100 N.3   309  SER309     -0.1202
     75  CA       105.1060   51.5150   69.4310 C.3   309  SER309      0.2020
     76  C        104.8050   52.3160   68.1520 C.2   309  SER309      0.2618
     77  O        105.1590   53.4890   68.0500 O.2   309  SER309     -0.2717
     78  CB       106.5620   51.0480   69.4200 C.3   309  SER309      0.2103
     79  OG       106.7820   50.1290   68.3630 O.3   309  SER309     -0.2182
     80  N        104.1630   51.6830   67.1750 N.am  310  LEU310     -0.1979
     81  CA       103.7810   52.3900   65.9620 C.3   310  LEU310      0.1596
     82  C        102.9550   53.6400   66.2820 C.2   310  LEU310      0.2287
     83  O        103.1120   54.6590   65.6190 O.2   310  LEU310     -0.2864
     84  CB       102.9980   51.4680   65.0140 C.3   310  LEU310      0.0297
     85  CG       103.7530   50.3020   64.3620 C.3   310  LEU310      0.0022
     86  CD1      102.7740   49.3560   63.6820 C.3   310  LEU310      0.0001
     87  CD2      104.8000   50.8010   63.3580 C.3   310  LEU310      0.0001
@<TRIPOS>BOND
     1     1     2    1
     2    33    32   ar
     3    26    27    1
     4    34    32   ar
     5     2     3    1
     6     2     5    1
     7    32    31    1
     8     3     4    2
     9    27    30    1
    10    27    28    1
    11     5     6    1
    12    30    31    1
    13     7     6    1
    14     6     8    1
    15    35    28   am
    16    35    36    1
    17    28    29    2
    18    40    39    1
    19    18    19    1
    20    39    36    1
    21    36    37    1
    22     9    10    1
    23    19    22    1
    24    19    20    1
    25    24    23    1
    26    22    23    1
    27    37    38    2
    28    23    25    1
    29    20    21    2
    30    10    11    1
    31    10    13    1
    32    11    12    2
    33    41    42    1
    34    46    45    1
    35    14    13    1
    36    14    15    1
    37    45    42    1
    38    42    43    1
    39    53    52    1
    40    16    15    1
    41    16    17    1
    42    52    54    1
    43    52    51    1
    44    47    43   am
    45    47    48    1
    46    43    44    2
    47    87    85    1
    48    51    48    1
    49    86    85    1
    50    48    49    1
    51    85    84    1
    52    84    81    1
    53    73    71   am
    54    49    50    2
    55    49    55   am
    56    83    82    2
    57    71    72    2
    58    71    70    1
    59    81    82    1
    60    81    80    1
    61    70    67    1
    62    55    56    1
    63    69    68    2
    64    80    76   am
    65    67    68    1
    66    67    66    1
    67    56    59    1
    68    56    57    1
    69    59    60    1
    70    77    76    2
    71    76    75    1
    72    58    57    2
    73    79    78    1
    74    66    63   am
    75    63    64    2
    76    63    62    1
    77    78    75    1
    78    75    74    1
    79    65    62    1
    80    62    61    1
