@<TRIPOS>MOLECULE
tmp/5x2mD02.pdb
 102 95 0 0 0
SMALL
GASTEIGER

@<TRIPOS>ATOM
      1  N         99.3980   56.6130   60.9010 N.3    43  ARG43      -0.1245
      2  CA        98.2950   57.4850   60.5630 C.3    43  ARG43       0.1563
      3  C         97.0880   56.6840   60.0780 C.2    43  ARG43       0.2260
      4  O         95.9480   57.0370   60.3820 O.2    43  ARG43      -0.2867
      5  CB        98.7420   58.4990   59.5280 C.3    43  ARG43       0.0307
      6  CG        99.6950   59.5150   60.1340 C.3    43  ARG43       0.0489
      7  CD        99.8670   60.7410   59.2620 C.3    43  ARG43       0.2205
      8  NE       100.7110   61.7170   59.9310 N.pl3  43  ARG43      -0.0865
      9  CZ       102.0330   61.7640   59.8140 C.cat  43  ARG43       0.5346
     10  NH1      102.6660   60.9000   59.0230 N.pl3  43  ARG43       0.1354
     11  NH2      102.7210   62.6860   60.4750 N.pl3  43  ARG43       0.1354
     12  N        103.8040   57.5120   47.8690 N.3    75  ARG75      -0.1245
     13  CA       104.2810   58.8390   47.4800 C.3    75  ARG75       0.1563
     14  C        104.7630   58.8210   46.0340 C.2    75  ARG75       0.2260
     15  O        105.7610   59.4400   45.6940 O.2    75  ARG75      -0.2867
     16  CB       105.3920   59.3310   48.4100 C.3    75  ARG75       0.0307
     17  CG       104.8620   59.9500   49.7070 C.3    75  ARG75       0.0489
     18  CD       105.9830   60.4470   50.6280 C.3    75  ARG75       0.2205
     19  NE       106.8430   61.4260   49.9670 N.pl3  75  ARG75      -0.0865
     20  CZ       108.0360   61.1450   49.4490 C.cat  75  ARG75       0.5346
     21  NH1      108.5170   59.9100   49.5220 N.pl3  75  ARG75       0.1354
     22  NH2      108.7530   62.0980   48.8620 N.pl3  75  ARG75       0.1354
     23  N         98.6960   62.4630   52.1320 N.3   116  GLN116     -0.1231
     24  CA        99.4720   63.1590   53.1430 C.3   116  GLN116      0.1698
     25  C        100.2890   64.3080   52.5570 C.2   116  GLN116      0.2593
     26  O        100.3350   65.3890   53.1370 O.2   116  GLN116     -0.2718
     27  CB       100.3730   62.1600   53.8620 C.3   116  GLN116      0.0381
     28  CG       101.3130   62.7440   54.8810 C.3   116  GLN116      0.0905
     29  CD       101.9800   61.6480   55.6810 C.2   116  GLN116      0.2608
     30  OE1      101.3080   60.7880   56.2360 O.2   116  GLN116     -0.2717
     31  NE2      103.3040   61.6390   55.6960 N.am  116  GLN116     -0.0878
     32  N        100.9150   64.0950   51.4010 N.am  117  SER117     -0.1938
     33  CA       101.8340   65.0920   50.8800 C.3   117  SER117      0.2055
     34  C        101.2020   66.0020   49.8280 C.2   117  SER117      0.2644
     35  O        100.2230   65.6340   49.1740 O.2   117  SER117     -0.2714
     36  CB       103.0820   64.4140   50.3030 C.3   117  SER117      0.2130
     37  OG       102.8010   63.7510   49.0880 O.3   117  SER117     -0.2179
     38  N        101.7560   67.2020   49.6910 N.am  118  SER118     -0.1935
     39  CA       101.2630   68.1430   48.6980 C.3   118  SER118      0.2055
     40  C        101.5510   67.6280   47.2860 C.2   118  SER118      0.2642
     41  O        100.7290   67.7560   46.3830 O.2   118  SER118     -0.2714
     42  CB       101.8890   69.5220   48.9120 C.3   118  SER118      0.2130
     43  OG       101.4260   70.0980   50.1230 O.3   118  SER118     -0.2179
     44  N        102.7190   67.0210   47.1170 N.am  119  GLU119     -0.1976
     45  CA       103.0970   66.4240   45.8470 C.3   119  GLU119      0.1602
     46  C        102.0130   65.4500   45.3960 C.2   119  GLU119      0.2287
     47  O        101.6310   65.4210   44.2210 O.2   119  GLU119     -0.2864
     48  CB       104.4600   65.7220   45.9640 C.3   119  GLU119      0.0415
     49  CG       104.9790   65.1100   44.6660 C.3   119  GLU119      0.1163
     50  CD       105.2210   66.1360   43.5590 C.2   119  GLU119      0.3649
     51  OE1      105.7940   67.2170   43.8280 O.co2 119  GLU119     -0.2457
     52  OE2      104.8370   65.8510   42.4030 O.co2 119  GLU119     -0.2457
     53  N         97.7310   66.3140   56.1320 N.3   139  GLY139     -0.1225
     54  CA        99.1160   66.7540   56.1510 C.3   139  GLY139      0.1811
     55  C         99.6100   67.6120   54.9970 C.2   139  GLY139      0.2280
     56  O        100.7150   68.1470   55.0760 O.2   139  GLY139     -0.2866
     57  N        100.2140   70.7130   53.1140 N.3   141  THR141     -0.1218
     58  CA       100.1370   72.0920   53.5810 C.3   141  THR141      0.1862
     59  C        100.4710   73.1800   52.5540 C.2   141  THR141      0.2287
     60  O        100.5440   74.3580   52.9120 O.2   141  THR141     -0.2866
     61  CB       101.0760   72.3030   54.7790 C.3   141  THR141      0.1770
     62  OG1      102.4120   71.9460   54.4010 O.3   141  THR141     -0.2211
     63  CG2      100.6310   71.4470   55.9710 C.3   141  THR141      0.0375
     64  N        105.8950   70.7660   48.1900 N.3   183  TYR183     -0.1241
     65  CA       106.0050   71.3000   49.5530 C.3   183  TYR183      0.1605
     66  C        107.2120   72.2110   49.7320 C.2   183  TYR183      0.2264
     67  O        107.0780   73.3640   50.1540 O.2   183  TYR183     -0.2867
     68  CB       106.0680   70.1480   50.5630 C.3   183  TYR183      0.0534
     69  CG       106.4270   70.5270   51.9900 C.ar  183  TYR183     -0.0201
     70  CD1      105.4520   70.9820   52.8750 C.ar  183  TYR183     -0.0009
     71  CD2      107.7260   70.3710   52.4680 C.ar  183  TYR183     -0.0009
     72  CE1      105.7560   71.2970   54.1740 C.ar  183  TYR183      0.0417
     73  CE2      108.0490   70.6930   53.7710 C.ar  183  TYR183      0.0417
     74  CZ       107.0560   71.1530   54.6240 C.ar  183  TYR183      0.1957
     75  OH       107.3520   71.4770   55.9270 O.3   183  TYR183     -0.2866
     76  N        111.1640   68.1920   53.2450 N.3   231  LEU231     -0.1231
     77  CA       110.6750   66.8720   53.6470 C.3   231  LEU231      0.1693
     78  C        111.7530   66.1630   54.4650 C.2   231  LEU231      0.2591
     79  O        112.8990   66.6080   54.4850 O.2   231  LEU231     -0.2718
     80  CB       110.2960   66.0290   52.4250 C.3   231  LEU231      0.0284
     81  CG       109.0380   66.4430   51.6540 C.3   231  LEU231      0.0019
     82  CD1      108.8880   65.6120   50.3710 C.3   231  LEU231      0.0001
     83  CD2      107.7880   66.3240   52.5370 C.3   231  LEU231      0.0001
     84  N        111.3900   65.0530   55.1050 N.am  232  VAL232     -0.1980
     85  CA       112.2560   64.4150   56.0930 C.3   232  VAL232      0.1595
     86  C        113.5240   63.8040   55.4790 C.2   232  VAL232      0.2287
     87  O        114.6230   64.0530   55.9860 O.2   232  VAL232     -0.2864
     88  CB       111.4800   63.3300   56.9010 C.3   232  VAL232      0.0276
     89  CG1      110.7940   62.3380   55.9700 C.3   232  VAL232      0.0022
     90  CG2      112.3990   62.6180   57.8800 C.3   232  VAL232      0.0022
     91  N        107.3340   72.0890   59.8260 N.3   248  SER248     -0.1202
     92  CA       106.5890   71.0160   60.4820 C.3   248  SER248      0.2020
     93  C        106.9860   69.6120   60.0090 C.2   248  SER248      0.2619
     94  O        106.9180   68.6450   60.7720 O.2   248  SER248     -0.2717
     95  CB       105.0800   71.2210   60.2730 C.3   248  SER248      0.2103
     96  OG       104.7380   71.1920   58.9020 O.3   248  SER248     -0.2182
     97  N        107.4020   69.5040   58.7530 N.am  249  SER249     -0.1951
     98  CA       107.7460   68.2110   58.1700 C.3   249  SER249      0.1924
     99  C        108.8950   67.4800   58.8820 C.2   249  SER249      0.2314
    100  O        108.9460   66.2510   58.8610 O.2   249  SER249     -0.2863
    101  CB       108.1020   68.3870   56.6930 C.3   249  SER249      0.2116
    102  OG       109.0860   69.3940   56.5330 O.3   249  SER249     -0.2180
@<TRIPOS>BOND
     1    52    50   ar
     2    50    51   ar
     3    50    49    1
     4    47    46    2
     5    49    48    1
     6    46    45    1
     7    15    14    2
     8    45    48    1
     9    45    44    1
    10    14    13    1
    11    41    40    2
    12    44    40   am
    13    40    39    1
    14    13    12    1
    15    13    16    1
    16    64    65    1
    17    16    17    1
    18    39    42    1
    19    39    38    1
    20    22    20    1
    21    42    43    1
    22    37    36    1
    23    35    34    2
    24    20    21    1
    25    20    19    2
    26    65    66    1
    27    65    68    1
    28    38    34   am
    29    17    18    1
    30    66    67    2
    31    34    33    1
    32    19    18    1
    33    36    33    1
    34    82    81    1
    35    68    69    1
    36    33    32    1
    37    32    25   am
    38    81    80    1
    39    81    83    1
    40    69    71   ar
    41    69    70   ar
    42    23    24    1
    43    80    77    1
    44    71    73   ar
    45    59    60    2
    46    59    58    1
    47    25    26    2
    48    25    24    1
    49    70    72   ar
    50    57    58    1
    51    24    27    1
    52    76    77    1
    53    58    61    1
    54    77    78    1
    55    73    74   ar
    56    27    28    1
    57    72    74   ar
    58    62    61    1
    59    78    79    2
    60    78    84   am
    61    74    75    1
    62    61    63    1
    63    28    29    1
    64    55    56    2
    65    55    54    1
    66    84    85    1
    67    86    87    2
    68    86    85    1
    69    29    31   am
    70    29    30    2
    71    89    88    1
    72    85    88    1
    73    53    54    1
    74   102   101    1
    75   101    98    1
    76    88    90    1
    77    98    97    1
    78    98    99    1
    79    97    93   am
    80   100    99    2
    81    96    95    1
    82    10     9    1
    83     7     8    1
    84     7     6    1
    85     5     6    1
    86     5     2    1
    87     9     8    2
    88     9    11    1
    89    91    92    1
    90    93    92    1
    91    93    94    2
    92     3     4    2
    93     3     2    1
    94    95    92    1
    95     2     1    1
