@<TRIPOS>MOLECULE
tmp/5x2mA06.pdb
 97 94 0 0 0
SMALL
GASTEIGER

@<TRIPOS>ATOM
      1  N         42.3750   33.5120   37.8640 N.3   112  PHE112     -0.1227
      2  CA        43.1850   32.3760   38.3080 C.3   112  PHE112      0.1736
      3  C         44.1010   31.8460   37.2000 C.2   112  PHE112      0.2596
      4  O         45.2220   31.4610   37.4770 O.2   112  PHE112     -0.2718
      5  CB        42.2730   31.2640   38.8180 C.3   112  PHE112      0.0547
      6  CG        42.9860   30.0920   39.4870 C.ar  112  PHE112     -0.0202
      7  CD1       44.0070   30.2850   40.3990 C.ar  112  PHE112     -0.0042
      8  CD2       42.5520   28.7890   39.2460 C.ar  112  PHE112     -0.0042
      9  CE1       44.6170   29.2120   41.0310 C.ar  112  PHE112     -0.0003
     10  CE2       43.1500   27.6980   39.8850 C.ar  112  PHE112     -0.0003
     11  CZ        44.1870   27.9190   40.7830 C.ar  112  PHE112     -0.0000
     12  N         43.6170   31.8190   35.9550 N.am  113  THR113     -0.1939
     13  CA        44.3180   31.1160   34.8830 C.3   113  THR113      0.2028
     14  C         44.7980   32.0330   33.7530 C.2   113  THR113      0.2643
     15  O         44.2610   33.1230   33.5220 O.2   113  THR113     -0.2714
     16  CB        43.4330   30.0180   34.2500 C.3   113  THR113      0.1808
     17  OG1       42.5810   30.6000   33.2430 O.3   113  THR113     -0.2208
     18  CG2       42.5690   29.3200   35.3310 C.3   113  THR113      0.0379
     19  N         45.8020   31.5590   33.0320 N.am  114  SER114     -0.1935
     20  CA        46.3990   32.3300   31.9540 C.3   114  SER114      0.2055
     21  C         45.3850   32.5910   30.8310 C.2   114  SER114      0.2643
     22  O         45.3450   33.6860   30.2690 O.2   114  SER114     -0.2714
     23  CB        47.6480   31.6110   31.4170 C.3   114  SER114      0.2130
     24  OG        48.6590   31.5640   32.4180 O.3   114  SER114     -0.2179
     25  N         44.5490   31.6050   30.5350 N.am  115  THR115     -0.1950
     26  CA        43.5410   31.7690   29.4880 C.3   115  THR115      0.1897
     27  C         42.5700   32.8990   29.8390 C.2   115  THR115      0.2313
     28  O         42.2330   33.7110   28.9910 O.2   115  THR115     -0.2863
     29  CB        42.7410   30.4670   29.2540 C.3   115  THR115      0.1794
     30  OG1       43.6370   29.3880   28.9610 O.3   115  THR115     -0.2208
     31  CG2       41.7960   30.6470   28.0810 C.3   115  THR115      0.0378
     32  N         47.1030   33.5210   40.4160 N.3   135  GLY135     -0.1210
     33  CA        47.3270   32.2120   39.8130 C.3   135  GLY135      0.1956
     34  C         47.9750   32.1340   38.4360 C.2   135  GLY135      0.2612
     35  O         48.5520   31.0990   38.0740 O.2   135  GLY135     -0.2717
     36  N         47.8640   33.2100   37.6640 N.am  136  CYS136     -0.1956
     37  CA        48.3590   33.2250   36.2990 C.3   136  CYS136      0.1843
     38  C         49.8940   33.1350   36.2260 C.2   136  CYS136      0.2626
     39  O         50.5980   33.9980   36.7230 O.2   136  CYS136     -0.2714
     40  CB        47.8620   34.4820   35.6060 C.3   136  CYS136      0.0997
     41  SG        48.3100   34.5430   33.9160 S.3   136  CYS136     -0.0797
     42  N         50.3850   32.0780   35.5900 N.am  137  SER137     -0.1950
     43  CA        51.8160   31.8060   35.5960 C.3   137  SER137      0.1924
     44  C         52.4540   31.8700   34.2080 C.2   137  SER137      0.2314
     45  O         53.6040   31.4890   34.0450 O.2   137  SER137     -0.2863
     46  CB        52.0920   30.4330   36.2220 C.3   137  SER137      0.2116
     47  OG        51.4210   29.3920   35.5280 O.3   137  SER137     -0.2180
     48  N         48.4980   27.6110   29.4530 N.3   185  PHE185     -0.1241
     49  CA        49.3070   27.2630   30.6080 C.3   185  PHE185      0.1605
     50  C         50.2330   26.0830   30.2920 C.2   185  PHE185      0.2264
     51  O         51.4530   26.1810   30.4420 O.2   185  PHE185     -0.2867
     52  CB        48.3840   26.9510   31.7960 C.3   185  PHE185      0.0534
     53  CG        49.0540   26.2300   32.9340 C.ar  185  PHE185     -0.0203
     54  CD1       49.9810   26.8820   33.7450 C.ar  185  PHE185     -0.0042
     55  CD2       48.7030   24.9250   33.2440 C.ar  185  PHE185     -0.0042
     56  CE1       50.5650   26.2320   34.8320 C.ar  185  PHE185     -0.0003
     57  CE2       49.2800   24.2670   34.3340 C.ar  185  PHE185     -0.0003
     58  CZ        50.2220   24.9270   35.1240 C.ar  185  PHE185     -0.0000
     59  N         46.3700   21.6370   34.8980 N.3   236  PRO236     -0.2102
     60  CA        45.4000   21.9870   35.9560 C.3   236  PRO236      0.1504
     61  C         44.6070   20.7700   36.4560 C.2   236  PRO236      0.2575
     62  O         44.6130   19.7110   35.8240 O.2   236  PRO236     -0.2718
     63  CB        44.4490   23.0000   35.2730 C.3   236  PRO236      0.0282
     64  CG        45.0850   23.3520   33.9780 C.3   236  PRO236      0.0208
     65  CD        45.9780   22.1960   33.5960 C.3   236  PRO236      0.0893
     66  N         43.9300   20.9460   37.5860 N.am  237  LYS237     -0.1980
     67  CA        43.1700   19.8860   38.2670 C.3   237  LYS237      0.1596
     68  C         42.4410   18.9250   37.3110 C.2   237  LYS237      0.2287
     69  O         42.6500   17.7040   37.3770 O.2   237  LYS237     -0.2864
     70  CB        42.1590   20.5260   39.2410 C.3   237  LYS237      0.0298
     71  CG        41.3390   19.5470   40.0910 C.3   237  LYS237      0.0038
     72  CD        40.4000   20.3300   41.0270 C.3   237  LYS237      0.0206
     73  CE        39.3630   19.4270   41.7180 C.3   237  LYS237      0.1093
     74  NZ        40.0590   18.3940   42.5720 N.3   237  LYS237     -0.1314
     75  N         53.2620   19.4360   38.9110 N.3   260  ASP260     -0.1239
     76  CA        53.5200   20.8500   39.1250 C.3   260  ASP260      0.1674
     77  C         52.6960   21.2640   40.3410 C.2   260  ASP260      0.2266
     78  O         51.9300   20.4510   40.8560 O.2   260  ASP260     -0.2867
     79  CB        53.1650   21.6690   37.8920 C.3   260  ASP260      0.1410
     80  CG        51.6580   21.7960   37.6860 C.2   260  ASP260      0.3668
     81  OD1       51.0450   20.8880   37.0740 O.co2 260  ASP260     -0.2456
     82  OD2       51.0940   22.8210   38.1200 O.co2 260  ASP260     -0.2456
     83  N         50.1590   22.9220   40.7950 N.3   262  GLY262     -0.1225
     84  CA        48.7130   22.9420   40.6160 C.3   262  GLY262      0.1811
     85  C         48.0110   21.6160   40.8820 C.2   262  GLY262      0.2280
     86  O         46.7740   21.5530   40.8540 O.2   262  GLY262     -0.2866
     87  N         47.6680   28.4410   46.6170 N.3   328  PHE328     -0.1241
     88  CA        47.2040   29.7650   46.1780 C.3   328  PHE328      0.1605
     89  C         46.4900   30.5730   47.2750 C.2   328  PHE328      0.2264
     90  O         45.9930   31.6630   47.0000 O.2   328  PHE328     -0.2867
     91  CB        46.3080   29.6350   44.9300 C.3   328  PHE328      0.0534
     92  CG        46.9750   28.8880   43.7960 C.ar  328  PHE328     -0.0203
     93  CD1       47.8920   29.5230   42.9730 C.ar  328  PHE328     -0.0042
     94  CD2       46.7150   27.5480   43.5810 C.ar  328  PHE328     -0.0042
     95  CE1       48.5350   28.8350   41.9420 C.ar  328  PHE328     -0.0003
     96  CE2       47.3550   26.8540   42.5570 C.ar  328  PHE328     -0.0003
     97  CZ        48.2590   27.5010   41.7350 C.ar  328  PHE328     -0.0000
@<TRIPOS>BOND
     1    31    29    1
     2    30    29    1
     3    28    27    2
     4    29    26    1
     5    48    49    1
     6    26    27    1
     7    26    25    1
     8    22    21    2
     9    50    51    2
    10    50    49    1
    11    25    21   am
    12    49    52    1
    13    21    20    1
    14    23    20    1
    15    23    24    1
    16    52    53    1
    17    20    19    1
    18    53    55   ar
    19    53    54   ar
    20    19    14   am
    21    17    16    1
    22    55    57   ar
    23    15    14    2
    24    65    64    1
    25    65    59    1
    26    54    56   ar
    27    14    13    1
    28    41    40    1
    29    64    63    1
    30    45    44    2
    31    44    43    1
    32    16    13    1
    33    16    18    1
    34    57    58   ar
    35    56    58   ar
    36    13    12    1
    37    59    60    1
    38    63    60    1
    39    47    46    1
    40    42    43    1
    41    42    38   am
    42    43    46    1
    43    40    37    1
    44    62    61    2
    45    12     3   am
    46    60    61    1
    47    38    37    1
    48    38    39    2
    49    37    36    1
    50    61    66   am
    51    81    80   ar
    52     3     4    2
    53     3     2    1
    54    68    69    2
    55    68    67    1
    56    66    67    1
    57    36    34   am
    58    80    79    1
    59    80    82   ar
    60     1     2    1
    61    79    76    1
    62    35    34    2
    63    67    70    1
    64     2     5    1
    65    34    33    1
    66     5     6    1
    67    75    76    1
    68    76    77    1
    69    70    71    1
    70     8     6   ar
    71     8    10   ar
    72     6     7   ar
    73    33    32    1
    74    10    11   ar
    75    71    72    1
    76    77    78    2
    77     7     9   ar
    78    84    83    1
    79    84    85    1
    80    11     9   ar
    81    86    85    2
    82    72    73    1
    83    73    74    1
    84    97    95   ar
    85    97    96   ar
    86    95    93   ar
    87    96    94   ar
    88    93    92   ar
    89    94    92   ar
    90    92    91    1
    91    91    88    1
    92    88    87    1
    93    88    89    1
    94    90    89    2
