@<TRIPOS>MOLECULE
tmp/5x2mB02.pdb
 107 101 0 0 0
SMALL
GASTEIGER

@<TRIPOS>ATOM
      1  N         46.3000   49.3440    2.0550 N.3    43  ARG43      -0.1245
      2  CA        45.2070   48.3950    2.2760 C.3    43  ARG43       0.1563
      3  C         43.9100   49.1020    2.6730 C.2    43  ARG43       0.2260
      4  O         42.8240   48.6940    2.2610 O.2    43  ARG43      -0.2867
      5  CB        45.6000   47.3750    3.3420 C.3    43  ARG43       0.0307
      6  CG        46.8310   46.5870    2.9540 C.3    43  ARG43       0.0489
      7  CD        47.0370   45.3950    3.8290 C.3    43  ARG43       0.2205
      8  NE        47.9780   44.4920    3.1790 N.pl3  43  ARG43      -0.0865
      9  CZ        49.2710   44.4310    3.4570 C.cat  43  ARG43       0.5346
     10  NH1       49.7860   45.2000    4.4070 N.pl3  43  ARG43       0.1354
     11  NH2       50.0480   43.5870    2.7890 N.pl3  43  ARG43       0.1354
     12  N         49.7170   48.6050   15.4500 N.3    75  ARG75      -0.1245
     13  CA        50.1890   47.2770   15.8380 C.3    75  ARG75       0.1563
     14  C         50.5570   47.2480   17.3330 C.2    75  ARG75       0.2260
     15  O         51.6000   46.7500   17.7280 O.2    75  ARG75      -0.2867
     16  CB        51.3770   46.8670   14.9580 C.3    75  ARG75       0.0307
     17  CG        51.6620   45.3770   14.9230 C.3    75  ARG75       0.0489
     18  CD        52.9900   45.1040   14.2210 C.3    75  ARG75       0.2205
     19  NE        53.0080   45.6540   12.8650 N.pl3  75  ARG75      -0.0865
     20  CZ        52.7130   44.9610   11.7640 C.cat  75  ARG75       0.5346
     21  NH1       52.3840   43.6720   11.8480 N.pl3  75  ARG75       0.1354
     22  NH2       52.7580   45.5560   10.5720 N.pl3  75  ARG75       0.1354
     23  N         45.1580   43.5840   10.6370 N.3   116  GLN116     -0.1231
     24  CA        46.1040   42.9850    9.7020 C.3   116  GLN116      0.1698
     25  C         46.9110   41.8620   10.3240 C.2   116  GLN116      0.2593
     26  O         47.1590   40.8340    9.6890 O.2   116  GLN116     -0.2718
     27  CB        47.0530   44.0430    9.1630 C.3   116  GLN116      0.0381
     28  CG        48.1230   43.4790    8.2340 C.3   116  GLN116      0.0905
     29  CD        48.9040   44.5730    7.5470 C.2   116  GLN116      0.2608
     30  OE1       48.3350   45.3790    6.8150 O.2   116  GLN116     -0.2717
     31  NE2       50.2020   44.6360    7.8100 N.am  116  GLN116     -0.0878
     32  N         47.3120   42.0350   11.5770 N.am  117  SER117     -0.1938
     33  CA        48.2930   41.1210   12.1410 C.3   117  SER117      0.2055
     34  C         47.7350   40.1360   13.1860 C.2   117  SER117      0.2644
     35  O         46.7550   40.4160   13.8930 O.2   117  SER117     -0.2714
     36  CB        49.4350   41.9320   12.7330 C.3   117  SER117      0.2130
     37  OG        49.0520   42.5980   13.9170 O.3   117  SER117     -0.2179
     38  N         48.3570   38.9670   13.2640 N.am  118  SER118     -0.1935
     39  CA        47.9020   37.9480   14.2070 C.3   118  SER118      0.2055
     40  C         48.0560   38.3810   15.6640 C.2   118  SER118      0.2642
     41  O         47.2510   37.9880   16.5120 O.2   118  SER118     -0.2714
     42  CB        48.6430   36.6260   13.9810 C.3   118  SER118      0.2130
     43  OG        48.3010   36.0360   12.7350 O.3   118  SER118     -0.2179
     44  N         49.0810   39.1780   15.9740 N.am  119  GLU119     -0.1976
     45  CA        49.2400   39.6300   17.3500 C.3   119  GLU119      0.1602
     46  C         48.0510   40.5270   17.7260 C.2   119  GLU119      0.2287
     47  O         47.5450   40.4410   18.8440 O.2   119  GLU119     -0.2864
     48  CB        50.5740   40.3530   17.5570 C.3   119  GLU119      0.0415
     49  CG        50.8090   40.8840   18.9860 C.3   119  GLU119      0.1163
     50  CD        51.3220   39.8510   19.9980 C.2   119  GLU119      0.3649
     51  OE1       51.5830   38.6620   19.6520 O.co2 119  GLU119     -0.2457
     52  OE2       51.4950   40.2600   21.1710 O.co2 119  GLU119     -0.2457
     53  N         44.7600   39.6680    6.5810 N.3   139  GLY139     -0.1210
     54  CA        46.1910   39.4070    6.7190 C.3   139  GLY139      0.1956
     55  C         46.7330   38.5520    7.8670 C.2   139  GLY139      0.2612
     56  O         47.9110   38.1740    7.8450 O.2   139  GLY139     -0.2717
     57  N         45.9070   38.2590    8.8740 N.am  140  ALA140     -0.1965
     58  CA        46.3520   37.4980   10.0490 C.3   140  ALA140      0.1728
     59  C         46.2990   35.9870    9.7910 C.2   140  ALA140      0.2616
     60  O         45.2260   35.3830    9.6810 O.2   140  ALA140     -0.2715
     61  CB        45.5040   37.8700   11.2690 C.3   140  ALA140      0.0334
     62  N         47.4620   35.3680    9.7120 N.am  141  THR141     -0.1951
     63  CA        47.5350   34.0120    9.2010 C.3   141  THR141      0.1897
     64  C         47.7710   32.9380   10.2660 C.2   141  THR141      0.2313
     65  O         47.8280   31.7580    9.9400 O.2   141  THR141     -0.2863
     66  CB        48.6420   33.9200    8.1470 C.3   141  THR141      0.1794
     67  OG1       49.8560   34.3970    8.7200 O.3   141  THR141     -0.2208
     68  CG2       48.2860   34.7850    6.8850 C.3   141  THR141      0.0378
     69  N         52.7730   35.6280   15.2540 N.3   189  TYR189     -0.1241
     70  CA        53.0270   35.1690   13.8820 C.3   189  TYR189      0.1605
     71  C         54.2890   34.3130   13.7840 C.2   189  TYR189      0.2264
     72  O         54.2250   33.1450   13.3950 O.2   189  TYR189     -0.2867
     73  CB        53.1550   36.3740   12.9340 C.3   189  TYR189      0.0534
     74  CG        53.5580   36.0460   11.5140 C.ar  189  TYR189     -0.0201
     75  CD1       52.7020   35.3440   10.6700 C.ar  189  TYR189     -0.0009
     76  CD2       54.7820   36.4590   11.0060 C.ar  189  TYR189     -0.0009
     77  CE1       53.0500   35.0720    9.3580 C.ar  189  TYR189      0.0417
     78  CE2       55.1480   36.1840    9.6780 C.ar  189  TYR189      0.0417
     79  CZ        54.2790   35.4930    8.8700 C.ar  189  TYR189      0.1957
     80  OH        54.6270   35.2090    7.5790 O.3   189  TYR189     -0.2866
     81  N         57.9210   39.0340   10.7840 N.3   244  LEU244     -0.1231
     82  CA        57.4290   40.3520   10.3840 C.3   244  LEU244      0.1693
     83  C         58.5830   41.1740    9.7770 C.2   244  LEU244      0.2591
     84  O         59.7610   40.8230    9.9250 O.2   244  LEU244     -0.2718
     85  CB        56.8070   41.0920   11.5770 C.3   244  LEU244      0.0284
     86  CG        55.6230   40.3860   12.2510 C.3   244  LEU244      0.0019
     87  CD1       55.1470   41.1740   13.4660 C.3   244  LEU244      0.0001
     88  CD2       54.4720   40.2050   11.2650 C.3   244  LEU244      0.0001
     89  N         58.2430   42.2730    9.1150 N.am  245  VAL245     -0.1980
     90  CA        59.2150   42.9780    8.2910 C.3   245  VAL245      0.1595
     91  C         60.3460   43.6690    9.0500 C.2   245  VAL245      0.2287
     92  O         61.5120   43.4610    8.7070 O.2   245  VAL245     -0.2864
     93  CB        58.5210   44.0160    7.4030 C.3   245  VAL245      0.0276
     94  CG1       59.5490   44.9560    6.7780 C.3   245  VAL245      0.0022
     95  CG2       57.7470   43.3000    6.3250 C.3   245  VAL245      0.0022
     96  N         55.2500   34.8480    3.8070 N.3   268  SER268     -0.1202
     97  CA        54.5790   35.8590    2.9880 C.3   268  SER268      0.2020
     98  C         54.7240   37.2840    3.5470 C.2   268  SER268      0.2619
     99  O         54.6300   38.2660    2.8070 O.2   268  SER268     -0.2717
    100  CB        53.1010   35.5030    2.8120 C.3   268  SER268      0.2103
    101  OG        52.4260   35.4750    4.0450 O.3   268  SER268     -0.2182
    102  N         54.9840   37.3810    4.8410 N.am  269  SER269     -0.1951
    103  CA        55.1470   38.6720    5.5060 C.3   269  SER269      0.1924
    104  C         56.3350   39.4980    5.0110 C.2   269  SER269      0.2314
    105  O         56.3070   40.7060    5.1170 O.2   269  SER269     -0.2863
    106  CB        55.3060   38.4700    7.0040 C.3   269  SER269      0.2116
    107  OG        56.5010   37.7470    7.2330 O.3   269  SER269     -0.2180
@<TRIPOS>BOND
     1     1     2    1
     2     4     3    2
     3     2     3    1
     4     2     5    1
     5    11     9    1
     6    99    98    2
     7   100    97    1
     8   100   101    1
     9     6     5    1
    10     6     7    1
    11    97    98    1
    12    97    96    1
    13     8     9    2
    14     8     7    1
    15     9    10    1
    16    98   102   am
    17   102   103    1
    18   104   105    2
    19   104   103    1
    20   103   106    1
    21    95    93    1
    22    53    54    1
    23    54    55    1
    24    94    93    1
    25    30    29    2
    26    68    66    1
    27   106   107    1
    28    93    90    1
    29    29    31   am
    30    29    28    1
    31    80    79    1
    32    56    55    2
    33    55    57   am
    34    66    67    1
    35    66    63    1
    36    28    27    1
    37    90    91    1
    38    90    89    1
    39    92    91    2
    40    79    77   ar
    41    79    78   ar
    42    57    58    1
    43    89    83   am
    44    27    24    1
    45    63    62    1
    46    63    64    1
    47    77    75   ar
    48    78    76   ar
    49    60    59    2
    50    26    25    2
    51    24    25    1
    52    24    23    1
    53    62    59   am
    54    83    84    2
    55    83    82    1
    56    59    58    1
    57    65    64    2
    58    58    61    1
    59    25    32   am
    60    82    81    1
    61    82    85    1
    62    22    20    1
    63    75    74   ar
    64    76    74   ar
    65    88    86    1
    66    74    73    1
    67    32    33    1
    68    85    86    1
    69    20    21    1
    70    20    19    2
    71    33    36    1
    72    33    34    1
    73    86    87    1
    74    36    37    1
    75    43    42    1
    76    19    18    1
    77    73    70    1
    78    34    38   am
    79    34    35    2
    80    38    39    1
    81    72    71    2
    82    71    70    1
    83    70    69    1
    84    42    39    1
    85    39    40    1
    86    18    17    1
    87    17    16    1
    88    16    13    1
    89    12    13    1
    90    40    44   am
    91    40    41    2
    92    13    14    1
    93    44    45    1
    94    14    15    2
    95    45    48    1
    96    45    46    1
    97    48    49    1
    98    46    47    2
    99    49    50    1
   100    51    50   ar
   101    50    52   ar
