@<TRIPOS>MOLECULE
tmp/5x2nB00.pdb
 81 74 0 0 0
SMALL
GASTEIGER

@<TRIPOS>ATOM
      1  N         55.3470   55.5130    9.9790 N.3    37  LEU37      -0.1245
      2  CA        54.4010   55.1020    8.9640 C.3    37  LEU37       0.1561
      3  C         54.7220   53.7020    8.4530 C.2    37  LEU37       0.2260
      4  O         55.8500   53.4090    8.0770 O.2    37  LEU37      -0.2867
      5  CB        54.4040   56.0980    7.8000 C.3    37  LEU37       0.0270
      6  CG        53.3240   55.7910    6.7700 C.3    37  LEU37       0.0019
      7  CD1       51.9840   55.8540    7.4540 C.3    37  LEU37       0.0001
      8  CD2       53.3820   56.7540    5.5840 C.3    37  LEU37       0.0001
      9  N         53.8770   51.6680    5.4390 N.3    39  LYS39      -0.1245
     10  CA        53.2900   51.8780    4.1070 C.3    39  LYS39       0.1561
     11  C         52.4500   50.7060    3.5950 C.2    39  LYS39       0.2260
     12  O         51.4540   50.9140    2.9040 O.2    39  LYS39      -0.2867
     13  CB        54.3850   52.1840    3.0820 C.3    39  LYS39       0.0271
     14  CG        55.0950   53.4930    3.3230 C.3    39  LYS39       0.0035
     15  CD        56.1030   53.7890    2.2110 C.3    39  LYS39       0.0206
     16  CE        56.8810   55.0530    2.5240 C.3    39  LYS39       0.1093
     17  NZ        55.9640   56.2060    2.7770 N.3    39  LYS39      -0.1314
     18  N         49.0890   51.1110    5.6240 N.3    42  LEU42      -0.1245
     19  CA        48.3150   52.2150    5.0560 C.3    42  LEU42       0.1561
     20  C         47.7870   51.8200    3.6930 C.2    42  LEU42       0.2260
     21  O         46.6540   52.1450    3.3420 O.2    42  LEU42      -0.2867
     22  CB        49.1490   53.4930    4.9540 C.3    42  LEU42       0.0270
     23  CG        48.5780   54.6690    4.1350 C.3    42  LEU42       0.0019
     24  CD1       47.1660   55.0600    4.5660 C.3    42  LEU42       0.0001
     25  CD2       49.5010   55.8920    4.2200 C.3    42  LEU42       0.0001
     26  N         49.6150   62.5670    8.8300 N.3   330  GLU330     -0.1231
     27  CA        50.2940   63.1090    7.6520 C.3   330  GLU330      0.1699
     28  C         49.6150   62.7750    6.3220 C.2   330  GLU330      0.2592
     29  O         50.0360   63.2660    5.2690 O.2   330  GLU330     -0.2718
     30  CB        51.7430   62.6250    7.6110 C.3   330  GLU330      0.0402
     31  CG        51.9010   61.1220    7.5080 C.3   330  GLU330      0.1161
     32  CD        51.9460   60.4450    8.8630 C.2   330  GLU330      0.3649
     33  OE1       51.1350   60.8010    9.7430 O.co2 330  GLU330     -0.2457
     34  OE2       52.8070   59.5600    9.0510 O.co2 330  GLU330     -0.2457
     35  N         48.5630   61.9610    6.3570 N.am  331  CYS331     -0.1970
     36  CA        47.8710   61.5630    5.1290 C.3   331  CYS331      0.1712
     37  C         47.0640   62.6870    4.4900 C.2   331  CYS331      0.2296
     38  O         46.4550   62.4820    3.4420 O.2   331  CYS331     -0.2864
     39  CB        46.9360   60.3780    5.3910 C.3   331  CYS331      0.0983
     40  SG        47.7770   58.8060    5.6510 S.3   331  CYS331     -0.0798
     41  N         48.2720   65.2220    3.1940 N.3   333  SER333     -0.1202
     42  CA        49.1160   65.7440    2.1280 C.3   333  SER333      0.2020
     43  C         49.3030   64.7510    0.9960 C.2   333  SER333      0.2619
     44  O         50.2330   64.8800    0.2090 O.2   333  SER333     -0.2717
     45  CB        50.4830   66.1310    2.6820 C.3   333  SER333      0.2103
     46  OG        50.3440   66.9040    3.8540 O.3   333  SER333     -0.2182
     47  N         48.4310   63.7540    0.9230 N.am  334  LEU334     -0.1965
     48  CA        48.4790   62.7930   -0.1680 C.3   334  LEU334      0.1728
     49  C         48.1630   63.4560   -1.5140 C.2   334  LEU334      0.2616
     50  O         47.0940   64.0520   -1.6970 O.2   334  LEU334     -0.2715
     51  CB        47.5060   61.6390    0.0900 C.3   334  LEU334      0.0311
     52  CG        47.8750   60.6450    1.1930 C.3   334  LEU334      0.0022
     53  CD1       46.6910   59.7570    1.5520 C.3   334  LEU334      0.0001
     54  CD2       49.0550   59.8030    0.7570 C.3   334  LEU334      0.0001
     55  N         49.1070   63.3560   -2.4470 N.am  335  SER335     -0.1950
     56  CA        48.9010   63.8160   -3.8160 C.3   335  SER335      0.1924
     57  C         48.9390   62.5910   -4.7200 C.2   335  SER335      0.2314
     58  O         49.1470   61.4880   -4.2280 O.2   335  SER335     -0.2863
     59  CB        49.9650   64.8400   -4.2090 C.3   335  SER335      0.2116
     60  OG        51.2590   64.3820   -3.8700 O.3   335  SER335     -0.2180
     61  N         51.3060   61.7980   -6.2660 N.3   337  ALA337     -0.1231
     62  CA        52.6800   61.3270   -6.1090 C.3   337  ALA337      0.1694
     63  C         52.8210   60.1950   -5.0690 C.2   337  ALA337      0.2592
     64  O         53.9250   59.6890   -4.8470 O.2   337  ALA337     -0.2718
     65  CB        53.5900   62.4970   -5.7330 C.3   337  ALA337      0.0304
     66  N         51.7120   59.8010   -4.4390 N.am  338  ASN338     -0.1974
     67  CA        51.7370   58.7740   -3.3990 C.3   338  ASN338      0.1688
     68  C         51.0160   57.4900   -3.7920 C.2   338  ASN338      0.2292
     69  O         50.8480   56.5950   -2.9650 O.2   338  ASN338     -0.2864
     70  CB        51.1200   59.3050   -2.1040 C.3   338  ASN338      0.1181
     71  CG        51.7220   60.6200   -1.6610 C.2   338  ASN338      0.2629
     72  OD1       51.1740   61.6870   -1.9470 O.2   338  ASN338     -0.2716
     73  ND2       52.8470   60.5550   -0.9490 N.am  338  ASN338     -0.0877
     74  N         52.1480   53.9210   -2.9840 N.3   341  LEU341     -0.1245
     75  CA        51.6390   53.1540   -1.8540 C.3   341  LEU341      0.1561
     76  C         50.8790   51.9100   -2.2740 C.2   341  LEU341      0.2260
     77  O         50.9820   50.8850   -1.6140 O.2   341  LEU341     -0.2867
     78  CB        50.7320   54.0210   -0.9740 C.3   341  LEU341      0.0270
     79  CG        51.4480   55.0790   -0.1330 C.3   341  LEU341      0.0019
     80  CD1       50.4300   55.9310    0.6250 C.3   341  LEU341      0.0001
     81  CD2       52.4290   54.4420    0.8300 C.3   341  LEU341      0.0001
@<TRIPOS>BOND
     1    61    62    1
     2    62    65    1
     3    62    63    1
     4    63    64    2
     5    63    66   am
     6    57    58    2
     7    57    56    1
     8    66    67    1
     9    59    60    1
    10    59    56    1
    11    56    55    1
    12    68    67    1
    13    68    69    2
    14    67    70    1
    15    74    75    1
    16    55    49   am
    17    76    75    1
    18    76    77    2
    19    70    71    1
    20    72    71    2
    21    75    78    1
    22    50    49    2
    23    71    73   am
    24    49    48    1
    25    78    79    1
    26    48    51    1
    27    48    47    1
    28    79    80    1
    29    79    81    1
    30    51    52    1
    31    44    43    2
    32    54    52    1
    33    47    43   am
    34    43    42    1
    35    52    53    1
    36    42    45    1
    37    42    41    1
    38    15    16    1
    39    15    14    1
    40    16    17    1
    41    45    46    1
    42    12    11    2
    43    13    14    1
    44    13    10    1
    45    21    20    2
    46    38    37    2
    47    11    10    1
    48    20    19    1
    49    10     9    1
    50    23    25    1
    51    23    24    1
    52    23    22    1
    53    37    36    1
    54    22    19    1
    55    19    18    1
    56    36    39    1
    57    36    35    1
    58    29    28    2
    59    39    40    1
    60     8     6    1
    61    28    35   am
    62    28    27    1
    63     6     7    1
    64     6     5    1
    65    31    30    1
    66    31    32    1
    67    30    27    1
    68    27    26    1
    69     5     2    1
    70     4     3    2
    71     3     2    1
    72    32    34   ar
    73    32    33   ar
    74     2     1    1
