@<TRIPOS>MOLECULE
tmp/5x2oC04.pdb
 96 94 0 0 0
SMALL
GASTEIGER

@<TRIPOS>ATOM
      1  N         96.7850   68.7560   24.5420 N.3   116  PHE116     -0.1227
      2  CA        97.5270   69.9410   24.1550 C.3   116  PHE116      0.1736
      3  C         98.2960   70.5360   25.3370 C.2   116  PHE116      0.2596
      4  O         99.3990   71.0550   25.1910 O.2   116  PHE116     -0.2718
      5  CB        96.5510   70.9750   23.5950 C.3   116  PHE116      0.0547
      6  CG        97.2000   72.1750   22.9800 C.ar  116  PHE116     -0.0202
      7  CD1       98.4430   72.0810   22.3620 C.ar  116  PHE116     -0.0042
      8  CD2       96.5620   73.4140   23.0270 C.ar  116  PHE116     -0.0042
      9  CE1       99.0420   73.2090   21.7850 C.ar  116  PHE116     -0.0003
     10  CE2       97.1470   74.5520   22.4490 C.ar  116  PHE116     -0.0003
     11  CZ        98.3860   74.4510   21.8250 C.ar  116  PHE116     -0.0000
     12  N         97.6930   70.4280   26.5120 N.am  117  THR117     -0.1939
     13  CA        98.0320   71.2330   27.6880 C.3   117  THR117      0.2028
     14  C         98.5960   70.4000   28.8350 C.2   117  THR117      0.2642
     15  O         98.0830   69.3050   29.1200 O.2   117  THR117     -0.2714
     16  CB        96.7710   71.9770   28.1510 C.3   117  THR117      0.1808
     17  OG1       96.4770   73.0280   27.2170 O.3   117  THR117     -0.2208
     18  CG2       96.9090   72.5110   29.5390 C.3   117  THR117      0.0379
     19  N         99.6470   70.8970   29.4900 N.am  118  SER118     -0.1949
     20  CA       100.2570   70.1410   30.5900 C.3   118  SER118      0.1924
     21  C         99.2490   69.8840   31.7080 C.2   118  SER118      0.2314
     22  O         99.2340   68.8070   32.3160 O.2   118  SER118     -0.2863
     23  CB       101.4920   70.8610   31.1410 C.3   118  SER118      0.2116
     24  OG       102.5910   70.6840   30.2710 O.3   118  SER118     -0.2180
     25  N        101.5110   68.8470   22.2380 N.3   139  GLY139     -0.1210
     26  CA       101.7670   70.1640   22.7960 C.3   139  GLY139      0.1956
     27  C        102.3120   70.2530   24.2190 C.2   139  GLY139      0.2612
     28  O        102.9420   71.2440   24.5850 O.2   139  GLY139     -0.2717
     29  N        102.0830   69.2280   25.0270 N.am  140  CYS140     -0.1956
     30  CA       102.4030   69.2970   26.4480 C.3   140  CYS140      0.1843
     31  C        103.9170   69.3720   26.6880 C.2   140  CYS140      0.2626
     32  O        104.6500   68.4370   26.3940 O.2   140  CYS140     -0.2714
     33  CB       101.7840   68.0950   27.1740 C.3   140  CYS140      0.0997
     34  SG       102.4200   67.8240   28.8000 S.3   140  CYS140     -0.0797
     35  N        104.3710   70.4900   27.2370 N.am  141  SER141     -0.1950
     36  CA       105.7980   70.7190   27.3560 C.3   141  SER141      0.1924
     37  C        106.3880   70.6700   28.7730 C.2   141  SER141      0.2314
     38  O        107.5890   70.9210   28.9350 O.2   141  SER141     -0.2863
     39  CB       106.1470   72.0630   26.7120 C.3   141  SER141      0.2116
     40  OG       105.2940   73.0910   27.1560 O.3   141  SER141     -0.2180
     41  N         99.3930   78.2010   35.4890 N.3   187  ASP187     -0.1239
     42  CA        99.0650   76.7970   35.3590 C.3   187  ASP187      0.1674
     43  C        100.3760   76.0010   35.3480 C.2   187  ASP187      0.2266
     44  O        101.4540   76.5750   35.4800 O.2   187  ASP187     -0.2867
     45  CB        98.2190   76.5400   34.0970 C.3   187  ASP187      0.1410
     46  CG        98.9890   76.7610   32.7840 C.2   187  ASP187      0.3668
     47  OD1      100.1350   77.2690   32.7950 O.co2 187  ASP187     -0.2456
     48  OD2       98.4300   76.4100   31.7200 O.co2 187  ASP187     -0.2456
     49  N        101.9610   74.5520   33.0180 N.3   189  PHE189     -0.1241
     50  CA       102.8170   74.9160   31.9030 C.3   189  PHE189      0.1605
     51  C        103.7710   76.0410   32.3130 C.2   189  PHE189      0.2264
     52  O        105.0010   75.9060   32.2220 O.2   189  PHE189     -0.2867
     53  CB       101.9630   75.3180   30.6900 C.3   189  PHE189      0.0534
     54  CG       102.7210   76.0290   29.6280 C.ar  189  PHE189     -0.0203
     55  CD1      103.7460   75.3860   28.9410 C.ar  189  PHE189     -0.0042
     56  CD2      102.4100   77.3460   29.2970 C.ar  189  PHE189     -0.0042
     57  CE1      104.4590   76.0370   27.9400 C.ar  189  PHE189     -0.0003
     58  CE2      103.1250   78.0060   28.3050 C.ar  189  PHE189     -0.0003
     59  CZ       104.1510   77.3350   27.6210 C.ar  189  PHE189     -0.0000
     60  N        100.4310   80.8150   27.2520 N.3   240  PRO240     -0.2116
     61  CA        99.7130   80.4500   26.0250 C.3   240  PRO240      0.1372
     62  C         98.7260   81.5370   25.5990 C.2   240  PRO240      0.2244
     63  O         98.5200   82.5040   26.3360 O.2   240  PRO240     -0.2868
     64  CB        99.0120   79.1360   26.4050 C.3   240  PRO240      0.0268
     65  CG        98.9070   79.1380   27.9100 C.3   240  PRO240      0.0207
     66  CD       100.0120   80.0340   28.4350 C.3   240  PRO240      0.0892
     67  N         95.4770   82.8670   25.4710 N.3   242  VAL242     -0.1231
     68  CA        94.5860   83.8020   26.2190 C.3   242  VAL242      0.1692
     69  C         95.3120   84.6140   27.2720 C.2   242  VAL242      0.2592
     70  O         94.9780   85.7720   27.5040 O.2   242  VAL242     -0.2718
     71  CB        93.3680   83.1080   26.9660 C.3   242  VAL242      0.0266
     72  CG1       92.3260   82.6540   26.0120 C.3   242  VAL242      0.0020
     73  CG2       93.8020   81.9610   27.8720 C.3   242  VAL242      0.0020
     74  N         96.2970   83.9790   27.9030 N.am  243  TYR243     -0.1976
     75  CA        97.1440   84.6020   28.8930 C.3   243  TYR243      0.1639
     76  C         97.9430   85.6810   28.2170 C.2   243  TYR243      0.2290
     77  O         97.7670   86.8630   28.5060 O.2   243  TYR243     -0.2864
     78  CB        98.0800   83.5730   29.5460 C.3   243  TYR243      0.0560
     79  CG        97.3770   82.5130   30.3620 C.ar  243  TYR243     -0.0198
     80  CD1       96.8770   81.3630   29.7590 C.ar  243  TYR243     -0.0009
     81  CD2       97.1940   82.6640   31.7340 C.ar  243  TYR243     -0.0009
     82  CE1       96.2220   80.3810   30.4990 C.ar  243  TYR243      0.0417
     83  CE2       96.5340   81.6860   32.4860 C.ar  243  TYR243      0.0417
     84  CZ        96.0560   80.5450   31.8580 C.ar  243  TYR243      0.1957
     85  OH        95.4190   79.5600   32.5780 O.3   243  TYR243     -0.2866
     86  N        102.4000   74.0830   16.1440 N.3   331  PHE331     -0.1241
     87  CA       102.0240   72.7570   16.6230 C.3   331  PHE331      0.1605
     88  C        101.4690   71.8150   15.5330 C.2   331  PHE331      0.2264
     89  O        101.1180   70.6700   15.8190 O.2   331  PHE331     -0.2867
     90  CB       101.0250   72.8850   17.7720 C.3   331  PHE331      0.0534
     91  CG       101.6020   73.5260   18.9920 C.ar  331  PHE331     -0.0203
     92  CD1      102.3160   72.7680   19.9150 C.ar  331  PHE331     -0.0042
     93  CD2      101.4310   74.8850   19.2270 C.ar  331  PHE331     -0.0042
     94  CE1      102.8560   73.3610   21.0530 C.ar  331  PHE331     -0.0003
     95  CE2      101.9660   75.4790   20.3580 C.ar  331  PHE331     -0.0003
     96  CZ       102.6800   74.7190   21.2730 C.ar  331  PHE331     -0.0000
@<TRIPOS>BOND
     1    88    89    2
     2    88    87    1
     3    86    87    1
     4    87    90    1
     5    90    91    1
     6    91    93   ar
     7    91    92   ar
     8    93    95   ar
     9    92    94   ar
    10    95    96   ar
    11    94    96   ar
    12     9    11   ar
    13     9     7   ar
    14    11    10   ar
    15    25    26    1
    16     7     6   ar
    17    10     8   ar
    18    26    27    1
    19     6     8   ar
    20     6     5    1
    21     5     2    1
    22     2     1    1
    23     2     3    1
    24    27    28    2
    25    27    29   am
    26    29    30    1
    27     4     3    2
    28     3    12   am
    29    67    68    1
    30    62    61    1
    31    62    63    2
    32    72    71    1
    33    61    64    1
    34    61    60    1
    35    68    71    1
    36    68    69    1
    37    32    31    2
    38    64    65    1
    39    30    31    1
    40    30    33    1
    41    12    13    1
    42    31    35   am
    43    39    40    1
    44    39    36    1
    45    71    73    1
    46    33    34    1
    47    17    16    1
    48    35    36    1
    49    60    66    1
    50    69    70    2
    51    69    74   am
    52    36    37    1
    53    59    57   ar
    54    59    58   ar
    55    13    16    1
    56    13    14    1
    57    74    75    1
    58    65    66    1
    59    57    55   ar
    60    16    18    1
    61    76    77    2
    62    76    75    1
    63    58    56   ar
    64    37    38    2
    65    14    15    2
    66    14    19   am
    67    75    78    1
    68    55    54   ar
    69    56    54   ar
    70    19    20    1
    71    78    79    1
    72    54    53    1
    73    80    79   ar
    74    80    82   ar
    75    24    23    1
    76    79    81   ar
    77    82    84   ar
    78    20    23    1
    79    20    21    1
    80    53    50    1
    81    21    22    2
    82    48    46   ar
    83    81    83   ar
    84    84    83   ar
    85    84    85    1
    86    50    51    1
    87    50    49    1
    88    52    51    2
    89    46    47   ar
    90    46    45    1
    91    45    42    1
    92    43    42    1
    93    43    44    2
    94    42    41    1
