@<TRIPOS>MOLECULE
tmp/5x2oD02.pdb
 102 94 0 0 0
SMALL
GASTEIGER

@<TRIPOS>ATOM
      1  N        102.7600   55.4730   47.3520 N.3    75  ARG75      -0.1245
      2  CA       103.1300   56.8000   46.8750 C.3    75  ARG75       0.1563
      3  C        103.6010   56.7440   45.4120 C.2    75  ARG75       0.2260
      4  O        104.7090   57.1420   45.0880 O.2    75  ARG75      -0.2867
      5  CB       104.1790   57.4140   47.7990 C.3    75  ARG75       0.0307
      6  CG       103.5340   57.9410   49.0790 C.3    75  ARG75       0.0489
      7  CD       104.4270   58.8550   49.9060 C.3    75  ARG75       0.2205
      8  NE       105.6440   58.2080   50.3990 N.pl3  75  ARG75      -0.0865
      9  CZ       106.8720   58.4950   49.9740 C.cat  75  ARG75       0.5346
     10  NH1      107.0500   59.4170   49.0380 N.pl3  75  ARG75       0.1354
     11  NH2      107.9260   57.8580   50.4790 N.pl3  75  ARG75       0.1354
     12  N         97.5640   60.5090   51.8040 N.3   116  GLN116     -0.1231
     13  CA        98.4100   61.2130   52.7840 C.3   116  GLN116      0.1698
     14  C         99.1290   62.4190   52.1490 C.2   116  GLN116      0.2593
     15  O         99.1640   63.5040   52.7220 O.2   116  GLN116     -0.2718
     16  CB        99.4320   60.2410   53.4190 C.3   116  GLN116      0.0381
     17  CG       100.4060   60.9010   54.3890 C.3   116  GLN116      0.0905
     18  CD       100.9710   59.9390   55.4190 C.2   116  GLN116      0.2608
     19  OE1      100.2700   59.5190   56.3340 O.2   116  GLN116     -0.2717
     20  NE2      102.2440   59.5840   55.2760 N.am  116  GLN116     -0.0878
     21  N         99.6740   62.2340   50.9500 N.am  117  SER117     -0.1938
     22  CA       100.5370   63.2590   50.3690 C.3   117  SER117      0.2055
     23  C         99.8740   64.1410   49.3120 C.2   117  SER117      0.2644
     24  O         98.9250   63.7400   48.6290 O.2   117  SER117     -0.2714
     25  CB       101.7920   62.6180   49.7610 C.3   117  SER117      0.2130
     26  OG       101.4940   61.6070   48.8230 O.3   117  SER117     -0.2179
     27  N        100.4050   65.3510   49.1910 N.am  118  SER118     -0.1935
     28  CA        99.9740   66.2970   48.1800 C.3   118  SER118      0.2055
     29  C        100.2090   65.7420   46.7740 C.2   118  SER118      0.2642
     30  O         99.4080   65.9890   45.8660 O.2   118  SER118     -0.2714
     31  CB       100.7030   67.6350   48.3480 C.3   118  SER118      0.2130
     32  OG       100.1490   68.4070   49.3930 O.3   118  SER118     -0.2179
     33  N        101.2930   64.9870   46.5960 N.am  119  GLU119     -0.1976
     34  CA       101.5790   64.4320   45.2830 C.3   119  GLU119      0.1602
     35  C        100.4830   63.4560   44.8710 C.2   119  GLU119      0.2287
     36  O        100.1310   63.3500   43.6950 O.2   119  GLU119     -0.2864
     37  CB       102.9510   63.7430   45.2450 C.3   119  GLU119      0.0415
     38  CG       103.2880   63.1220   43.8850 C.3   119  GLU119      0.1163
     39  CD       104.7190   62.5710   43.8160 C.2   119  GLU119      0.3649
     40  OE1      105.5280   62.8910   44.7260 O.co2 119  GLU119     -0.2457
     41  OE2      105.0330   61.8240   42.8510 O.co2 119  GLU119     -0.2457
     42  N         96.2130   64.4660   55.5510 N.3   139  GLY139     -0.1225
     43  CA        97.5840   64.9300   55.5110 C.3   139  GLY139      0.1811
     44  C         98.0770   65.9160   54.4640 C.2   139  GLY139      0.2280
     45  O         98.9940   66.6820   54.7340 O.2   139  GLY139     -0.2866
     46  N         98.8360   69.0250   52.5270 N.3   141  THR141     -0.1218
     47  CA        98.7560   70.3770   53.0810 C.3   141  THR141      0.1862
     48  C         98.9110   71.4960   52.0650 C.2   141  THR141      0.2287
     49  O         98.6950   72.6630   52.3950 O.2   141  THR141     -0.2866
     50  CB        99.8230   70.6220   54.1860 C.3   141  THR141      0.1770
     51  OG1      101.1330   70.4050   53.6440 O.3   141  THR141     -0.2211
     52  CG2       99.5950   69.7250   55.4050 C.3   141  THR141      0.0375
     53  N        109.0410   68.6230   45.1530 N.3   187  GLU187     -0.1245
     54  CA       107.7560   68.0390   44.8260 C.3   187  GLU187      0.1567
     55  C        106.6740   68.9830   45.3040 C.2   187  GLU187      0.2260
     56  O        106.9730   70.0350   45.8680 O.2   187  GLU187     -0.2867
     57  CB       107.6070   66.6450   45.4410 C.3   187  GLU187      0.0388
     58  CG       108.0450   66.5180   46.8950 C.3   187  GLU187      0.1160
     59  CD       107.0840   67.1850   47.8560 C.2   187  GLU187      0.3649
     60  OE1      105.8650   67.1580   47.5940 O.co2 187  GLU187     -0.2457
     61  OE2      107.5510   67.7450   48.8660 O.co2 187  GLU187     -0.2457
     62  N        104.5930   69.4490   47.7370 N.3   189  TYR189     -0.1241
     63  CA       104.5890   69.9480   49.1210 C.3   189  TYR189      0.1605
     64  C        105.6730   70.9920   49.3710 C.2   189  TYR189      0.2264
     65  O        105.3870   72.1220   49.7800 O.2   189  TYR189     -0.2867
     66  CB       104.7660   68.7710   50.1040 C.3   189  TYR189      0.0534
     67  CG       104.9920   69.1480   51.5590 C.ar  189  TYR189     -0.0201
     68  CD1      103.9190   69.4490   52.3880 C.ar  189  TYR189     -0.0009
     69  CD2      106.2740   69.1960   52.1020 C.ar  189  TYR189     -0.0009
     70  CE1      104.1050   69.7930   53.7160 C.ar  189  TYR189      0.0417
     71  CE2      106.4750   69.5440   53.4310 C.ar  189  TYR189      0.0417
     72  CZ       105.3750   69.8430   54.2360 C.ar  189  TYR189      0.1957
     73  OH       105.5290   70.1880   55.5650 O.3   189  TYR189     -0.2866
     74  N        114.0980   64.1960   44.7130 N.3   216  ILE216     -0.1245
     75  CA       113.4580   63.0050   45.2470 C.3   216  ILE216      0.1561
     76  C        113.4470   61.8890   44.2020 C.2   216  ILE216      0.2260
     77  O        113.0230   60.7690   44.4900 O.2   216  ILE216     -0.2867
     78  CB       112.0140   63.2930   45.7080 C.3   216  ILE216      0.0252
     79  CG1      111.0460   63.1970   44.5330 C.3   216  ILE216      0.0019
     80  CG2      111.9110   64.6690   46.3640 C.3   216  ILE216      0.0019
     81  CD1      109.6160   63.2650   44.9410 C.3   216  ILE216      0.0001
     82  N        109.6030   67.1030   52.9130 N.3   238  LEU238     -0.1231
     83  CA       109.3070   65.7330   53.3210 C.3   238  LEU238      0.1693
     84  C        110.5210   65.1240   53.9920 C.2   238  LEU238      0.2591
     85  O        111.6650   65.4950   53.6910 O.2   238  LEU238     -0.2718
     86  CB       108.9150   64.8670   52.1330 C.3   238  LEU238      0.0284
     87  CG       107.8910   65.4710   51.1840 C.3   238  LEU238      0.0019
     88  CD1      107.7100   64.5680   49.9780 C.3   238  LEU238      0.0001
     89  CD2      106.5760   65.7160   51.8870 C.3   238  LEU238      0.0001
     90  N        110.2540   64.1620   54.8690 N.am  239  VAL239     -0.1980
     91  CA       111.2700   63.5480   55.7070 C.3   239  VAL239      0.1595
     92  C        112.5010   63.0500   54.9440 C.2   239  VAL239      0.2287
     93  O        113.6320   63.4500   55.2570 O.2   239  VAL239     -0.2864
     94  CB       110.6740   62.3740   56.4860 C.3   239  VAL239      0.0276
     95  CG1      111.7240   61.7560   57.4020 C.3   239  VAL239      0.0022
     96  CG2      109.4550   62.8350   57.2710 C.3   239  VAL239      0.0022
     97  N        105.9390   68.1470   58.3970 N.3   263  SER263     -0.1217
     98  CA       106.3680   66.8560   57.8830 C.3   263  SER263      0.1889
     99  C        107.5340   66.2550   58.6690 C.2   263  SER263      0.2288
    100  O        107.5970   65.0420   58.8110 O.2   263  SER263     -0.2866
    101  CB       106.7430   66.9640   56.3950 C.3   263  SER263      0.2089
    102  OG       107.8140   67.8670   56.1890 O.3   263  SER263     -0.2183
@<TRIPOS>BOND
     1    41    39   ar
     2    36    35    2
     3    39    38    1
     4    39    40   ar
     5    38    37    1
     6    76    77    2
     7    76    75    1
     8    79    81    1
     9    79    78    1
    10    74    75    1
    11    54    53    1
    12    54    55    1
    13    54    57    1
    14    35    34    1
    15     4     3    2
    16    37    34    1
    17    75    78    1
    18    34    33    1
    19    55    56    2
    20     3     2    1
    21    57    58    1
    22    78    80    1
    23    30    29    2
    24    33    29   am
    25    29    28    1
    26     2     1    1
    27     2     5    1
    28    58    59    1
    29    60    59   ar
    30    62    63    1
    31     5     6    1
    32    59    61   ar
    33    28    31    1
    34    28    27    1
    35    31    32    1
    36    24    23    2
    37    26    25    1
    38    10     9    1
    39     6     7    1
    40    63    64    1
    41    63    66    1
    42    27    23   am
    43    23    22    1
    44    64    65    2
    45    25    22    1
    46     7     8    1
    47     9     8    2
    48     9    11    1
    49    88    87    1
    50    66    67    1
    51    22    21    1
    52    21    14   am
    53    87    89    1
    54    87    86    1
    55    67    69   ar
    56    67    68   ar
    57    12    13    1
    58    48    49    2
    59    48    47    1
    60    69    71   ar
    61    86    83    1
    62    14    15    2
    63    14    13    1
    64    68    70   ar
    65    46    47    1
    66    13    16    1
    67    82    83    1
    68    47    50    1
    69    83    84    1
    70    16    17    1
    71    71    72   ar
    72    51    50    1
    73    85    84    2
    74    70    72   ar
    75    84    90   am
    76    50    52    1
    77    72    73    1
    78    17    18    1
    79    44    45    2
    80    44    43    1
    81    90    91    1
    82    92    93    2
    83    92    91    1
    84    20    18   am
    85    18    19    2
    86    43    42    1
    87    91    94    1
    88   102   101    1
    89   101    98    1
    90    94    96    1
    91    94    95    1
    92    98    97    1
    93    98    99    1
    94    99   100    2
