@<TRIPOS>MOLECULE
tmp/5x2pC04.pdb
 97 94 0 0 0
SMALL
GASTEIGER

@<TRIPOS>ATOM
      1  N         98.1690   70.6830   24.8960 N.3   114  PHE114     -0.1227
      2  CA        98.9010   71.8680   24.4740 C.3   114  PHE114      0.1736
      3  C         99.6370   72.5350   25.6410 C.2   114  PHE114      0.2596
      4  O        100.8150   72.8380   25.5450 O.2   114  PHE114     -0.2718
      5  CB        97.9280   72.8460   23.8170 C.3   114  PHE114      0.0547
      6  CG        98.5720   74.0610   23.2350 C.ar  114  PHE114     -0.0202
      7  CD1       99.6440   73.9500   22.3690 C.ar  114  PHE114     -0.0042
      8  CD2       98.0780   75.3230   23.5230 C.ar  114  PHE114     -0.0042
      9  CE1      100.2320   75.0840   21.8040 C.ar  114  PHE114     -0.0003
     10  CE2       98.6580   76.4590   22.9660 C.ar  114  PHE114     -0.0003
     11  CZ        99.7370   76.3380   22.1030 C.ar  114  PHE114     -0.0000
     12  N         98.9380   72.7520   26.7450 N.am  115  THR115     -0.1939
     13  CA        99.5080   73.4970   27.8610 C.3   115  THR115      0.2028
     14  C        100.0240   72.5880   28.9880 C.2   115  THR115      0.2643
     15  O         99.5140   71.4750   29.2110 O.2   115  THR115     -0.2714
     16  CB        98.4770   74.4760   28.4680 C.3   115  THR115      0.1808
     17  OG1       97.7950   73.8410   29.5640 O.3   115  THR115     -0.2208
     18  CG2       97.4540   74.9150   27.4020 C.3   115  THR115      0.0379
     19  N        101.0160   73.0870   29.7190 N.am  116  SER116     -0.1935
     20  CA       101.5950   72.3420   30.8290 C.3   116  SER116      0.2055
     21  C        100.5620   72.0650   31.9210 C.2   116  SER116      0.2643
     22  O        100.5810   71.0050   32.5490 O.2   116  SER116     -0.2714
     23  CB       102.8030   73.1010   31.4140 C.3   116  SER116      0.2130
     24  OG       103.9430   72.9890   30.5580 O.3   116  SER116     -0.2179
     25  N         99.6610   73.0110   32.1560 N.am  117  THR117     -0.1950
     26  CA        98.6790   72.8070   33.2110 C.3   117  THR117      0.1897
     27  C         97.7970   71.5970   32.8810 C.2   117  THR117      0.2313
     28  O         97.5750   70.7440   33.7450 O.2   117  THR117     -0.2863
     29  CB        97.8080   74.0640   33.4520 C.3   117  THR117      0.1794
     30  OG1       98.6000   75.0840   34.0790 O.3   117  THR117     -0.2208
     31  CG2       96.6220   73.7340   34.3630 C.3   117  THR117      0.0378
     32  N        102.7860   70.6930   22.5350 N.3   137  GLY137     -0.1210
     33  CA       102.9910   72.0050   23.1170 C.3   137  GLY137      0.1956
     34  C        103.5380   72.1390   24.5330 C.2   137  GLY137      0.2612
     35  O        104.1250   73.1630   24.8750 O.2   137  GLY137     -0.2717
     36  N        103.3360   71.1370   25.3730 N.am  138  CYS138     -0.1956
     37  CA       103.7410   71.2530   26.7560 C.3   138  CYS138      0.1843
     38  C        105.2550   71.4400   26.9020 C.2   138  CYS138      0.2626
     39  O        106.0310   70.5700   26.5200 O.2   138  CYS138     -0.2714
     40  CB       103.2880   70.0270   27.5230 C.3   138  CYS138      0.0997
     41  SG       103.8670   70.0920   29.1590 S.3   138  CYS138     -0.0797
     42  N        105.6750   72.5810   27.4480 N.am  139  SER139     -0.1950
     43  CA       107.1070   72.8470   27.5290 C.3   139  SER139      0.1924
     44  C        107.6680   72.8300   28.9550 C.2   139  SER139      0.2314
     45  O        108.8000   73.2550   29.1840 O.2   139  SER139     -0.2863
     46  CB       107.4400   74.1890   26.8570 C.3   139  SER139      0.2116
     47  OG       106.7160   75.2590   27.4420 O.3   139  SER139     -0.2180
     48  N        103.2860   76.7580   33.5500 N.3   187  PHE187     -0.1241
     49  CA       104.1720   77.2060   32.4710 C.3   187  PHE187      0.1605
     50  C        105.0620   78.3830   32.8880 C.2   187  PHE187      0.2264
     51  O        106.2810   78.3030   32.8190 O.2   187  PHE187     -0.2867
     52  CB       103.3360   77.5830   31.2450 C.3   187  PHE187      0.0534
     53  CG       104.1130   78.2210   30.1270 C.ar  187  PHE187     -0.0203
     54  CD1      105.1060   77.5110   29.4480 C.ar  187  PHE187     -0.0042
     55  CD2      103.8130   79.5130   29.7090 C.ar  187  PHE187     -0.0042
     56  CE1      105.8200   78.1000   28.3630 C.ar  187  PHE187     -0.0003
     57  CE2      104.5130   80.1060   28.6320 C.ar  187  PHE187     -0.0003
     58  CZ       105.5170   79.3950   27.9550 C.ar  187  PHE187     -0.0000
     59  N        101.4010   82.7040   27.9180 N.3   238  PRO238     -0.2102
     60  CA       100.5000   82.3340   26.8240 C.3   238  PRO238      0.1504
     61  C         99.7550   83.5330   26.2280 C.2   238  PRO238      0.2575
     62  O         99.6910   84.6120   26.8330 O.2   238  PRO238     -0.2718
     63  CB        99.5200   81.3700   27.4960 C.3   238  PRO238      0.0282
     64  CG       100.2410   80.8590   28.6850 C.3   238  PRO238      0.0208
     65  CD       101.0540   82.0040   29.1660 C.3   238  PRO238      0.0893
     66  N         99.2050   83.3080   25.0390 N.am  239  LYS239     -0.1980
     67  CA        98.4050   84.2780   24.2850 C.3   239  LYS239      0.1596
     68  C         97.5440   85.2230   25.1260 C.2   239  LYS239      0.2287
     69  O         97.8130   86.4230   25.1120 O.2   239  LYS239     -0.2864
     70  CB        97.5230   83.5290   23.2790 C.3   239  LYS239      0.0298
     71  CG        96.6840   84.3940   22.3570 C.3   239  LYS239      0.0038
     72  CD        95.9030   83.5120   21.3530 C.3   239  LYS239      0.0206
     73  CE        94.8110   84.3040   20.6420 C.3   239  LYS239      0.1093
     74  NZ        95.3380   85.4370   19.8190 N.3   239  LYS239     -0.1314
     75  N        108.6090   85.0190   24.3440 N.3   262  ASP262     -0.1239
     76  CA       108.8410   83.6040   24.0620 C.3   262  ASP262      0.1674
     77  C        108.0450   83.2070   22.7940 C.2   262  ASP262      0.2266
     78  O        107.2740   84.0250   22.2670 O.2   262  ASP262     -0.2867
     79  CB       108.4240   82.7460   25.2600 C.3   262  ASP262      0.1410
     80  CG       106.9110   82.7080   25.4410 C.2   262  ASP262      0.3668
     81  OD1      106.3320   83.7250   25.8900 O.co2 262  ASP262     -0.2456
     82  OD2      106.2990   81.6650   25.1200 O.co2 262  ASP262     -0.2456
     83  N        105.4960   81.5360   22.4640 N.3   264  GLY264     -0.1225
     84  CA       104.0700   81.5510   22.7300 C.3   264  GLY264      0.1811
     85  C        103.3550   82.7310   22.0920 C.2   264  GLY264      0.2280
     86  O        102.2270   82.5740   21.6280 O.2   264  GLY264     -0.2866
     87  N        103.7660   75.9250   16.2470 N.3   330  PHE330     -0.1241
     88  CA       103.4230   74.5670   16.6890 C.3   330  PHE330      0.1605
     89  C        102.7640   73.6820   15.6150 C.2   330  PHE330      0.2264
     90  O        102.3400   72.5710   15.9330 O.2   330  PHE330     -0.2867
     91  CB       102.4920   74.5880   17.9150 C.3   330  PHE330      0.0534
     92  CG       103.0360   75.3450   19.0910 C.ar  330  PHE330     -0.0203
     93  CD1      103.8760   74.7220   20.0050 C.ar  330  PHE330     -0.0042
     94  CD2      102.6790   76.6720   19.3030 C.ar  330  PHE330     -0.0042
     95  CE1      104.3860   75.4170   21.0980 C.ar  330  PHE330     -0.0003
     96  CE2      103.1790   77.3770   20.3990 C.ar  330  PHE330     -0.0003
     97  CZ       104.0330   76.7470   21.2970 C.ar  330  PHE330     -0.0000
@<TRIPOS>BOND
     1    89    90    2
     2    89    88    1
     3    87    88    1
     4    88    91    1
     5    91    92    1
     6    92    94   ar
     7    92    93   ar
     8    94    96   ar
     9    74    73    1
    10    93    95   ar
    11    96    97   ar
    12    73    72    1
    13    95    97   ar
    14    72    71    1
    15    86    85    2
    16     9    11   ar
    17     9     7   ar
    18    85    84    1
    19    11    10   ar
    20    78    77    2
    21    71    70    1
    22     7     6   ar
    23    83    84    1
    24    32    33    1
    25    77    76    1
    26    10     8   ar
    27    33    34    1
    28     6     8   ar
    29     6     5    1
    30    70    67    1
    31     5     2    1
    32    76    75    1
    33    76    79    1
    34    67    66    1
    35    67    68    1
    36     2     1    1
    37     2     3    1
    38    34    35    2
    39    34    36   am
    40    66    61   am
    41    69    68    2
    42    82    80   ar
    43    79    80    1
    44    36    37    1
    45    80    81   ar
    46     4     3    2
    47     3    12   am
    48    61    60    1
    49    61    62    2
    50    39    38    2
    51    12    13    1
    52    37    38    1
    53    37    40    1
    54    60    63    1
    55    60    59    1
    56    46    47    1
    57    46    43    1
    58    38    42   am
    59    18    16    1
    60    42    43    1
    61    63    64    1
    62    40    41    1
    63    43    44    1
    64    13    16    1
    65    13    14    1
    66    59    65    1
    67    58    56   ar
    68    58    57   ar
    69    56    54   ar
    70    16    17    1
    71    57    55   ar
    72    64    65    1
    73    44    45    2
    74    14    15    2
    75    14    19   am
    76    54    53   ar
    77    55    53   ar
    78    19    20    1
    79    53    52    1
    80    24    23    1
    81    20    23    1
    82    20    21    1
    83    52    49    1
    84    21    25   am
    85    21    22    2
    86    25    26    1
    87    49    50    1
    88    49    48    1
    89    51    50    2
    90    27    26    1
    91    27    28    2
    92    26    29    1
    93    29    30    1
    94    29    31    1
