@<TRIPOS>MOLECULE
tmp/5x2pB02.pdb
 102 95 0 0 0
SMALL
GASTEIGER

@<TRIPOS>ATOM
      1  N         46.6100   49.1690    2.0760 N.3    44  ARG44      -0.1245
      2  CA        45.5100   48.2280    2.2690 C.3    44  ARG44       0.1563
      3  C         44.2160   48.9290    2.6950 C.2    44  ARG44       0.2260
      4  O         43.1300   48.4810    2.3630 O.2    44  ARG44      -0.2867
      5  CB        45.9070   47.1720    3.2960 C.3    44  ARG44       0.0307
      6  CG        47.1780   46.4370    2.9280 C.3    44  ARG44       0.0489
      7  CD        47.2170   45.0810    3.5800 C.3    44  ARG44       0.2205
      8  NE        48.3880   44.3170    3.1880 N.pl3  44  ARG44      -0.0865
      9  CZ        49.5940   44.5060    3.7050 C.cat  44  ARG44       0.5346
     10  NH1       49.7750   45.4530    4.6080 N.pl3  44  ARG44       0.1354
     11  NH2       50.6180   43.7660    3.3070 N.pl3  44  ARG44       0.1354
     12  N         50.0220   48.6040   15.5810 N.3    76  ARG76      -0.1245
     13  CA        50.5220   47.2800   15.9530 C.3    76  ARG76       0.1563
     14  C         50.9010   47.2310   17.4470 C.2    76  ARG76       0.2260
     15  O         51.9180   46.6730   17.8270 O.2    76  ARG76      -0.2867
     16  CB        51.7070   46.8860   15.0570 C.3    76  ARG76       0.0307
     17  CG        51.9180   45.3720   14.9670 C.3    76  ARG76       0.0489
     18  CD        53.0920   44.9860   14.0720 C.3    76  ARG76       0.2205
     19  NE        52.7060   44.7520   12.6810 N.pl3  76  ARG76      -0.0865
     20  CZ        53.2970   45.3350   11.6450 C.cat  76  ARG76       0.5346
     21  NH1       54.2900   46.1820   11.8580 N.pl3  76  ARG76       0.1354
     22  NH2       52.9060   45.0770   10.4020 N.pl3  76  ARG76       0.1354
     23  N         45.3760   43.2810   10.8210 N.3   117  GLN117     -0.1231
     24  CA        46.2780   42.6670    9.8600 C.3   117  GLN117      0.1698
     25  C         47.1650   41.6350   10.5200 C.2   117  GLN117      0.2593
     26  O         47.5250   40.6390    9.8990 O.2   117  GLN117     -0.2718
     27  CB        47.1500   43.7270    9.1860 C.3   117  GLN117      0.0381
     28  CG        48.0850   43.1810    8.1250 C.3   117  GLN117      0.0905
     29  CD        49.0860   44.2090    7.6440 C.2   117  GLN117      0.2608
     30  OE1       48.7300   45.1720    6.9590 O.2   117  GLN117     -0.2717
     31  NE2       50.3480   44.0140    8.0060 N.am  117  GLN117     -0.0878
     32  N         47.5360   41.8660   11.7750 N.am  118  SER118     -0.1938
     33  CA        48.5280   41.0000   12.3810 C.3   118  SER118      0.2055
     34  C         47.9180   40.0690   13.4440 C.2   118  SER118      0.2644
     35  O         46.9530   40.4220   14.1270 O.2   118  SER118     -0.2714
     36  CB        49.6530   41.8400   12.9770 C.3   118  SER118      0.2130
     37  OG        49.2380   42.4860   14.1600 O.3   118  SER118     -0.2179
     38  N         48.4900   38.8780   13.5590 N.am  119  SER119     -0.1935
     39  CA        48.0590   37.8870   14.5310 C.3   119  SER119      0.2055
     40  C         48.2160   38.3570   15.9730 C.2   119  SER119      0.2642
     41  O         47.4110   37.9920   16.8370 O.2   119  SER119     -0.2714
     42  CB        48.8370   36.5810   14.3470 C.3   119  SER119      0.2130
     43  OG        48.6980   36.0890   13.0270 O.3   119  SER119     -0.2179
     44  N         49.2530   39.1450   16.2430 N.am  120  GLU120     -0.1976
     45  CA        49.4420   39.6560   17.6010 C.3   120  GLU120      0.1602
     46  C         48.2420   40.5180   17.9780 C.2   120  GLU120      0.2287
     47  O         47.7380   40.4360   19.0960 O.2   120  GLU120     -0.2864
     48  CB        50.7450   40.4590   17.7400 C.3   120  GLU120      0.0415
     49  CG        51.0720   40.8850   19.1680 C.3   120  GLU120      0.1163
     50  CD        51.7970   39.7970   19.9750 C.2   120  GLU120      0.3649
     51  OE1       51.6120   38.5940   19.6780 O.co2 120  GLU120     -0.2457
     52  OE2       52.5610   40.1440   20.9090 O.co2 120  GLU120     -0.2457
     53  N         44.9390   39.5490    6.8750 N.3   140  GLY140     -0.1225
     54  CA        46.3660   39.3000    7.0180 C.3   140  GLY140      0.1811
     55  C         46.8670   38.3850    8.1310 C.2   140  GLY140      0.2280
     56  O         47.9790   37.8580    8.0390 O.2   140  GLY140     -0.2866
     57  N         47.5960   35.2690   10.0970 N.3   142  THR142     -0.1218
     58  CA        47.7390   33.9260    9.5320 C.3   142  THR142      0.1862
     59  C         48.0210   32.8080   10.5290 C.2   142  THR142      0.2287
     60  O         48.0800   31.6340   10.1470 O.2   142  THR142     -0.2866
     61  CB        48.8680   33.8920    8.4960 C.3   142  THR142      0.1770
     62  OG1       50.0760   34.3800    9.0950 O.3   142  THR142     -0.2211
     63  CG2       48.5250   34.7500    7.3020 C.3   142  THR142      0.0375
     64  N         53.0150   35.5120   15.4520 N.3   190  TYR190     -0.1241
     65  CA        53.2440   35.0040   14.1010 C.3   190  TYR190      0.1605
     66  C         54.5300   34.1840   14.0270 C.2   190  TYR190      0.2264
     67  O         54.4940   32.9980   13.6760 O.2   190  TYR190     -0.2867
     68  CB        53.2800   36.1770   13.1150 C.3   190  TYR190      0.0534
     69  CG        53.7040   35.8850   11.6980 C.ar  190  TYR190     -0.0201
     70  CD1       52.8730   35.1850   10.8360 C.ar  190  TYR190     -0.0009
     71  CD2       54.9150   36.3650   11.1990 C.ar  190  TYR190     -0.0009
     72  CE1       53.2450   34.9400    9.5280 C.ar  190  TYR190      0.0417
     73  CE2       55.3030   36.1150    9.8840 C.ar  190  TYR190      0.0417
     74  CZ        54.4580   35.4070    9.0570 C.ar  190  TYR190      0.1957
     75  OH        54.8120   35.1630    7.7550 O.3   190  TYR190     -0.2866
     76  N         58.1620   38.9950   11.0640 N.3   245  LEU245     -0.1231
     77  CA        57.6480   40.3100   10.6960 C.3   245  LEU245      0.1693
     78  C         58.7520   41.1310   10.0190 C.2   245  LEU245      0.2591
     79  O         59.9480   40.8730   10.2230 O.2   245  LEU245     -0.2718
     80  CB        57.1100   41.0400   11.9230 C.3   245  LEU245      0.0284
     81  CG        55.8750   40.4050   12.5720 C.3   245  LEU245      0.0019
     82  CD1       55.4180   41.1760   13.8190 C.3   245  LEU245      0.0001
     83  CD2       54.7380   40.2530   11.5660 C.3   245  LEU245      0.0001
     84  N         58.3540   42.1080    9.2110 N.am  246  VAL246     -0.1980
     85  CA        59.3130   42.8220    8.3840 C.3   246  VAL246      0.1595
     86  C         60.4430   43.4810    9.1720 C.2   246  VAL246      0.2287
     87  O         61.6050   43.3170    8.8100 O.2   246  VAL246     -0.2864
     88  CB        58.6330   43.8970    7.5330 C.3   246  VAL246      0.0276
     89  CG1       59.6640   44.6670    6.7450 C.3   246  VAL246      0.0022
     90  CG2       57.6490   43.2620    6.5870 C.3   246  VAL246      0.0022
     91  N         55.4190   34.7060    4.0800 N.3   269  SER269     -0.1202
     92  CA        54.7010   35.7230    3.3120 C.3   269  SER269      0.2020
     93  C         54.9070   37.1450    3.8280 C.2   269  SER269      0.2619
     94  O         54.9560   38.0760    3.0380 O.2   269  SER269     -0.2717
     95  CB        53.2000   35.3910    3.2620 C.3   269  SER269      0.2103
     96  OG        52.6000   35.4870    4.5380 O.3   269  SER269     -0.2182
     97  N         55.0720   37.3120    5.1340 N.am  270  SER270     -0.1951
     98  CA        55.1880   38.6570    5.7010 C.3   270  SER270      0.1924
     99  C         56.3560   39.4670    5.1370 C.2   270  SER270      0.2314
    100  O         56.2380   40.6810    5.0130 O.2   270  SER270     -0.2863
    101  CB        55.3060   38.5930    7.2260 C.3   270  SER270      0.2116
    102  OG        56.5420   38.0290    7.6030 O.3   270  SER270     -0.2180
@<TRIPOS>BOND
     1     1     2    1
     2     2     3    1
     3     2     5    1
     4     4     3    2
     5     6     5    1
     6     6     7    1
     7    94    93    2
     8     8     7    1
     9     8     9    2
    10    95    92    1
    11    95    96    1
    12    11     9    1
    13    92    93    1
    14    92    91    1
    15     9    10    1
    16    93    97   am
    17   100    99    2
    18    97    98    1
    19    99    98    1
    20    98   101    1
    21    90    88    1
    22    89    88    1
    23    53    54    1
    24    30    29    2
    25    54    55    1
    26   101   102    1
    27    63    61    1
    28    88    85    1
    29    29    31   am
    30    29    28    1
    31    75    74    1
    32    56    55    2
    33    28    27    1
    34    85    86    1
    35    85    84    1
    36    61    62    1
    37    61    58    1
    38    87    86    2
    39    74    72   ar
    40    74    73   ar
    41    27    24    1
    42    84    78   am
    43    72    70   ar
    44    58    57    1
    45    58    59    1
    46    24    25    1
    47    24    23    1
    48    73    71   ar
    49    26    25    2
    50    78    79    2
    51    78    77    1
    52    60    59    2
    53    22    20    1
    54    25    32   am
    55    77    76    1
    56    77    80    1
    57    70    69   ar
    58    71    69   ar
    59    83    81    1
    60    20    21    1
    61    20    19    2
    62    69    68    1
    63    32    33    1
    64    80    81    1
    65    33    36    1
    66    33    34    1
    67    81    82    1
    68    19    18    1
    69    36    37    1
    70    43    42    1
    71    68    65    1
    72    34    38   am
    73    34    35    2
    74    38    39    1
    75    67    66    2
    76    66    65    1
    77    18    17    1
    78    65    64    1
    79    42    39    1
    80    39    40    1
    81    17    16    1
    82    16    13    1
    83    12    13    1
    84    13    14    1
    85    40    44   am
    86    40    41    2
    87    44    45    1
    88    14    15    2
    89    45    48    1
    90    45    46    1
    91    48    49    1
    92    46    47    2
    93    49    50    1
    94    51    50   ar
    95    50    52   ar
