@<TRIPOS>MOLECULE
tmp/5x2pD03.pdb
 105 99 0 0 0
SMALL
GASTEIGER

@<TRIPOS>ATOM
      1  N        104.6660   57.2900   48.2520 N.3    76  ARG76      -0.1245
      2  CA       105.1390   58.6190   47.8830 C.3    76  ARG76       0.1563
      3  C        105.4480   58.6640   46.3890 C.2    76  ARG76       0.2260
      4  O        106.3310   59.3920   45.9440 O.2    76  ARG76      -0.2867
      5  CB       106.3710   58.9890   48.7040 C.3    76  ARG76       0.0307
      6  CG       106.6240   60.4760   48.8400 C.3    76  ARG76       0.0489
      7  CD       107.8320   60.7180   49.7400 C.3    76  ARG76       0.2205
      8  NE       107.6240   60.1940   51.0910 N.pl3  76  ARG76      -0.0865
      9  CZ       107.0520   60.8770   52.0830 C.cat  76  ARG76       0.5346
     10  NH1      106.6300   62.1220   51.8780 N.pl3  76  ARG76       0.1354
     11  NH2      106.9080   60.3170   53.2850 N.pl3  76  ARG76       0.1354
     12  N         99.2470   62.1560   52.5390 N.3   117  GLN117     -0.1231
     13  CA       100.0480   62.8730   53.5200 C.3   117  GLN117      0.1698
     14  C        100.8650   64.0170   52.9190 C.2   117  GLN117      0.2593
     15  O        101.1200   65.0140   53.5890 O.2   117  GLN117     -0.2718
     16  CB       100.9780   61.8930   54.2340 C.3   117  GLN117      0.0381
     17  CG       101.9870   62.5370   55.1520 C.3   117  GLN117      0.0905
     18  CD       102.7880   61.5190   55.9120 C.2   117  GLN117      0.2608
     19  OE1      102.2290   60.5980   56.5010 O.2   117  GLN117     -0.2717
     20  NE2      104.1050   61.6740   55.9120 N.am  117  GLN117     -0.0878
     21  N        101.2680   63.8890   51.6590 N.am  118  SER118     -0.1938
     22  CA       102.2380   64.8270   51.0940 C.3   118  SER118      0.2055
     23  C        101.6880   65.7010   49.9670 C.2   118  SER118      0.2644
     24  O        100.7910   65.2950   49.2200 O.2   118  SER118     -0.2714
     25  CB       103.4560   64.0700   50.5770 C.3   118  SER118      0.2130
     26  OG       103.2950   63.7630   49.2030 O.3   118  SER118     -0.2179
     27  N        102.2650   66.8900   49.8360 N.am  119  SER119     -0.1935
     28  CA       101.8520   67.8600   48.8350 C.3   119  SER119      0.2055
     29  C        102.1800   67.3940   47.4260 C.2   119  SER119      0.2642
     30  O        101.5290   67.7990   46.4630 O.2   119  SER119     -0.2714
     31  CB       102.5110   69.2210   49.1030 C.3   119  SER119      0.2130
     32  OG       101.9670   69.8220   50.2760 O.3   119  SER119     -0.2179
     33  N        103.1840   66.5390   47.2930 N.am  120  GLU120     -0.1976
     34  CA       103.5130   66.0230   45.9760 C.3   120  GLU120      0.1602
     35  C        102.4110   65.0750   45.5200 C.2   120  GLU120      0.2287
     36  O        102.0650   65.0150   44.3410 O.2   120  GLU120     -0.2864
     37  CB       104.8700   65.3200   45.9810 C.3   120  GLU120      0.0415
     38  CG       105.4130   65.0450   44.5990 C.3   120  GLU120      0.1163
     39  CD       105.6630   66.3180   43.7870 C.2   120  GLU120      0.3649
     40  OE1      106.2800   67.2790   44.3160 O.co2 120  GLU120     -0.2457
     41  OE2      105.2320   66.3530   42.6100 O.co2 120  GLU120     -0.2457
     42  N         98.3290   65.8780   56.3180 N.3   140  GLY140     -0.1210
     43  CA        99.7190   66.2870   56.3010 C.3   140  GLY140      0.1956
     44  C        100.1490   67.2420   55.1970 C.2   140  GLY140      0.2612
     45  O        101.0890   68.0100   55.3760 O.2   140  GLY140     -0.2717
     46  N         99.4930   67.1860   54.0440 N.am  141  ALA141     -0.1965
     47  CA        99.8730   68.0580   52.9430 C.3   141  ALA141      0.1728
     48  C         99.6710   69.5170   53.3480 C.2   141  ALA141      0.2616
     49  O         98.5530   69.9200   53.6700 O.2   141  ALA141     -0.2715
     50  CB        99.0780   67.7270   51.7200 C.3   141  ALA141      0.0334
     51  N        100.7430   70.3050   53.3450 N.am  142  THR142     -0.1951
     52  CA       100.6690   71.6440   53.9310 C.3   142  THR142      0.1897
     53  C        100.8940   72.8080   52.9650 C.2   142  THR142      0.2313
     54  O        100.8320   73.9690   53.3750 O.2   142  THR142     -0.2863
     55  CB       101.6960   71.8050   55.0760 C.3   142  THR142      0.1794
     56  OG1      103.0170   71.5180   54.5950 O.3   142  THR142     -0.2208
     57  CG2      101.3610   70.8890   56.2390 C.3   142  THR142      0.0378
     58  N        110.8180   69.7970   45.4690 N.3   184  GLU184     -0.1245
     59  CA       109.5160   69.1900   45.2470 C.3   184  GLU184      0.1567
     60  C        108.4730   70.1720   45.7750 C.2   184  GLU184      0.2260
     61  O        108.8210   71.2450   46.2590 O.2   184  GLU184     -0.2867
     62  CB       109.4010   67.8150   45.9220 C.3   184  GLU184      0.0388
     63  CG       109.9210   67.7480   47.3470 C.3   184  GLU184      0.1160
     64  CD       108.9610   68.3690   48.3500 C.2   184  GLU184      0.3649
     65  OE1      107.7360   68.3880   48.0790 O.co2 184  GLU184     -0.2457
     66  OE2      109.4350   68.8420   49.4070 O.co2 184  GLU184     -0.2457
     67  N        106.6210   70.6080   48.3890 N.3   186  TYR186     -0.1241
     68  CA       106.6640   71.1210   49.7510 C.3   186  TYR186      0.1605
     69  C        107.7940   72.1310   49.9240 C.2   186  TYR186      0.2264
     70  O        107.5720   73.2530   50.3760 O.2   186  TYR186     -0.2867
     71  CB       106.8080   69.9630   50.7350 C.3   186  TYR186      0.0534
     72  CG       107.0540   70.3500   52.1730 C.ar  186  TYR186     -0.0201
     73  CD1      105.9900   70.5900   53.0420 C.ar  186  TYR186     -0.0009
     74  CD2      108.3460   70.4380   52.6760 C.ar  186  TYR186     -0.0009
     75  CE1      106.2060   70.9230   54.3620 C.ar  186  TYR186      0.0417
     76  CE2      108.5740   70.7800   53.9930 C.ar  186  TYR186      0.0417
     77  CZ       107.4990   71.0140   54.8370 C.ar  186  TYR186      0.1957
     78  OH       107.7250   71.3480   56.1570 O.3   186  TYR186     -0.2866
     79  N        111.5250   67.8960   53.3550 N.3   225  LEU225     -0.1231
     80  CA       111.1870   66.5360   53.7490 C.3   225  LEU225      0.1693
     81  C        112.3000   65.9080   54.5950 C.2   225  LEU225      0.2591
     82  O        113.4360   66.3660   54.5500 O.2   225  LEU225     -0.2718
     83  CB       110.9290   65.6810   52.5120 C.3   225  LEU225      0.0284
     84  CG       109.8470   66.2120   51.5820 C.3   225  LEU225      0.0019
     85  CD1      109.5590   65.1910   50.4810 C.3   225  LEU225      0.0001
     86  CD2      108.5890   66.5570   52.3660 C.3   225  LEU225      0.0001
     87  N        111.9720   64.8590   55.3510 N.am  226  VAL226     -0.1980
     88  CA       112.9350   64.2170   56.2500 C.3   226  VAL226      0.1595
     89  C        114.1190   63.5910   55.4980 C.2   226  VAL226      0.2287
     90  O        115.2740   63.7940   55.8790 O.2   226  VAL226     -0.2864
     91  CB       112.2530   63.1300   57.1300 C.3   226  VAL226      0.0276
     92  CG1      111.3420   62.2460   56.2950 C.3   226  VAL226      0.0022
     93  CG2      113.2910   62.2960   57.8660 C.3   226  VAL226      0.0022
     94  N        108.0450   71.7860   60.0390 N.3   249  SER249     -0.1202
     95  CA       107.2930   70.7030   60.6610 C.3   249  SER249      0.2020
     96  C        107.6580   69.2890   60.2100 C.2   249  SER249      0.2619
     97  O        107.4750   68.3280   60.9530 O.2   249  SER249     -0.2717
     98  CB       105.7980   70.9330   60.4130 C.3   249  SER249      0.2103
     99  OG       105.5450   71.2940   59.0590 O.3   249  SER249     -0.2182
    100  N        108.1560   69.1510   58.9940 N.am  250  SER250     -0.1951
    101  CA       108.3270   67.8180   58.4220 C.3   250  SER250      0.1924
    102  C        109.5280   67.0620   58.9980 C.2   250  SER250      0.2314
    103  O        109.5670   65.8310   58.9470 O.2   250  SER250     -0.2863
    104  CB       108.4410   67.9040   56.8890 C.3   250  SER250      0.2116
    105  OG       109.2130   69.0220   56.4900 O.3   250  SER250     -0.2180
@<TRIPOS>BOND
     1    41    39   ar
     2    39    40   ar
     3    39    38    1
     4    36    35    2
     5    38    37    1
     6    59    58    1
     7    59    60    1
     8    59    62    1
     9    35    34    1
    10    60    61    2
    11    62    63    1
    12     4     3    2
    13    34    37    1
    14    34    33    1
    15     3     2    1
    16    30    29    2
    17    33    29   am
    18    63    64    1
    19    29    28    1
    20     2     1    1
    21     2     5    1
    22    65    64   ar
    23    64    66   ar
    24    67    68    1
    25     5     6    1
    26    28    31    1
    27    28    27    1
    28     6     7    1
    29    31    32    1
    30    26    25    1
    31    24    23    2
    32     7     8    1
    33    68    69    1
    34    68    71    1
    35    27    23   am
    36    69    70    2
    37    23    22    1
    38    85    84    1
    39    25    22    1
    40    71    72    1
    41     8     9    2
    42    22    21    1
    43    84    86    1
    44    84    83    1
    45    21    14   am
    46    50    47    1
    47    10     9    1
    48     9    11    1
    49    72    74   ar
    50    72    73   ar
    51    83    80    1
    52    12    13    1
    53    74    76   ar
    54    14    13    1
    55    14    15    2
    56    47    48    1
    57    47    46    1
    58    53    54    2
    59    53    52    1
    60    73    75   ar
    61    51    48   am
    62    51    52    1
    63    48    49    2
    64    79    80    1
    65    13    16    1
    66    80    81    1
    67    52    55    1
    68    76    77   ar
    69    46    44   am
    70    16    17    1
    71    75    77   ar
    72    82    81    2
    73    81    87   am
    74    56    55    1
    75    77    78    1
    76    55    57    1
    77    17    18    1
    78    44    45    2
    79    44    43    1
    80    87    88    1
    81    89    90    2
    82    89    88    1
    83    20    18   am
    84    18    19    2
    85    88    91    1
    86    92    91    1
    87    43    42    1
    88   105   104    1
    89   104   101    1
    90    91    93    1
    91   101   100    1
    92   101   102    1
    93   103   102    2
    94   100    96   am
    95    99    98    1
    96    94    95    1
    97    96    95    1
    98    96    97    2
    99    98    95    1
