@<TRIPOS>MOLECULE
tmp/5x30D01.pdb
 162 151 0 0 0
SMALL
GASTEIGER

@<TRIPOS>ATOM
      1  N         49.2340    4.5020  -40.9220 N.3    88  SER88      -0.1202
      2  CA        48.4900    4.3060  -42.1610 C.3    88  SER88       0.2020
      3  C         49.1550    5.1020  -43.2800 C.2    88  SER88       0.2619
      4  O         49.9650    6.0210  -43.0220 O.2    88  SER88      -0.2717
      5  CB        47.0320    4.7460  -41.9670 C.3    88  SER88       0.2103
      6  OG        46.9460    6.1610  -41.8170 O.3    88  SER88      -0.2182
      7  N         48.7710    4.7990  -44.5220 N.am   89  GLY89      -0.1942
      8  CA        49.1320    5.6300  -45.6590 C.3    89  GLY89       0.2014
      9  C         48.6970    7.0790  -45.4710 C.2    89  GLY89       0.2638
     10  O         49.4760    8.0040  -45.7180 O.2    89  GLY89      -0.2714
     11  N         47.4760    7.2980  -44.9920 N.am   90  MET90      -0.1976
     12  CA        47.0670    8.6660  -44.6760 C.3    90  MET90       0.1605
     13  C         47.9630    9.2970  -43.6070 C.2    90  MET90       0.2287
     14  O         48.2950   10.4740  -43.7050 O.2    90  MET90      -0.2864
     15  CB        45.5980    8.7610  -44.2830 C.3    90  MET90       0.0413
     16  CG        44.6800    8.4740  -45.4510 C.3    90  MET90       0.0598
     17  SD        44.9460    9.5380  -46.8920 S.3    90  MET90      -0.1393
     18  CE        44.7310   11.1090  -46.0850 C.3    90  MET90       0.0692
     19  N         51.0420   10.4960  -45.4530 N.3    93  ILE93      -0.1245
     20  CA        50.7500   11.6460  -46.3220 C.3    93  ILE93       0.1561
     21  C         50.5520   12.8990  -45.4850 C.2    93  ILE93       0.2260
     22  O         51.1560   13.9480  -45.7650 O.2    93  ILE93      -0.2867
     23  CB        49.5000   11.3680  -47.1880 C.3    93  ILE93       0.0252
     24  CG1       49.8450   10.2600  -48.2050 C.3    93  ILE93       0.0019
     25  CG2       49.0090   12.6460  -47.8750 C.3    93  ILE93       0.0019
     26  CD1       48.6330    9.5930  -48.8240 C.3    93  ILE93       0.0001
     27  N         43.9000    9.8460  -54.8050 N.3   114  TYR114     -0.1241
     28  CA        43.1460    9.0230  -53.8720 C.3   114  TYR114      0.1605
     29  C         42.1440    9.9120  -53.1370 C.2   114  TYR114      0.2264
     30  O         42.4700   11.0480  -52.7840 O.2   114  TYR114     -0.2867
     31  CB        44.1200    8.3860  -52.8820 C.3   114  TYR114      0.0534
     32  CG        43.4530    7.6080  -51.7900 C.ar  114  TYR114     -0.0201
     33  CD1       42.6140    6.5420  -52.0970 C.ar  114  TYR114     -0.0009
     34  CD2       43.6520    7.9330  -50.4420 C.ar  114  TYR114     -0.0009
     35  CE1       41.9860    5.8280  -51.0990 C.ar  114  TYR114      0.0417
     36  CE2       43.0290    7.2220  -49.4390 C.ar  114  TYR114      0.0417
     37  CZ        42.2020    6.1690  -49.7620 C.ar  114  TYR114      0.1957
     38  OH        41.5990    5.4610  -48.7440 O.3   114  TYR114     -0.2866
     39  N         40.6720   10.1240  -50.1160 N.3   116  HIS116     -0.1241
     40  CA        40.9990   10.7450  -48.8280 C.3   116  HIS116      0.1621
     41  C         42.1620   11.7150  -48.9160 C.2   116  HIS116      0.2264
     42  O         42.2450   12.5980  -48.1400 O.2   116  HIS116     -0.2867
     43  CB        41.1820    9.7620  -47.6760 C.3   116  HIS116      0.0745
     44  CG        40.0250    8.8640  -47.4820 C.ar  116  HIS116      0.0817
     45  ND1       38.7460    9.2620  -47.7560 N.ar  116  HIS116     -0.2268
     46  CD2       39.9420    7.6030  -47.0320 C.ar  116  HIS116      0.1154
     47  CE1       37.9220    8.2640  -47.5100 C.ar  116  HIS116      0.1986
     48  NE2       38.6260    7.2550  -47.0510 N.ar  116  HIS116     -0.2212
     49  N         50.5430   11.0530  -57.3550 N.3   157  GLU157     -0.1245
     50  CA        50.6360    9.6030  -57.4060 C.3   157  GLU157      0.1567
     51  C         51.0230    9.2420  -58.8260 C.2   157  GLU157      0.2260
     52  O         50.5510    9.8730  -59.7700 O.2   157  GLU157     -0.2867
     53  CB        49.2870    8.9530  -57.0930 C.3   157  GLU157      0.0388
     54  CG        48.6980    9.3130  -55.7410 C.3   157  GLU157      0.1160
     55  CD        47.1920    9.2250  -55.6800 C.2   157  GLU157      0.3649
     56  OE1       46.5720    8.5430  -56.5380 O.co2 157  GLU157     -0.2457
     57  OE2       46.6200    9.8400  -54.7530 O.co2 157  GLU157     -0.2457
     58  N         45.5300    6.8270  -58.6240 N.3   161  ASN161     -0.1240
     59  CA        44.3200    6.1220  -58.2120 C.3   161  ASN161      0.1653
     60  C         43.1400    6.9950  -58.6590 C.2   161  ASN161      0.2266
     61  O         43.0810    8.1430  -58.2080 O.2   161  ASN161     -0.2867
     62  CB        44.3410    5.9940  -56.6730 C.3   161  ASN161      0.1155
     63  CG        43.3410    4.9840  -56.1350 C.2   161  ASN161      0.2627
     64  OD1       42.2800    4.7660  -56.7310 O.2   161  ASN161     -0.2716
     65  ND2       43.6860    4.3420  -54.9940 N.am  161  ASN161     -0.0877
     66  N         53.5890    9.5680  -54.2350 N.3   186  ASP186     -0.1239
     67  CA        52.9090    8.4010  -53.6800 C.3   186  ASP186      0.1674
     68  C         53.2080    7.2200  -54.6060 C.2   186  ASP186      0.2266
     69  O         52.7280    7.1410  -55.7380 O.2   186  ASP186     -0.2867
     70  CB        51.4150    8.6810  -53.5080 C.3   186  ASP186      0.1410
     71  CG        50.6550    7.5390  -52.8740 C.2   186  ASP186      0.3668
     72  OD1       51.1720    6.4060  -52.8660 O.co2 186  ASP186     -0.2456
     73  OD2       49.5410    7.8010  -52.3480 O.co2 186  ASP186     -0.2456
     74  N         52.6060    3.9490  -53.8850 N.3   188  THR188     -0.1203
     75  CA        51.8260    2.7970  -53.4070 C.3   188  THR188      0.1994
     76  C         51.6110    1.7430  -54.4830 C.2   188  THR188      0.2617
     77  O         51.8380    0.5510  -54.2660 O.2   188  THR188     -0.2717
     78  CB        50.4610    3.2700  -52.8450 C.3   188  THR188      0.1784
     79  OG1       50.6520    4.1210  -51.7070 O.3   188  THR188     -0.2211
     80  CG2       49.5560    2.1000  -52.4540 C.3   188  THR188      0.0376
     81  N         51.1520    2.1710  -55.6530 N.am  189  TYR189     -0.1975
     82  CA        50.7750    1.2150  -56.6990 C.3   189  TYR189      0.1639
     83  C         51.9310    0.3430  -57.1920 C.2   189  TYR189      0.2290
     84  O         51.7420   -0.8290  -57.4370 O.2   189  TYR189     -0.2864
     85  CB        50.1460    1.9490  -57.8820 C.3   189  TYR189      0.0560
     86  CG        48.6460    2.1600  -57.7930 C.ar  189  TYR189     -0.0198
     87  CD1       47.9820    2.2800  -56.5580 C.ar  189  TYR189     -0.0009
     88  CD2       47.8790    2.2180  -58.9630 C.ar  189  TYR189     -0.0009
     89  CE1       46.6040    2.4660  -56.5010 C.ar  189  TYR189      0.0417
     90  CE2       46.4980    2.4020  -58.9100 C.ar  189  TYR189      0.0417
     91  CZ        45.8680    2.5350  -57.6840 C.ar  189  TYR189      0.1957
     92  OH        44.4970    2.7120  -57.6470 O.3   189  TYR189     -0.2866
     93  N         50.9850    3.8360  -48.9200 N.3   208  SER208     -0.1217
     94  CA        50.0790    3.0140  -48.1310 C.3   208  SER208      0.1889
     95  C         50.6220    1.5820  -48.1160 C.2   208  SER208      0.2288
     96  O         50.4290    0.8240  -49.0770 O.2   208  SER208     -0.2866
     97  CB        48.6660    3.0460  -48.6890 C.3   208  SER208      0.2089
     98  OG        47.8610    2.1360  -47.9690 O.3   208  SER208     -0.2183
     99  N         49.6550   -0.6570  -46.2400 N.3   210  THR210     -0.1203
    100  CA        48.4250   -1.4520  -46.2040 C.3   210  THR210      0.1994
    101  C         48.1920   -2.3060  -47.4430 C.2   210  THR210      0.2617
    102  O         47.5380   -3.3520  -47.3630 O.2   210  THR210     -0.2717
    103  CB        47.2470   -0.4550  -46.0650 C.3   210  THR210      0.1784
    104  OG1       47.5260    0.4330  -44.9820 O.3   210  THR210     -0.2211
    105  CG2       45.9200   -1.1370  -45.7880 C.3   210  THR210      0.0376
    106  N         48.6830   -1.8330  -48.5860 N.am  211  LYS211     -0.1979
    107  CA        48.4450   -2.4610  -49.8820 C.3   211  LYS211      0.1596
    108  C         49.5400   -3.4980  -50.1890 C.2   211  LYS211      0.2287
    109  O         49.7170   -4.4190  -49.3930 O.2   211  LYS211     -0.2864
    110  CB        48.3100   -1.3770  -50.9500 C.3   211  LYS211      0.0298
    111  CG        47.4030   -0.2100  -50.6020 C.3   211  LYS211      0.0038
    112  CD        46.0750   -0.6670  -50.0680 C.3   211  LYS211      0.0206
    113  CE        45.2150    0.5480  -49.8280 C.3   211  LYS211      0.1093
    114  NZ        44.0930    0.2490  -48.9040 N.3   211  LYS211     -0.1314
    115  N         47.1410   -2.0520  -41.3170 N.3   220  THR220     -0.1218
    116  CA        47.0940   -0.7150  -41.8890 C.3   220  THR220      0.1862
    117  C         48.4410   -0.0820  -41.5260 C.2   220  THR220      0.2287
    118  O         48.8620   -0.1650  -40.3990 O.2   220  THR220     -0.2866
    119  CB        45.8790    0.0740  -41.3520 C.3   220  THR220      0.1770
    120  OG1       44.6800   -0.6600  -41.6420 O.3   220  THR220     -0.2211
    121  CG2       45.7650    1.4340  -41.9850 C.3   220  THR220      0.0375
    122  N         36.8160   -2.4230  -51.4680 N.3   339  VAL339     -0.1231
    123  CA        37.8390   -1.3930  -51.6810 C.3   339  VAL339      0.1692
    124  C         39.1620   -1.9500  -51.1920 C.2   339  VAL339      0.2593
    125  O         39.2120   -3.0300  -50.5660 O.2   339  VAL339     -0.2718
    126  CB        37.5140   -0.0340  -50.9960 C.3   339  VAL339      0.0266
    127  CG1       36.1640    0.4780  -51.4580 C.3   339  VAL339      0.0020
    128  CG2       37.5990   -0.0840  -49.4610 C.3   339  VAL339      0.0020
    129  N         40.2230   -1.2340  -51.5180 N.am  340  SER340     -0.1938
    130  CA        41.6140   -1.6370  -51.2740 C.3   340  SER340      0.2055
    131  C         42.2150   -2.3260  -52.4940 C.2   340  SER340      0.2642
    132  O         41.5880   -2.4930  -53.5340 O.2   340  SER340     -0.2714
    133  CB        41.8160   -2.4980  -50.0080 C.3   340  SER340      0.2130
    134  OG        43.1540   -2.3710  -49.5710 O.3   340  SER340     -0.2179
    135  N         43.4800   -2.6850  -52.3550 N.am  341  LEU341     -0.1977
    136  CA        44.2450   -3.2610  -53.4190 C.3   341  LEU341      0.1596
    137  C         45.5110   -3.8560  -52.8350 C.2   341  LEU341      0.2287
    138  O         45.8650   -3.6110  -51.6850 O.2   341  LEU341     -0.2864
    139  CB        44.5940   -2.2070  -54.4350 C.3   341  LEU341      0.0297
    140  CG        45.4630   -1.0640  -53.9100 C.3   341  LEU341      0.0022
    141  CD1       46.8330   -1.1420  -54.5400 C.3   341  LEU341      0.0001
    142  CD2       44.8120    0.2770  -54.1700 C.3   341  LEU341      0.0001
    143  N         35.9000   -3.2970  -57.6950 N.3   349  GLN349     -0.1245
    144  CA        34.9140   -2.2410  -57.3610 C.3   349  GLN349      0.1566
    145  C         34.3180   -1.6580  -58.6640 C.2   349  GLN349      0.2260
    146  O         35.0290   -1.5310  -59.6700 O.2   349  GLN349     -0.2867
    147  CB        35.4910   -1.1530  -56.4310 C.3   349  GLN349      0.0367
    148  CG        36.7510   -0.4200  -56.9040 C.3   349  GLN349      0.0905
    149  CD        37.0810    0.8720  -56.1250 C.2   349  GLN349      0.2608
    150  OE1       36.4290    1.2280  -55.1430 O.2   349  GLN349     -0.2717
    151  NE2       38.1040    1.5850  -56.5870 N.am  349  GLN349     -0.0878
    152  N         37.2540   -1.2630  -61.5830 N.3   375  ARG375     -0.1245
    153  CA        38.6700   -1.3400  -61.1980 C.3   375  ARG375      0.1563
    154  C         38.8880   -2.7160  -60.5790 C.2   375  ARG375      0.2260
    155  O         38.0900   -3.1440  -59.7170 O.2   375  ARG375     -0.2867
    156  CB        39.0570   -0.2490  -60.1830 C.3   375  ARG375      0.0307
    157  CG        40.5800   -0.1570  -59.9290 C.3   375  ARG375      0.0489
    158  CD        41.0050    0.7580  -58.7730 C.3   375  ARG375      0.2205
    159  NE        40.8720    0.1360  -57.4490 N.pl3 375  ARG375     -0.0865
    160  CZ        41.2340    0.6920  -56.2900 C.cat 375  ARG375      0.5346
    161  NH1       41.7650    1.9090  -56.2460 N.pl3 375  ARG375      0.1354
    162  NH2       41.0520    0.0240  -55.1520 N.pl3 375  ARG375      0.1354
@<TRIPOS>BOND
     1   152   153    1
     2   153   154    1
     3   153   156    1
     4   154   155    2
     5   156   157    1
     6   157   158    1
     7    52    51    2
     8   146   145    2
     9    88    90   ar
    10    88    86   ar
    11    90    91   ar
    12    51    50    1
    13   158   159    1
    14   145   144    1
    15    60    59    1
    16    60    61    2
    17    58    59    1
    18    59    62    1
    19    85    86    1
    20    85    82    1
    21    86    87   ar
    22   143   144    1
    23    91    92    1
    24    91    89   ar
    25   159   160    2
    26    84    83    2
    27    50    49    1
    28    50    53    1
    29   144   147    1
    30    83    82    1
    31    53    54    1
    32   148   147    1
    33   148   149    1
    34    64    63    2
    35    82    81    1
    36    62    63    1
    37   151   149   am
    38    87    89   ar
    39    56    55   ar
    40   160   161    1
    41   160   162    1
    42    63    65   am
    43   149   150    2
    44    54    55    1
    45    69    68    2
    46    55    57   ar
    47    81    76   am
    48    27    28    1
    49    68    67    1
    50   141   140    1
    51    76    77    2
    52    76    75    1
    53   139   140    1
    54   139   136    1
    55    66    67    1
    56   142   140    1
    57    74    75    1
    58    28    29    1
    59    28    31    1
    60    67    70    1
    61   132   131    2
    62    70    71    1
    63   136   137    1
    64   136   135    1
    65    75    78    1
    66    29    30    2
    67    31    32    1
    68    71    72   ar
    69    71    73   ar
    70    78    80    1
    71    78    79    1
    72   137   138    2
    73   131   135   am
    74   131   130    1
    75    33    32   ar
    76    33    35   ar
    77    32    34   ar
    78   123   122    1
    79   123   124    1
    80   123   126    1
    81   129   130    1
    82   129   124   am
    83   127   126    1
    84   130   133    1
    85   124   125    2
    86    35    37   ar
    87   126   128    1
    88   110   111    1
    89   110   107    1
    90   111   112    1
    91    34    36   ar
    92   108   107    1
    93   108   109    2
    94    39    40    1
    95   112   113    1
    96   133   134    1
    97   107   106    1
    98   113   114    1
    99    37    36   ar
   100    37    38    1
   101    96    95    2
   102    93    94    1
   103    41    40    1
   104    41    42    2
   105    40    43    1
   106    26    24    1
   107    97    94    1
   108    97    98    1
   109   106   101   am
   110    24    23    1
   111    94    95    1
   112    25    23    1
   113    45    47   ar
   114    45    44   ar
   115    43    44    1
   116    47    48   ar
   117    44    46   ar
   118   101   102    2
   119   101   100    1
   120    23    20    1
   121    48    46   ar
   122    17    18    1
   123    17    16    1
   124    20    21    1
   125    20    19    1
   126    99   100    1
   127   100   103    1
   128   103   105    1
   129   103   104    1
   130    22    21    2
   131    10     9    2
   132     8     9    1
   133     8     7    1
   134     9    11   am
   135    16    15    1
   136    11    12    1
   137    12    15    1
   138    12    13    1
   139     7     3   am
   140    14    13    2
   141     3     4    2
   142     3     2    1
   143     2     5    1
   144     2     1    1
   145   121   119    1
   146     5     6    1
   147   116   117    1
   148   116   119    1
   149   116   115    1
   150   120   119    1
   151   117   118    2
