@<TRIPOS>MOLECULE
tmp/5x33A00.pdb
 215 204 0 0 0
SMALL
GASTEIGER

@<TRIPOS>ATOM
      1  N        120.9990  165.5330  281.6930 N.3     5  ILE5       -0.1231
      2  CA       120.3480  166.7190  282.2490 C.3     5  ILE5        0.1678
      3  C        120.0020  167.7220  281.1620 C.2     5  ILE5        0.2434
      4  O        118.8620  168.2250  281.1560 O.2     5  ILE5       -0.2733
      5  CB       121.2230  167.3210  283.3760 C.3     5  ILE5        0.0265
      6  CG1      121.0310  166.5450  284.6800 C.3     5  ILE5        0.0019
      7  CG2      120.9040  168.7970  283.5700 C.3     5  ILE5        0.0020
      8  CD1      119.9730  167.1290  285.6030 C.3     5  ILE5        0.0001
      9  N        120.8870  168.0570  280.2120 N.am    6  PRO6       -0.2729
     10  CA       120.4270  168.8410  279.0540 C.3     6  PRO6        0.1401
     11  C        119.3490  168.1350  278.2510 C.2     6  PRO6        0.2269
     12  O        118.4820  168.8000  277.6720 O.2     6  PRO6       -0.2865
     13  CB       121.7080  169.0460  278.2320 C.3     6  PRO6        0.0296
     14  CG       122.8100  168.9400  279.2270 C.3     6  PRO6        0.0237
     15  CD       122.3560  167.8950  280.2040 C.3     6  PRO6        0.0939
     16  N        116.0590  168.7060  280.3230 N.3     9  ALA9       -0.1245
     17  CA       115.5710  170.0790  280.3060 C.3     9  ALA9        0.1562
     18  C        115.0600  170.4980  278.9350 C.2     9  ALA9        0.2260
     19  O        114.3130  171.4770  278.8430 O.2     9  ALA9       -0.2867
     20  CB       116.6690  171.0360  280.7700 C.3     9  ALA9        0.0290
     21  N        110.8610  171.6860  278.4370 N.3    13  LEU13      -0.1245
     22  CA       110.6780  172.9910  277.8140 C.3    13  LEU13       0.1561
     23  C        109.9590  172.8800  276.4800 C.2    13  LEU13       0.2260
     24  O        109.2850  173.8260  276.0660 O.2    13  LEU13      -0.2867
     25  CB       112.0280  173.6860  277.6240 C.3    13  LEU13       0.0270
     26  CG       112.4620  174.7120  278.6760 C.3    13  LEU13       0.0019
     27  CD1      112.5350  174.0710  280.0540 C.3    13  LEU13       0.0001
     28  CD2      113.7970  175.3510  278.3050 C.3    13  LEU13       0.0001
     29  N        101.4210  183.5430  282.1980 N.3    52  ASP52      -0.1239
     30  CA       101.9960  182.2350  281.9070 C.3    52  ASP52       0.1674
     31  C        102.3340  182.0990  280.4350 C.2    52  ASP52       0.2266
     32  O        103.2160  181.3170  280.0660 O.2    52  ASP52      -0.2867
     33  CB       101.0300  181.1240  282.3310 C.3    52  ASP52       0.1410
     34  CG       100.8820  181.0180  283.8390 C.2    52  ASP52       0.3668
     35  OD1      101.5410  181.7960  284.5600 O.co2  52  ASP52      -0.2456
     36  OD2      100.1070  180.1540  284.3040 O.co2  52  ASP52      -0.2456
     37  N        106.0110  183.7910  279.6360 N.3    55  VAL55      -0.1245
     38  CA       107.1520  182.9480  279.9900 C.3    55  VAL55       0.1561
     39  C        107.4510  181.9560  278.8770 C.2    55  VAL55       0.2260
     40  O        108.6140  181.7170  278.5300 O.2    55  VAL55      -0.2867
     41  CB       106.8980  182.2170  281.3190 C.3    55  VAL55       0.0252
     42  CG1      107.7020  180.9160  281.3660 C.3    55  VAL55       0.0019
     43  CG2      107.2690  183.0990  282.4640 C.3    55  VAL55       0.0019
     44  N        115.7800  179.6820  275.2260 N.3    62  PHE62      -0.1241
     45  CA       116.5710  178.8490  276.1200 C.3    62  PHE62       0.1605
     46  C        116.8550  177.4960  275.4820 C.2    62  PHE62       0.2264
     47  O        117.9390  176.9330  275.6660 O.2    62  PHE62      -0.2867
     48  CB       115.8540  178.6780  277.4600 C.3    62  PHE62       0.0534
     49  CG       115.7910  179.9330  278.2910 C.ar   62  PHE62      -0.0203
     50  CD1      115.9720  181.1860  277.7270 C.ar   62  PHE62      -0.0042
     51  CD2      115.5570  179.8510  279.6480 C.ar   62  PHE62      -0.0042
     52  CE1      115.9090  182.3270  278.4990 C.ar   62  PHE62      -0.0003
     53  CE2      115.4950  180.9890  280.4190 C.ar   62  PHE62      -0.0003
     54  CZ       115.6730  182.2290  279.8470 C.ar   62  PHE62      -0.0000
     55  N        119.6480  178.2160  273.1970 N.3    65  PHE65      -0.1227
     56  CA       120.8270  178.3350  274.0500 C.3    65  PHE65       0.1736
     57  C        121.2290  176.9850  274.6300 C.2    65  PHE65       0.2595
     58  O        122.4160  176.7420  274.8740 O.2    65  PHE65      -0.2718
     59  CB       120.5490  179.3590  275.1600 C.3    65  PHE65       0.0547
     60  CG       121.6550  179.4940  276.1930 C.ar   65  PHE65      -0.0202
     61  CD1      122.9910  179.5720  275.8180 C.ar   65  PHE65      -0.0042
     62  CD2      121.3420  179.5920  277.5480 C.ar   65  PHE65      -0.0042
     63  CE1      123.9920  179.7080  276.7770 C.ar   65  PHE65      -0.0003
     64  CE2      122.3390  179.7330  278.5050 C.ar   65  PHE65      -0.0003
     65  CZ       123.6620  179.7910  278.1180 C.ar   65  PHE65      -0.0000
     66  N        120.2620  176.0840  274.8230 N.am   66  LEU66      -0.1980
     67  CA       120.5630  174.7740  275.3890 C.3    66  LEU66       0.1596
     68  C        121.3250  173.8890  274.4090 C.2    66  LEU66       0.2287
     69  O        122.1100  173.0330  274.8310 O.2    66  LEU66      -0.2864
     70  CB       119.2680  174.0830  275.8200 C.3    66  LEU66       0.0297
     71  CG       119.3690  173.0550  276.9450 C.3    66  LEU66       0.0022
     72  CD1      119.8790  173.7370  278.1810 C.3    66  LEU66       0.0001
     73  CD2      118.0220  172.4040  277.2130 C.3    66  LEU66       0.0001
     74  N        115.4060  186.7760  281.5260 N.3    82  HIS82      -0.1241
     75  CA       115.2630  186.5300  282.9510 C.3    82  HIS82       0.1621
     76  C        114.3190  187.5320  283.6030 C.2    82  HIS82       0.2264
     77  O        113.6310  187.1920  284.5720 O.2    82  HIS82      -0.2867
     78  CB       116.6360  186.5470  283.6130 C.3    82  HIS82       0.0745
     79  CG       117.4970  185.3900  283.2190 C.ar   82  HIS82       0.0817
     80  ND1      118.8240  185.5280  282.8780 N.ar   82  HIS82      -0.2268
     81  CD2      117.2150  184.0720  283.1040 C.ar   82  HIS82       0.1154
     82  CE1      119.3260  184.3440  282.5790 C.ar   82  HIS82       0.1986
     83  NE2      118.3690  183.4420  282.7070 N.ar   82  HIS82      -0.2212
     84  N        110.9220  186.2570  282.7060 N.3    85  CYS85      -0.1235
     85  CA       110.7130  185.0960  283.5600 C.3    85  CYS85       0.1677
     86  C        110.5350  185.5130  285.0120 C.2    85  CYS85       0.2270
     87  O        109.7010  184.9570  285.7340 O.2    85  CYS85      -0.2867
     88  CB       111.8930  184.1390  283.4280 C.3    85  CYS85       0.0956
     89  SG       111.9740  183.2620  281.8450 S.3    85  CYS85      -0.0801
     90  N        106.8540  186.9940  285.7270 N.3    88  SER88      -0.1202
     91  CA       105.7250  186.0660  285.7290 C.3    88  SER88       0.2020
     92  C        105.6910  185.2760  287.0270 C.2    88  SER88       0.2618
     93  O        104.6120  185.0810  287.5960 O.2    88  SER88      -0.2717
     94  CB       105.7570  185.1720  284.5190 C.3    88  SER88       0.2103
     95  OG       105.4580  185.8940  283.3370 O.3    88  SER88      -0.2182
     96  N        106.8560  184.8530  287.5410 N.am   89  MET89      -0.1979
     97  CA       106.8670  184.1850  288.8390 C.3    89  MET89       0.1605
     98  C        106.2160  185.0610  289.8940 C.2    89  MET89       0.2287
     99  O        105.3950  184.5990  290.6970 O.2    89  MET89      -0.2864
    100  CB       108.2810  183.8440  289.2590 C.3    89  MET89       0.0413
    101  CG       108.2920  183.3050  290.7400 C.3    89  MET89       0.0598
    102  SD       109.8780  183.0220  291.5770 S.3    89  MET89      -0.1393
    103  CE       110.5010  184.6950  291.7060 C.3    89  MET89       0.0692
    104  N        102.4940  185.6920  288.8740 N.3    92  SER92      -0.1217
    105  CA       101.6890  184.4820  289.0340 C.3    92  SER92       0.1889
    106  C        101.4470  184.1680  290.5010 C.2    92  SER92       0.2288
    107  O        100.3280  183.8140  290.8860 O.2    92  SER92      -0.2866
    108  CB       102.3510  183.2860  288.3550 C.3    92  SER92       0.2089
    109  OG       102.2120  183.3380  286.9470 O.3    92  SER92      -0.2183
    110  N        124.8230  184.0460  282.7960 N.3   157  LEU157     -0.1245
    111  CA       124.1720  183.7550  284.0670 C.3   157  LEU157      0.1561
    112  C        124.4550  184.9380  284.9830 C.2   157  LEU157      0.2260
    113  O        125.1490  185.8880  284.6060 O.2   157  LEU157     -0.2867
    114  CB       124.6470  182.4240  284.6790 C.3   157  LEU157      0.0270
    115  CG       123.8360  181.7880  285.8290 C.3   157  LEU157      0.0019
    116  CD1      122.3400  181.7600  285.5200 C.3   157  LEU157      0.0001
    117  CD2      124.3370  180.3890  286.1960 C.3   157  LEU157      0.0001
    118  N        101.0440  174.4580  291.1460 N.3   386  PHE386     -0.1241
    119  CA       102.0330  175.5250  291.1970 C.3   386  PHE386      0.1605
    120  C        103.0700  175.2520  292.2800 C.2   386  PHE386      0.2264
    121  O        104.2780  175.2830  292.0190 O.2   386  PHE386     -0.2867
    122  CB       101.3370  176.8660  291.4310 C.3   386  PHE386      0.0534
    123  CG       102.2100  178.0560  291.1660 C.ar  386  PHE386     -0.0203
    124  CD1      103.1470  178.4650  292.0990 C.ar  386  PHE386     -0.0042
    125  CD2      102.0930  178.7690  289.9840 C.ar  386  PHE386     -0.0042
    126  CE1      103.9540  179.5560  291.8590 C.ar  386  PHE386     -0.0003
    127  CE2      102.8960  179.8640  289.7390 C.ar  386  PHE386     -0.0003
    128  CZ       103.8280  180.2580  290.6790 C.ar  386  PHE386     -0.0000
    129  N        107.2590  174.6840  291.9020 N.3   390  TRP390     -0.1241
    130  CA       108.1430  175.7730  292.2770 C.3   390  TRP390      0.1605
    131  C        108.8640  175.5290  293.5920 C.2   390  TRP390      0.2264
    132  O        109.7320  176.3230  293.9680 O.2   390  TRP390     -0.2867
    133  CB       107.3470  177.0740  292.3500 C.3   390  TRP390      0.0550
    134  CG       107.0820  177.6560  291.0080 C.ar  390  TRP390      0.0003
    135  CD1      106.0190  177.3990  290.1890 C.ar  390  TRP390      0.0946
    136  CD2      107.9060  178.5960  290.3160 C.ar  390  TRP390      0.0152
    137  NE1      106.1300  178.1310  289.0290 N.ar  390  TRP390     -0.2442
    138  CE2      107.2820  178.8730  289.0850 C.ar  390  TRP390      0.0810
    139  CE3      109.1140  179.2360  290.6210 C.ar  390  TRP390      0.0012
    140  CZ2      107.8240  179.7600  288.1600 C.ar  390  TRP390      0.0191
    141  CZ3      109.6570  180.1120  289.6930 C.ar  390  TRP390      0.0001
    142  CH2      109.0070  180.3690  288.4810 C.ar  390  TRP390      0.0015
    143  N        112.7070  174.3160  292.8480 N.3   393  TYR393     -0.1241
    144  CA       113.6160  175.3990  292.4960 C.3   393  TYR393      0.1605
    145  C        113.9940  176.2180  293.7220 C.2   393  TYR393      0.2264
    146  O        115.1700  176.5410  293.9230 O.2   393  TYR393     -0.2867
    147  CB       112.9960  176.2910  291.4210 C.3   393  TYR393      0.0534
    148  CG       113.7300  177.6010  291.2570 C.ar  393  TYR393     -0.0201
    149  CD1      115.0870  177.6240  290.9650 C.ar  393  TYR393     -0.0009
    150  CD2      113.0720  178.8140  291.4030 C.ar  393  TYR393     -0.0009
    151  CE1      115.7720  178.8180  290.8230 C.ar  393  TYR393      0.0417
    152  CE2      113.7500  180.0170  291.2580 C.ar  393  TYR393      0.0417
    153  CZ       115.1010  180.0090  290.9660 C.ar  393  TYR393      0.1957
    154  OH       115.7890  181.1920  290.8250 O.3   393  TYR393     -0.2866
    155  N        124.0850  173.3650  290.8140 N.3   415  ARG415     -0.1245
    156  CA       123.7360  173.8750  289.4930 C.3   415  ARG415      0.1563
    157  C        123.3080  172.7530  288.5540 C.2   415  ARG415      0.2260
    158  O        122.4480  172.9660  287.6950 O.2   415  ARG415     -0.2867
    159  CB       124.8990  174.6590  288.8900 C.3   415  ARG415      0.0307
    160  CG       124.5150  175.4480  287.6400 C.3   415  ARG415      0.0489
    161  CD       123.9190  176.8140  287.9790 C.3   415  ARG415      0.2205
    162  NE       122.6570  177.0740  287.2880 N.pl3 415  ARG415     -0.0865
    163  CZ       122.5490  177.3690  285.9940 C.cat 415  ARG415      0.5346
    164  NH1      123.6290  177.4290  285.2280 N.pl3 415  ARG415      0.1354
    165  NH2      121.3550  177.5940  285.4620 N.pl3 415  ARG415      0.1354
    166  N        119.4680  172.8650  287.5450 N.3   419  LYS419     -0.1245
    167  CA       119.1050  172.9000  286.1300 C.3   419  LYS419      0.1561
    168  C        117.7490  172.2520  285.8780 C.2   419  LYS419      0.2260
    169  O        116.9360  172.7790  285.1110 O.2   419  LYS419     -0.2867
    170  CB       120.1840  172.2090  285.2940 C.3   419  LYS419      0.0271
    171  CG       121.3340  173.1040  284.8550 C.3   419  LYS419      0.0035
    172  CD       122.4570  172.2750  284.2380 C.3   419  LYS419      0.0206
    173  CE       123.7420  173.0830  284.0780 C.3   419  LYS419      0.1093
    174  NZ       124.8290  172.3050  283.4090 N.3   419  LYS419     -0.1314
    175  N        114.9620  174.1820  287.9620 N.3   422  ILE422     -0.1231
    176  CA       114.7140  175.4060  287.2050 C.3   422  ILE422      0.1692
    177  C        113.9440  175.0980  285.9210 C.2   422  ILE422      0.2591
    178  O        113.0890  175.8820  285.4890 O.2   422  ILE422     -0.2718
    179  CB       116.0520  176.1200  286.9180 C.3   422  ILE422      0.0266
    180  CG1      116.2210  177.3770  287.7720 C.3   422  ILE422      0.0019
    181  CG2      116.1980  176.4420  285.4610 C.3   422  ILE422      0.0020
    182  CD1      117.4520  178.2010  287.4160 C.3   422  ILE422      0.0001
    183  N        114.2300  173.9530  285.2950 N.am  423  ALA423     -0.1980
    184  CA       113.5590  173.5650  284.0570 C.3   423  ALA423      0.1597
    185  C        112.2390  172.8470  284.2980 C.2   423  ALA423      0.2287
    186  O        111.3280  172.9560  283.4700 O.2   423  ALA423     -0.2864
    187  CB       114.4720  172.6750  283.2150 C.3   423  ALA423      0.0319
    188  N        110.1300  173.7380  286.5500 N.3   425  ALA425     -0.1231
    189  CA       109.1750  174.8110  286.7940 C.3   425  ALA425      0.1694
    190  C        108.6060  175.4050  285.5140 C.2   425  ALA425      0.2592
    191  O        107.6380  176.1680  285.5880 O.2   425  ALA425     -0.2718
    192  CB       109.8310  175.9140  287.6260 C.3   425  ALA425      0.0304
    193  N        109.1740  175.0810  284.3500 N.am  426  PHE426     -0.1976
    194  CA       108.6360  175.5710  283.0860 C.3   426  PHE426      0.1639
    195  C        107.3420  174.8760  282.6850 C.2   426  PHE426      0.2290
    196  O        106.8030  175.1810  281.6160 O.2   426  PHE426     -0.2864
    197  CB       109.6820  175.4210  281.9760 C.3   426  PHE426      0.0560
    198  CG       110.6200  176.5910  281.8690 C.ar  426  PHE426     -0.0200
    199  CD1      111.6390  176.7650  282.7920 C.ar  426  PHE426     -0.0042
    200  CD2      110.4790  177.5220  280.8510 C.ar  426  PHE426     -0.0042
    201  CE1      112.5000  177.8460  282.7030 C.ar  426  PHE426     -0.0003
    202  CE2      111.3380  178.6030  280.7540 C.ar  426  PHE426     -0.0003
    203  CZ       112.3480  178.7660  281.6820 C.ar  426  PHE426     -0.0000
    204  N        104.6530  174.7120  285.0370 N.3   428  SER428     -0.1202
    205  CA       103.5740  175.3550  285.7840 C.3   428  SER428      0.2020
    206  C        102.8220  176.3580  284.9240 C.2   428  SER428      0.2619
    207  O        101.6170  176.5600  285.1120 O.2   428  SER428     -0.2717
    208  CB       104.1290  176.0450  287.0330 C.3   428  SER428      0.2103
    209  OG       104.7040  177.3040  286.7170 O.3   428  SER428     -0.2182
    210  N        103.5160  177.0050  283.9880 N.am  429  SER429     -0.1951
    211  CA       102.8340  177.8570  283.0250 C.3   429  SER429      0.1924
    212  C        101.9010  177.0580  282.1300 C.2   429  SER429      0.2314
    213  O        100.9640  177.6260  281.5570 O.2   429  SER429     -0.2863
    214  CB       103.8580  178.6040  282.1770 C.3   429  SER429      0.2116
    215  OG       103.2230  179.2560  281.0960 O.3   429  SER429     -0.2180
@<TRIPOS>BOND
     1    55    56    1
     2    56    57    1
     3    56    59    1
     4    68    69    2
     5    68    67    1
     6    57    66   am
     7    57    58    2
     8    66    67    1
     9    59    60    1
    10    44    45    1
    11    67    70    1
    12    46    47    2
    13    46    45    1
    14    61    60   ar
    15    61    63   ar
    16    70    71    1
    17    24    23    2
    18    45    48    1
    19    60    62   ar
    20    23    22    1
    21    63    65   ar
    22    71    73    1
    23    71    72    1
    24    48    49    1
    25    62    64   ar
    26    25    22    1
    27    25    26    1
    28    12    11    2
    29    50    49   ar
    30    50    52   ar
    31    22    21    1
    32    65    64   ar
    33    13    10    1
    34    13    14    1
    35    11    10    1
    36    49    51   ar
    37    28    26    1
    38    52    54   ar
    39    40    39    2
    40    26    27    1
    41    19    18    2
    42    39    38    1
    43    18    17    1
    44    10     9    1
    45    14    15    1
    46    37    38    1
    47    51    53   ar
    48    54    53   ar
    49    38    41    1
    50    32    31    2
    51    15     9    1
    52     9     3   am
    53    17    16    1
    54    17    20    1
    55    31    30    1
    56   202   200   ar
    57   202   203   ar
    58   200   198   ar
    59   215   214    1
    60     4     3    2
    61     3     2    1
    62    41    42    1
    63    41    43    1
    64    74    75    1
    65   213   212    2
    66   196   195    2
    67   203   201   ar
    68     1     2    1
    69    89    88    1
    70   198   197    1
    71   198   199   ar
    72    30    29    1
    73    30    33    1
    74   197   194    1
    75   212   211    1
    76   214   211    1
    77     2     5    1
    78    33    34    1
    79    82    83   ar
    80    82    80   ar
    81   195   194    1
    82   201   199   ar
    83    84    85    1
    84    83    81   ar
    85   110   111    1
    86    80    79   ar
    87    75    76    1
    88    75    78    1
    89   211   210    1
    90   194   193    1
    91    81    79   ar
    92   187   184    1
    93    79    78    1
    94    95    94    1
    95     5     7    1
    96     5     6    1
    97   174   173    1
    98    88    85    1
    99   186   185    2
   100    85    86    1
   101    76    77    2
   102    34    36   ar
   103    34    35   ar
   104   210   206   am
   105   184   185    1
   106   184   183    1
   107   111   114    1
   108   111   112    1
   109   173   172    1
   110   172   171    1
   111   193   190   am
   112    94    91    1
   113   113   112    2
   114   114   115    1
   115     6     8    1
   116   171   170    1
   117   206   207    2
   118   206   205    1
   119    86    87    2
   120   204   205    1
   121   169   168    2
   122   164   163    1
   123   170   167    1
   124   183   177   am
   125   181   179    1
   126   165   163    1
   127   178   177    2
   128   190   191    2
   129   190   189    1
   130   116   115    1
   131    90    91    1
   132    91    92    1
   133   205   208    1
   134   115   117    1
   135   168   167    1
   136   177   176    1
   137   163   162    2
   138   167   166    1
   139   188   189    1
   140   209   208    1
   141   189   192    1
   142   179   176    1
   143   179   180    1
   144   109   108    1
   145    92    96   am
   146    92    93    2
   147   176   175    1
   148   162   161    1
   149   182   180    1
   150    96    97    1
   151   160   161    1
   152   160   159    1
   153   158   157    2
   154   140   142   ar
   155   140   138   ar
   156   108   105    1
   157   142   141   ar
   158   157   156    1
   159    97   100    1
   160    97    98    1
   161   104   105    1
   162   159   156    1
   163   137   138   ar
   164   137   135   ar
   165   105   106    1
   166   138   136   ar
   167   100   101    1
   168   156   155    1
   169   141   139   ar
   170   127   125   ar
   171   127   128   ar
   172    98    99    2
   173   125   123   ar
   174   135   134   ar
   175   136   139   ar
   176   136   134   ar
   177   106   107    2
   178   128   126   ar
   179   101   102    1
   180   151   149   ar
   181   151   153   ar
   182   154   153    1
   183   149   148   ar
   184   153   152   ar
   185   134   133    1
   186   118   119    1
   187   123   122    1
   188   123   124   ar
   189   119   122    1
   190   119   120    1
   191   148   150   ar
   192   148   147    1
   193   152   150   ar
   194   147   144    1
   195   102   103    1
   196   126   124   ar
   197   129   130    1
   198   121   120    2
   199   130   133    1
   200   130   131    1
   201   144   143    1
   202   144   145    1
   203   131   132    2
   204   145   146    2
