@<TRIPOS>MOLECULE
tmp/5x3dA00.pdb
 191 185 0 0 0
SMALL
GASTEIGER

@<TRIPOS>ATOM
      1  N          6.3860   20.9400    4.7970 N.3     7  VAL7       -0.1231
      2  CA         5.5230   21.8150    5.5870 C.3     7  VAL7        0.1692
      3  C          4.7300   22.7420    4.6410 C.2     7  VAL7        0.2593
      4  O          5.3050   23.6070    3.9990 O.2     7  VAL7       -0.2718
      5  CB         6.3570   22.6630    6.5610 C.3     7  VAL7        0.0266
      6  CG1        5.4810   23.5700    7.4100 C.3     7  VAL7        0.0020
      7  CG2        7.2220   21.7870    7.4670 C.3     7  VAL7        0.0020
      8  N          3.4220   22.5370    4.5650 N.am    8  GLY8       -0.1942
      9  CA         2.5630   23.3610    3.7580 C.3     8  GLY8        0.2014
     10  C          2.2620   24.6430    4.4850 C.2     8  GLY8        0.2639
     11  O          2.0040   24.6040    5.6790 O.2     8  GLY8       -0.2714
     12  N          2.2540   25.7670    3.7670 N.am    9  MET9       -0.1963
     13  CA         1.9420   27.0570    4.3630 C.3     9  MET9        0.1736
     14  C          1.3120   27.9910    3.3760 C.2     9  MET9        0.2617
     15  O          1.7540   28.0530    2.2350 O.2     9  MET9       -0.2715
     16  CB         3.2380   27.7450    4.8330 C.3     9  MET9        0.0427
     17  CG         4.0180   26.9410    5.8480 C.3     9  MET9        0.0599
     18  SD         5.3700   27.9050    6.5850 S.3     9  MET9       -0.1393
     19  CE         4.4710   29.0480    7.6110 C.3     9  MET9        0.0692
     20  N          0.3180   28.7410    3.8360 N.am   10  SER10      -0.1936
     21  CA        -0.0450   29.9550    3.1560 C.3    10  SER10       0.2055
     22  C          0.9980   31.0180    3.5650 C.2    10  SER10       0.2642
     23  O          1.6420   31.6230    2.7110 O.2    10  SER10      -0.2714
     24  CB        -1.4600   30.4160    3.4600 C.3    10  SER10       0.2130
     25  OG        -1.9980   29.8460    4.6330 O.3    10  SER10      -0.2179
     26  N          1.1750   31.2020    4.8710 N.am   11  ALA11      -0.1977
     27  CA         2.2320   32.1000    5.3880 C.3    11  ALA11       0.1597
     28  C          1.9990   33.5210    4.8970 C.2    11  ALA11       0.2287
     29  O          2.9370   34.1670    4.4160 O.2    11  ALA11      -0.2864
     30  CB         3.6370   31.6180    4.9530 C.3    11  ALA11       0.0319
     31  N          3.8980   34.5720   12.0860 N.3    15  HIS15      -0.1241
     32  CA         3.7600   34.8200   13.5190 C.3    15  HIS15       0.1621
     33  C          4.3120   33.6240   14.2920 C.2    15  HIS15       0.2264
     34  O          4.7590   32.6360   13.6620 O.2    15  HIS15      -0.2867
     35  CB         2.3060   35.1580   13.8470 C.3    15  HIS15       0.0745
     36  CG         1.3510   34.1110   13.4170 C.ar   15  HIS15       0.0817
     37  ND1        1.3400   32.8670   13.9930 N.ar   15  HIS15      -0.2268
     38  CD2        0.3770   34.1070   12.4760 C.ar   15  HIS15       0.1154
     39  CE1        0.4180   32.1240   13.4120 C.ar   15  HIS15       0.1986
     40  NE2       -0.1900   32.8550   12.4960 N.ar   15  HIS15      -0.2212
     41  N          3.1240   31.0490   15.8550 N.3    17  GLY17      -0.1210
     42  CA         2.5290   29.7470   15.4630 C.3    17  GLY17       0.1956
     43  C          3.3060   29.0930   14.3340 C.2    17  GLY17       0.2611
     44  O          3.6740   27.9310   14.4250 O.2    17  GLY17      -0.2717
     45  N          3.6080   29.8610   13.2910 N.am   18  HIS18      -0.1975
     46  CA         4.4260   29.3790   12.1670 C.3    18  HIS18       0.1656
     47  C          5.8240   28.9930   12.5840 C.2    18  HIS18       0.2291
     48  O          6.3550   27.9780   12.1550 O.2    18  HIS18      -0.2864
     49  CB         4.5200   30.4150   11.0800 C.3    18  HIS18       0.0771
     50  CG         3.1840   30.8490   10.5720 C.ar   18  HIS18       0.0820
     51  ND1        2.8530   32.1600   10.3930 N.ar   18  HIS18      -0.2267
     52  CD2        2.0710   30.1430   10.2680 C.ar   18  HIS18       0.1154
     53  CE1        1.6140   32.2560    9.9400 C.ar   18  HIS18       0.1986
     54  NE2        1.1160   31.0390    9.8550 N.ar   18  HIS18      -0.2212
     55  N          6.7570   28.0640   15.5380 N.3    20  ASN20      -0.1225
     56  CA         6.6190   26.8230   16.2930 C.3    20  ASN20       0.1785
     57  C          6.6020   25.6230   15.3570 C.2    20  ASN20       0.2597
     58  O          7.3560   24.6730   15.5480 O.2    20  ASN20      -0.2718
     59  CB         5.3700   26.8610   17.1780 C.3    20  ASN20       0.1169
     60  CG         5.3320   25.7070   18.1670 C.2    20  ASN20       0.2627
     61  OD1        6.3110   25.4460   18.8820 O.2    20  ASN20      -0.2716
     62  ND2        4.2160   24.9870   18.1980 N.am   20  ASN20      -0.0877
     63  N          5.7550   25.6740   14.3320 N.am   21  ILE21      -0.1980
     64  CA         5.7350   24.5880   13.3250 C.3    21  ILE21       0.1595
     65  C          7.0960   24.3510   12.7500 C.2    21  ILE21       0.2287
     66  O          7.5480   23.2160   12.6850 O.2    21  ILE21      -0.2864
     67  CB         4.7390   24.8720   12.1720 C.3    21  ILE21       0.0276
     68  CG1        3.3170   24.9000   12.7090 C.3    21  ILE21       0.0022
     69  CG2        4.8640   23.8620   11.0430 C.3    21  ILE21       0.0022
     70  CD1        2.8490   23.6010   13.3640 C.3    21  ILE21       0.0001
     71  N          1.7240   27.6470   -0.6330 N.3    36  LEU36      -0.1245
     72  CA         0.4870   27.5570   -1.4150 C.3    36  LEU36       0.1561
     73  C          0.3100   28.7940   -2.2930 C.2    36  LEU36       0.2260
     74  O          0.6010   29.9350   -1.8740 O.2    36  LEU36      -0.2867
     75  CB        -0.7390   27.3340   -0.5390 C.3    36  LEU36       0.0270
     76  CG        -1.0780   25.8820   -0.2250 C.3    36  LEU36       0.0019
     77  CD1       -0.0520   25.2940    0.7480 C.3    36  LEU36       0.0001
     78  CD2       -2.4870   25.7720    0.3120 C.3    36  LEU36       0.0001
     79  N        -10.0380   27.5710   -0.4030 N.3    44  TYR44      -0.1227
     80  CA       -10.5710   27.2510    0.9190 C.3    44  TYR44       0.1736
     81  C        -10.6140   28.3820    1.9180 C.2    44  TYR44       0.2595
     82  O        -11.2600   28.2460    2.9390 O.2    44  TYR44      -0.2718
     83  CB        -9.8180   26.0640    1.5440 C.3    44  TYR44       0.0548
     84  CG        -8.3650   26.3540    1.9290 C.ar   44  TYR44      -0.0200
     85  CD1       -7.3850   26.4060    0.9640 C.ar   44  TYR44      -0.0009
     86  CD2       -7.9790   26.5160    3.2720 C.ar   44  TYR44      -0.0009
     87  CE1       -6.0520   26.6270    1.2730 C.ar   44  TYR44       0.0417
     88  CE2       -6.6420   26.7430    3.6140 C.ar   44  TYR44       0.0417
     89  CZ        -5.6720   26.8150    2.6080 C.ar   44  TYR44       0.1957
     90  OH        -4.3450   27.0790    2.8940 O.3    44  TYR44      -0.2866
     91  N         -9.9120   29.4710    1.6680 N.am   45  LYS45      -0.1980
     92  CA       -10.0110   30.6300    2.5460 C.3    45  LYS45       0.1596
     93  C         -9.7980   31.9220    1.7590 C.2    45  LYS45       0.2287
     94  O         -9.7390   31.9070    0.5350 O.2    45  LYS45      -0.2864
     95  CB        -9.0300   30.4630    3.7110 C.3    45  LYS45       0.0298
     96  CG        -7.5620   30.4410    3.3340 C.3    45  LYS45       0.0038
     97  CD        -6.7100   30.2130    4.5830 C.3    45  LYS45       0.0206
     98  CE        -5.2160   30.2950    4.3290 C.3    45  LYS45       0.1093
     99  NZ        -4.4600   29.9130    5.5630 N.3    45  LYS45      -0.1314
    100  N         -4.7820   23.1010   -2.5920 N.3    74  LEU74      -0.1245
    101  CA        -4.8970   22.6980   -1.1970 C.3    74  LEU74       0.1561
    102  C         -4.4340   21.2660   -1.0150 C.2    74  LEU74       0.2260
    103  O         -3.6060   20.9640   -0.1160 O.2    74  LEU74      -0.2867
    104  CB        -6.3210   22.8650   -0.6720 C.3    74  LEU74       0.0270
    105  CG        -6.5550   22.3160    0.7440 C.3    74  LEU74       0.0019
    106  CD1       -5.5780   22.8850    1.7710 C.3    74  LEU74       0.0001
    107  CD2       -8.0020   22.5060    1.1840 C.3    74  LEU74       0.0001
    108  N         -2.3990   18.0090   -1.0750 N.3    76  TYR76      -0.1241
    109  CA        -0.9490   17.8210   -1.0230 C.3    76  TYR76       0.1605
    110  C         -0.3990   16.7110   -1.9230 C.2    76  TYR76       0.2264
    111  O          0.8100   16.6390   -2.1100 O.2    76  TYR76      -0.2867
    112  CB        -0.5310   17.4160    0.4050 C.3    76  TYR76       0.0534
    113  CG        -0.5000   18.4890    1.4380 C.ar   76  TYR76      -0.0201
    114  CD1       -1.5700   19.3310    1.6480 C.ar   76  TYR76      -0.0009
    115  CD2        0.6090   18.6090    2.2920 C.ar   76  TYR76      -0.0009
    116  CE1       -1.5420   20.3170    2.6550 C.ar   76  TYR76       0.0417
    117  CE2        0.6390   19.5570    3.3010 C.ar   76  TYR76       0.0417
    118  CZ        -0.4190   20.4040    3.4960 C.ar   76  TYR76       0.1957
    119  OH        -0.3550   21.3320    4.5450 O.3    76  TYR76      -0.2866
    120  N          4.5990   17.9350    8.4890 N.3    89  VAL89      -0.1231
    121  CA         4.2390   18.5600    9.7500 C.3    89  VAL89       0.1692
    122  C          3.1140   19.5710    9.5700 C.2    89  VAL89       0.2592
    123  O          3.1250   20.3770    8.6290 O.2    89  VAL89      -0.2718
    124  CB         5.4630   19.2610   10.3760 C.3    89  VAL89       0.0266
    125  CG1        5.0570   19.9430   11.6860 C.3    89  VAL89       0.0020
    126  CG2        6.5460   18.2310   10.6010 C.3    89  VAL89       0.0020
    127  N          2.1250   19.5180   10.4490 N.am   90  HIS90      -0.1962
    128  CA         1.0550   20.4830   10.4300 C.3    90  HIS90       0.1787
    129  C          0.5020   20.6600   11.8200 C.2    90  HIS90       0.2620
    130  O          0.5760   19.7270   12.6370 O.2    90  HIS90      -0.2715
    131  CB        -0.0640   20.0070    9.4770 C.3    90  HIS90       0.0785
    132  CG        -0.9950   21.1000    9.0520 C.ar   90  HIS90       0.0821
    133  ND1       -2.0430   21.5470    9.8370 N.ar   90  HIS90      -0.2267
    134  CD2       -1.0410   21.8280    7.9160 C.ar   90  HIS90       0.1154
    135  CE1       -2.6710   22.5270    9.2150 C.ar   90  HIS90       0.1986
    136  NE2       -2.0760   22.7220    8.0460 N.ar   90  HIS90      -0.2212
    137  N         -0.0910   21.8150   12.0860 N.am   91  GLY91      -0.1954
    138  CA        -0.8540   22.0050   13.3040 C.3    91  GLY91       0.1869
    139  C         -2.1200   21.1340   13.3080 C.2    91  GLY91       0.2309
    140  O         -2.6040   20.7070   12.2610 O.2    91  GLY91      -0.2863
    141  N         -5.1560   21.9760   13.9630 N.3    93  ASP93      -0.1239
    142  CA        -6.3720   22.6520   13.4910 C.3    93  ASP93       0.1674
    143  C         -7.1020   21.8930   12.3850 C.2    93  ASP93       0.2266
    144  O         -8.3350   21.8930   12.3490 O.2    93  ASP93      -0.2867
    145  CB        -6.1020   24.0780   13.0230 C.3    93  ASP93       0.1410
    146  CG        -5.1130   24.1450   11.8750 C.2    93  ASP93       0.3668
    147  OD1       -3.9970   23.6180   12.0260 O.co2  93  ASP93      -0.2456
    148  OD2       -5.4710   24.7210   10.8380 O.co2  93  ASP93      -0.2456
    149  N        -10.0740   21.7020    6.0880 N.3    99  GLN99      -0.1245
    150  CA        -8.9000   20.9410    5.5920 C.3    99  GLN99       0.1566
    151  C         -8.8690   19.4740    5.9910 C.2    99  GLN99       0.2260
    152  O         -7.8790   18.7960    5.7170 O.2    99  GLN99      -0.2867
    153  CB        -7.5890   21.5830    6.0730 C.3    99  GLN99       0.0367
    154  CG        -7.3420   22.9750    5.5780 C.3    99  GLN99       0.0905
    155  CD        -5.9110   23.3920    5.7980 C.2    99  GLN99       0.2608
    156  OE1       -4.9910   22.6770    5.4200 O.2    99  GLN99      -0.2717
    157  NE2       -5.7150   24.5890    6.3830 N.am   99  GLN99      -0.0878
    158  N          0.2490   20.7970   18.4630 N.3   121  PRO121     -0.2102
    159  CA        -0.8120   21.6890   18.9350 C.3   121  PRO121      0.1504
    160  C         -0.7660   23.0740   18.2790 C.2   121  PRO121      0.2576
    161  O          0.2690   23.7420   18.2770 O.2   121  PRO121     -0.2718
    162  CB        -0.5320   21.8050   20.4560 C.3   121  PRO121      0.0282
    163  CG         0.1790   20.5410   20.7890 C.3   121  PRO121      0.0208
    164  CD         1.0220   20.2180   19.5920 C.3   121  PRO121      0.0893
    165  N         -1.8860   23.4930   17.7080 N.am  122  TYR122     -0.1963
    166  CA        -2.0240   24.8240   17.1190 C.3   122  TYR122      0.1771
    167  C         -1.7560   25.8630   18.1970 C.2   122  TYR122      0.2620
    168  O         -2.0970   25.6550   19.3820 O.2   122  TYR122     -0.2715
    169  CB        -3.4420   24.9720   16.6060 C.3   122  TYR122      0.0574
    170  CG        -3.7470   26.1460   15.7310 C.ar  122  TYR122     -0.0198
    171  CD1       -3.5040   26.0940   14.3570 C.ar  122  TYR122     -0.0009
    172  CD2       -4.3590   27.2770   16.2470 C.ar  122  TYR122     -0.0009
    173  CE1       -3.8390   27.1510   13.5340 C.ar  122  TYR122      0.0417
    174  CE2       -4.6970   28.3380   15.4250 C.ar  122  TYR122      0.0417
    175  CZ        -4.4390   28.2550   14.0750 C.ar  122  TYR122      0.1957
    176  OH        -4.7530   29.2940   13.2610 O.3   122  TYR122     -0.2866
    177  N         -1.1240   26.9640   17.8190 N.am  123  THR123     -0.1951
    178  CA        -0.7710   27.9800   18.7890 C.3   123  THR123      0.1897
    179  C         -1.9930   28.8800   18.9590 C.2   123  THR123      0.2313
    180  O         -2.3800   29.5820   18.0330 O.2   123  THR123     -0.2863
    181  CB         0.5040   28.7490   18.4000 C.3   123  THR123      0.1794
    182  OG1        1.5680   27.8200   18.2930 O.3   123  THR123     -0.2208
    183  CG2        0.8710   29.7870   19.4810 C.3   123  THR123      0.0378
    184  N         -3.6570   33.7960   18.3240 N.3   126  ILE126     -0.1245
    185  CA        -2.8600   34.4880   17.2990 C.3   126  ILE126      0.1561
    186  C         -3.2130   33.9810   15.8830 C.2   126  ILE126      0.2260
    187  O         -3.1500   32.7770   15.5810 O.2   126  ILE126     -0.2867
    188  CB        -1.3260   34.3830   17.6310 C.3   126  ILE126      0.0252
    189  CG1       -0.5170   35.5440   17.0260 C.3   126  ILE126      0.0019
    190  CG2       -0.7200   33.0230   17.2680 C.3   126  ILE126      0.0019
    191  CD1       -0.6770   35.7680   15.5370 C.3   126  ILE126      0.0001
@<TRIPOS>BOND
     1   100   101    1
     2    73    74    2
     3    73    72    1
     4   111   110    2
     5   110   109    1
     6    72    71    1
     7    72    75    1
     8   101   102    1
     9   101   104    1
    10   108   109    1
    11   109   112    1
    12   102   103    2
    13   104   105    1
    14    75    76    1
    15    79    80    1
    16    76    78    1
    17    76    77    1
    18   112   113    1
    19    94    93    2
    20   105   107    1
    21   105   106    1
    22    80    83    1
    23    80    81    1
    24    85    87   ar
    25    85    84   ar
    26    87    89   ar
    27   113   114   ar
    28   113   115   ar
    29    83    84    1
    30   114   116   ar
    31    91    81   am
    32    91    92    1
    33    93    92    1
    34    81    82    2
    35    84    86   ar
    36    15    14    2
    37   115   117   ar
    38    92    95    1
    39    89    90    1
    40    89    88   ar
    41   116   118   ar
    42    23    22    2
    43    21    24    1
    44    21    22    1
    45    21    20    1
    46    86    88   ar
    47   117   118   ar
    48    96    95    1
    49    96    97    1
    50    14    20   am
    51    14    13    1
    52    24    25    1
    53   118   119    1
    54    22    26   am
    55     9    10    1
    56     9     8    1
    57    12    13    1
    58    12    10   am
    59     4     3    2
    60    98    97    1
    61    98    99    1
    62    13    16    1
    63    29    28    2
    64    10    11    2
    65     8     3   am
    66     3     2    1
    67     1     2    1
    68    16    17    1
    69    26    27    1
    70    28    27    1
    71    30    27    1
    72   156   155    2
    73   154   155    1
    74   154   153    1
    75     2     5    1
    76   150   151    1
    77   150   153    1
    78   150   149    1
    79   152   151    2
    80   155   157   am
    81    17    18    1
    82     5     6    1
    83     5     7    1
    84    18    19    1
    85   134   136   ar
    86   134   132   ar
    87   136   135   ar
    88   120   121    1
    89   123   122    2
    90   132   131    1
    91   132   133   ar
    92   135   133   ar
    93   131   128    1
    94   122   121    1
    95   122   127   am
    96   121   124    1
    97    54    53   ar
    98    54    52   ar
    99    53    51   ar
   100    52    50   ar
   101   124   126    1
   102   124   125    1
   103    51    50   ar
   104   128   127    1
   105   128   129    1
   106    50    49    1
   107   148   146   ar
   108    69    67    1
   109    49    46    1
   110   129   137   am
   111   129   130    2
   112   146   147   ar
   113   146   145    1
   114   137   138    1
   115    31    32    1
   116    48    47    2
   117    46    47    1
   118    46    45    1
   119    67    68    1
   120    67    64    1
   121   140   139    2
   122   144   143    2
   123   143   142    1
   124    38    40   ar
   125    38    36   ar
   126    40    39   ar
   127    66    65    2
   128    68    70    1
   129    65    64    1
   130   145   142    1
   131   176   175    1
   132    45    43   am
   133   138   139    1
   134    64    63    1
   135    39    37   ar
   136    36    35    1
   137    36    37   ar
   138   142   141    1
   139    32    35    1
   140    32    33    1
   141   173   175   ar
   142   173   171   ar
   143    34    33    2
   144   175   174   ar
   145    63    57   am
   146    43    44    2
   147    43    42    1
   148   171   170   ar
   149    57    58    2
   150    57    56    1
   151   174   172   ar
   152    42    41    1
   153   191   189    1
   154    55    56    1
   155   187   186    2
   156   170   172   ar
   157   170   169    1
   158   186   185    1
   159    56    59    1
   160   169   166    1
   161   189   188    1
   162   166   165    1
   163   166   167    1
   164    59    60    1
   165   190   188    1
   166   185   188    1
   167   185   184    1
   168   165   160   am
   169   177   167   am
   170   177   178    1
   171   180   179    2
   172    60    62   am
   173    60    61    2
   174   167   168    2
   175   161   160    2
   176   160   159    1
   177   182   181    1
   178   181   178    1
   179   181   183    1
   180   158   159    1
   181   158   164    1
   182   178   179    1
   183   159   162    1
   184   164   163    1
   185   162   163    1
