@<TRIPOS>MOLECULE
tmp/5x3jA03.pdb
 152 149 0 0 0
SMALL
GASTEIGER

@<TRIPOS>ATOM
      1  N        -67.2920  146.0290  422.7480 N.3   281  ASN281     -0.1240
      2  CA       -68.6940  145.7680  423.0210 C.3   281  ASN281      0.1653
      3  C        -69.5650  146.9470  422.6760 C.2   281  ASN281      0.2266
      4  O        -70.7350  146.7970  422.3430 O.2   281  ASN281     -0.2867
      5  CB       -68.9150  145.3960  424.4930 C.3   281  ASN281      0.1155
      6  CG       -70.3730  145.1780  424.8020 C.2   281  ASN281      0.2627
      7  OD1      -71.0590  146.0760  425.2700 O.2   281  ASN281     -0.2716
      8  ND2      -70.8710  144.0030  424.4700 N.am  281  ASN281     -0.0877
      9  N        -70.7970  142.4270  419.1960 N.3   309  GLU309     -0.1245
     10  CA       -71.4930  141.9390  420.3800 C.3   309  GLU309      0.1567
     11  C        -72.8750  142.5520  420.4840 C.2   309  GLU309      0.2260
     12  O        -73.8540  141.8060  420.4960 O.2   309  GLU309     -0.2867
     13  CB       -70.6700  142.1660  421.6390 C.3   309  GLU309      0.0388
     14  CG       -69.4980  141.2010  421.6920 C.3   309  GLU309      0.1160
     15  CD       -68.8800  141.0960  423.0600 C.2   309  GLU309      0.3649
     16  OE1      -68.3290  140.0250  423.3670 O.co2 309  GLU309     -0.2457
     17  OE2      -68.9400  142.0870  423.8150 O.co2 309  GLU309     -0.2457
     18  N        -72.3370  137.7650  418.3680 N.3   367  TRP367     -0.1241
     19  CA       -72.4360  137.3420  419.7560 C.3   367  TRP367      0.1605
     20  C        -73.7220  136.5730  420.0380 C.2   367  TRP367      0.2264
     21  O        -74.7680  136.8590  419.4490 O.2   367  TRP367     -0.2867
     22  CB       -72.3450  138.5820  420.6240 C.3   367  TRP367      0.0550
     23  CG       -72.3650  138.4100  422.1050 C.ar  367  TRP367      0.0003
     24  CD1      -71.3060  138.1240  422.9130 C.ar  367  TRP367      0.0946
     25  CD2      -73.4860  138.6140  422.9680 C.ar  367  TRP367      0.0152
     26  NE1      -71.7050  138.1110  424.2260 N.ar  367  TRP367     -0.2442
     27  CE2      -73.0420  138.4040  424.2880 C.ar  367  TRP367      0.0810
     28  CE3      -74.8290  138.9360  422.7520 C.ar  367  TRP367      0.0012
     29  CZ2      -73.8870  138.5110  425.3870 C.ar  367  TRP367      0.0191
     30  CZ3      -75.6670  139.0400  423.8480 C.ar  367  TRP367      0.0001
     31  CH2      -75.1910  138.8270  425.1480 C.ar  367  TRP367      0.0015
     32  N        -76.5600  136.8140  435.9180 N.3   409  TRP409     -0.1227
     33  CA       -76.5550  137.3200  434.5460 C.3   409  TRP409      0.1737
     34  C        -77.8180  136.8970  433.8120 C.2   409  TRP409      0.2595
     35  O        -78.0080  135.7120  433.5260 O.2   409  TRP409     -0.2718
     36  CB       -75.3230  136.8230  433.7960 C.3   409  TRP409      0.0564
     37  CG       -74.9660  137.6480  432.6080 C.ar  409  TRP409      0.0003
     38  CD1      -75.1690  138.9850  432.4460 C.ar  409  TRP409      0.0946
     39  CD2      -74.3430  137.1890  431.4060 C.ar  409  TRP409      0.0152
     40  NE1      -74.6980  139.3900  431.2280 N.ar  409  TRP409     -0.2442
     41  CE2      -74.1840  138.3050  430.5660 C.ar  409  TRP409      0.0810
     42  CE3      -73.8980  135.9410  430.9570 C.ar  409  TRP409      0.0012
     43  CZ2      -73.6110  138.2120  429.3000 C.ar  409  TRP409      0.0191
     44  CZ3      -73.3210  135.8530  429.7030 C.ar  409  TRP409      0.0001
     45  CH2      -73.1830  136.9790  428.8920 C.ar  409  TRP409      0.0015
     46  N        -78.6580  137.8770  433.4920 N.am  410  PHE410     -0.1976
     47  CA       -79.9850  137.6290  432.9310 C.3   410  PHE410      0.1639
     48  C        -80.7770  136.6150  433.7690 C.2   410  PHE410      0.2290
     49  O        -81.0610  135.5100  433.3090 O.2   410  PHE410     -0.2864
     50  CB       -79.8840  137.1420  431.4790 C.3   410  PHE410      0.0560
     51  CG       -79.0440  138.0270  430.5910 C.ar  410  PHE410     -0.0200
     52  CD1      -79.4100  139.3420  430.3480 C.ar  410  PHE410     -0.0042
     53  CD2      -77.8950  137.5370  429.9930 C.ar  410  PHE410     -0.0042
     54  CE1      -78.6360  140.1540  429.5320 C.ar  410  PHE410     -0.0003
     55  CE2      -77.1230  138.3420  429.1680 C.ar  410  PHE410     -0.0003
     56  CZ       -77.4940  139.6500  428.9400 C.ar  410  PHE410     -0.0000
     57  N        -69.9130  134.1360  418.4430 N.3   444  LYS444     -0.1245
     58  CA       -69.1950  134.1560  419.6800 C.3   444  LYS444      0.1561
     59  C        -70.2160  133.5990  420.6400 C.2   444  LYS444      0.2260
     60  O        -71.1840  134.2740  421.0070 O.2   444  LYS444     -0.2867
     61  CB       -68.7460  135.5650  420.0600 C.3   444  LYS444      0.0271
     62  CG       -68.0860  135.6610  421.4310 C.3   444  LYS444      0.0035
     63  CD       -67.4880  137.0360  421.6750 C.3   444  LYS444      0.0206
     64  CE       -66.7190  137.0720  422.9880 C.3   444  LYS444      0.1093
     65  NZ       -66.2820  138.4380  423.3550 N.3   444  LYS444     -0.1314
     66  N        -71.1050  133.0220  423.8960 N.3   446  ALA446     -0.1245
     67  CA       -70.8210  133.4210  425.2590 C.3   446  ALA446      0.1562
     68  C        -71.7190  132.6740  426.2360 C.2   446  ALA446      0.2260
     69  O        -72.8130  132.2520  425.8740 O.2   446  ALA446     -0.2867
     70  CB       -70.9740  134.9300  425.4080 C.3   446  ALA446      0.0290
     71  N        -66.1840  130.8660  425.8090 N.3   495  ARG495     -0.1245
     72  CA       -65.4210  130.8250  427.0540 C.3   495  ARG495      0.1563
     73  C        -65.5920  129.5080  427.8280 C.2   495  ARG495      0.2260
     74  O        -64.6660  129.0380  428.4880 O.2   495  ARG495     -0.2867
     75  CB       -65.7830  132.0170  427.9350 C.3   495  ARG495      0.0307
     76  CG       -67.1940  131.9920  428.4850 C.3   495  ARG495      0.0489
     77  CD       -67.5650  133.3170  429.0990 C.3   495  ARG495      0.2205
     78  NE       -68.8170  133.2130  429.8340 N.pl3 495  ARG495     -0.0865
     79  CZ       -69.4530  134.2390  430.3930 C.cat 495  ARG495      0.5346
     80  NH1      -68.9660  135.4690  430.2900 N.pl3 495  ARG495      0.1354
     81  NH2      -70.5850  134.0320  431.0500 N.pl3 495  ARG495      0.1354
     82  N        -61.8170  131.3780  424.2570 N.3   508  TRP508     -0.1241
     83  CA       -61.0590  132.4770  424.8260 C.3   508  TRP508      0.1605
     84  C        -61.1680  132.4150  426.3450 C.2   508  TRP508      0.2264
     85  O        -62.1170  131.8400  426.8750 O.2   508  TRP508     -0.2867
     86  CB       -61.5350  133.8260  424.2670 C.3   508  TRP508      0.0550
     87  CG       -62.5660  134.5780  425.0730 C.ar  508  TRP508      0.0003
     88  CD1      -62.3300  135.5940  425.9520 C.ar  508  TRP508      0.0946
     89  CD2      -63.9900  134.4150  425.0260 C.ar  508  TRP508      0.0152
     90  NE1      -63.5110  136.0630  426.4640 N.ar  508  TRP508     -0.2442
     91  CE2      -64.5460  135.3520  425.9180 C.ar  508  TRP508      0.0810
     92  CE3      -64.8490  133.5670  424.3210 C.ar  508  TRP508      0.0012
     93  CZ2      -65.9160  135.4600  426.1280 C.ar  508  TRP508      0.0191
     94  CZ3      -66.2170  133.6790  424.5340 C.ar  508  TRP508      0.0001
     95  CH2      -66.7330  134.6150  425.4290 C.ar  508  TRP508      0.0015
     96  N        -63.4240  136.7160  430.9790 N.3   511  ASP511     -0.1239
     97  CA       -63.3700  138.0900  431.4770 C.3   511  ASP511      0.1674
     98  C        -62.2420  138.3450  432.4800 C.2   511  ASP511      0.2266
     99  O        -62.0900  137.5990  433.4390 O.2   511  ASP511     -0.2867
    100  CB       -64.7120  138.4480  432.1290 C.3   511  ASP511      0.1410
    101  CG       -65.8910  138.2300  431.1980 C.2   511  ASP511      0.3668
    102  OD1      -65.6850  138.2300  429.9650 O.co2 511  ASP511     -0.2456
    103  OD2      -67.0250  138.0690  431.6960 O.co2 511  ASP511     -0.2456
    104  N        -58.4100  137.9980  425.9170 N.3   540  ASP540     -0.1239
    105  CA       -58.5400  139.4010  425.5740 C.3   540  ASP540      0.1674
    106  C        -57.2170  140.0020  425.9720 C.2   540  ASP540      0.2266
    107  O        -56.9470  140.1820  427.1560 O.2   540  ASP540     -0.2867
    108  CB       -59.6720  140.1100  426.3450 C.3   540  ASP540      0.1410
    109  CG       -61.0140  139.3930  426.2610 C.2   540  ASP540      0.3668
    110  OD1      -61.2670  138.6620  425.2840 O.co2 540  ASP540     -0.2456
    111  OD2      -61.8330  139.5930  427.1840 O.co2 540  ASP540     -0.2456
    112  N        -60.1530  143.1070  429.0500 N.3   544  PHE544     -0.1241
    113  CA       -61.2370  143.9220  428.5130 C.3   544  PHE544      0.1605
    114  C        -61.9690  144.8020  429.5260 C.2   544  PHE544      0.2264
    115  O        -62.7750  145.6490  429.1370 O.2   544  PHE544     -0.2867
    116  CB       -62.2340  143.0110  427.7620 C.3   544  PHE544      0.0534
    117  CG       -63.4000  142.4990  428.5870 C.ar  544  PHE544     -0.0203
    118  CD1      -64.6650  142.4200  428.0180 C.ar  544  PHE544     -0.0042
    119  CD2      -63.2370  142.0380  429.8840 C.ar  544  PHE544     -0.0042
    120  CE1      -65.7480  141.9360  428.7350 C.ar  544  PHE544     -0.0003
    121  CE2      -64.3120  141.5640  430.6070 C.ar  544  PHE544     -0.0003
    122  CZ       -65.5680  141.5070  430.0360 C.ar  544  PHE544     -0.0000
    123  N        -60.2980  143.0980  422.9280 N.3   570  HIS570     -0.1241
    124  CA       -61.7030  143.1910  423.2750 C.3   570  HIS570      0.1621
    125  C        -61.8920  144.2270  424.3760 C.2   570  HIS570      0.2264
    126  O        -60.9480  144.5450  425.1010 O.2   570  HIS570     -0.2867
    127  CB       -62.2180  141.8110  423.7110 C.3   570  HIS570      0.0745
    128  CG       -63.6850  141.7700  424.0070 C.ar  570  HIS570      0.0817
    129  ND1      -64.6060  142.5030  423.2950 N.ar  570  HIS570     -0.2268
    130  CD2      -64.3860  141.0770  424.9350 C.ar  570  HIS570      0.1154
    131  CE1      -65.8160  142.2670  423.7740 C.ar  570  HIS570      0.1986
    132  NE2      -65.7090  141.4050  424.7680 N.ar  570  HIS570     -0.2212
    133  N        -64.9600  145.7280  427.3970 N.3   572  GLU572     -0.1231
    134  CA       -66.2420  145.5220  428.0620 C.3   572  GLU572      0.1699
    135  C        -67.2050  146.6860  427.8630 C.2   572  GLU572      0.2592
    136  O        -66.7820  147.8180  427.6730 O.2   572  GLU572     -0.2718
    137  CB       -66.0230  145.2830  429.5630 C.3   572  GLU572      0.0402
    138  CG       -67.2790  144.8420  430.3050 C.3   572  GLU572      0.1161
    139  CD       -67.0140  144.3090  431.7070 C.2   572  GLU572      0.3649
    140  OE1      -66.2000  144.8970  432.4550 O.co2 572  GLU572     -0.2457
    141  OE2      -67.6440  143.2960  432.0540 O.co2 572  GLU572     -0.2457
    142  N        -68.4980  146.3980  427.9730 N.am  573  PHE573     -0.1976
    143  CA       -69.5310  147.4240  427.9970 C.3   573  PHE573      0.1639
    144  C        -69.2500  148.4850  429.0700 C.2   573  PHE573      0.2290
    145  O        -69.0150  148.1610  430.2340 O.2   573  PHE573     -0.2864
    146  CB       -70.8670  146.7370  428.2610 C.3   573  PHE573      0.0560
    147  CG       -72.0200  147.6700  428.4580 C.ar  573  PHE573     -0.0200
    148  CD1      -72.4880  148.4480  427.4180 C.ar  573  PHE573     -0.0042
    149  CD2      -72.6730  147.7260  429.6780 C.ar  573  PHE573     -0.0042
    150  CE1      -73.5670  149.2860  427.5960 C.ar  573  PHE573     -0.0003
    151  CE2      -73.7530  148.5620  429.8630 C.ar  573  PHE573     -0.0003
    152  CZ       -74.2030  149.3390  428.8210 C.ar  573  PHE573     -0.0000
@<TRIPOS>BOND
     1    18    19    1
     2    57    58    1
     3     9    10    1
     4    21    20    2
     5    58    61    1
     6    58    59    1
     7    19    20    1
     8    19    22    1
     9    61    62    1
    10    10    11    1
    11    10    13    1
    12    11    12    2
    13    22    23    1
    14    59    60    2
    15    62    63    1
    16    13    14    1
    17    63    64    1
    18    14    15    1
    19    23    24   ar
    20    23    25   ar
    21     4     3    2
    22     3     2    1
    23     1     2    1
    24    28    25   ar
    25    28    30   ar
    26    24    26   ar
    27   123   124    1
    28    25    27   ar
    29    64    65    1
    30     2     5    1
    31    15    16   ar
    32    15    17   ar
    33   124   127    1
    34   124   125    1
    35   129   131   ar
    36   129   128   ar
    37   127   128    1
    38   131   132   ar
    39    30    31   ar
    40    66    67    1
    41   128   130   ar
    42    26    27   ar
    43    82    83    1
    44    86    83    1
    45    86    87    1
    46    27    29   ar
    47    92    94   ar
    48    92    89   ar
    49   125   126    2
    50     8     6   am
    51     5     6    1
    52    94    95   ar
    53   132   130   ar
    54     6     7    2
    55    83    84    1
    56    89    87   ar
    57    89    91   ar
    58    87    88   ar
    59    31    29   ar
    60    67    70    1
    61    67    68    1
    62   110   109   ar
    63    95    93   ar
    64   105   104    1
    65   105   106    1
    66   105   108    1
    67    71    72    1
    68    69    68    2
    69    91    93   ar
    70    91    90   ar
    71    88    90   ar
    72   106   107    2
    73   109   108    1
    74   109   111   ar
    75    84    85    2
    76    72    73    1
    77    72    75    1
    78   133   134    1
    79   148   150   ar
    80   148   147   ar
    81   150   152   ar
    82   136   135    2
    83   116   113    1
    84   116   117    1
    85    73    74    2
    86   135   142   am
    87   135   134    1
    88    75    76    1
    89   142   143    1
    90   143   146    1
    91   143   144    1
    92   118   117   ar
    93   118   120   ar
    94   134   137    1
    95   146   147    1
    96   147   149   ar
    97    76    77    1
    98   113   112    1
    99   113   114    1
   100   117   119   ar
   101   120   122   ar
   102   152   151   ar
   103    45    43   ar
   104    45    44   ar
   105    56    55   ar
   106    56    54   ar
   107   144   145    2
   108    77    78    1
   109   115   114    2
   110    55    53   ar
   111    43    41   ar
   112    54    52   ar
   113   137   138    1
   114   149   151   ar
   115    44    42   ar
   116    78    79    2
   117   119   121   ar
   118   102   101   ar
   119    53    51   ar
   120   122   121   ar
   121    80    79    1
   122   138   139    1
   123    52    51   ar
   124    79    81    1
   125    41    40   ar
   126    41    39   ar
   127    51    50    1
   128    42    39   ar
   129    96    97    1
   130   101   103   ar
   131   101   100    1
   132    40    38   ar
   133    39    37   ar
   134    97   100    1
   135    97    98    1
   136    50    47    1
   137   139   141   ar
   138   139   140   ar
   139    38    37   ar
   140    98    99    2
   141    37    36    1
   142    47    46    1
   143    47    48    1
   144    49    48    2
   145    46    34   am
   146    35    34    2
   147    36    33    1
   148    34    33    1
   149    33    32    1
