@<TRIPOS>MOLECULE
tmp/5x3jA02.pdb
 99 98 0 0 0
SMALL
GASTEIGER

@<TRIPOS>ATOM
      1  N        -67.2920  146.0290  422.7480 N.3   281  ASN281     -0.1240
      2  CA       -68.6940  145.7680  423.0210 C.3   281  ASN281      0.1653
      3  C        -69.5650  146.9470  422.6760 C.2   281  ASN281      0.2266
      4  O        -70.7350  146.7970  422.3430 O.2   281  ASN281     -0.2867
      5  CB       -68.9150  145.3960  424.4930 C.3   281  ASN281      0.1155
      6  CG       -70.3730  145.1780  424.8020 C.2   281  ASN281      0.2627
      7  OD1      -71.0590  146.0760  425.2700 O.2   281  ASN281     -0.2716
      8  ND2      -70.8710  144.0030  424.4700 N.am  281  ASN281     -0.0877
      9  N        -70.7970  142.4270  419.1960 N.3   309  GLU309     -0.1231
     10  CA       -71.4930  141.9390  420.3800 C.3   309  GLU309      0.1699
     11  C        -72.8750  142.5520  420.4840 C.2   309  GLU309      0.2592
     12  O        -73.8540  141.8060  420.4960 O.2   309  GLU309     -0.2718
     13  CB       -70.6700  142.1660  421.6390 C.3   309  GLU309      0.0402
     14  CG       -69.4980  141.2010  421.6920 C.3   309  GLU309      0.1161
     15  CD       -68.8800  141.0960  423.0600 C.2   309  GLU309      0.3649
     16  OE1      -68.3290  140.0250  423.3670 O.co2 309  GLU309     -0.2457
     17  OE2      -68.9400  142.0870  423.8150 O.co2 309  GLU309     -0.2457
     18  N        -73.0120  143.8730  420.5670 N.am  310  ALA310     -0.1980
     19  CA       -74.3920  144.2880  420.5530 C.3   310  ALA310      0.1597
     20  C        -74.7360  144.6730  419.1340 C.2   310  ALA310      0.2287
     21  O        -74.6400  145.8290  418.7120 O.2   310  ALA310     -0.2864
     22  CB       -74.5740  145.4700  421.4780 C.3   310  ALA310      0.0319
     23  N        -81.4670  142.9500  421.5090 N.3   314  GLU314     -0.1245
     24  CA       -81.2330  142.7760  422.9370 C.3   314  GLU314      0.1567
     25  C        -82.4130  142.1180  423.6300 C.2   314  GLU314      0.2260
     26  O        -82.5690  142.2260  424.8450 O.2   314  GLU314     -0.2867
     27  CB       -80.9110  144.1200  423.6140 C.3   314  GLU314      0.0388
     28  CG       -79.6350  144.7930  423.0990 C.3   314  GLU314      0.1160
     29  CD       -78.4030  143.9250  423.2850 C.2   314  GLU314      0.3649
     30  OE1      -78.4350  143.0080  424.1320 O.co2 314  GLU314     -0.2457
     31  OE2      -77.3970  144.1610  422.5860 O.co2 314  GLU314     -0.2457
     32  N        -72.3370  137.7650  418.3680 N.3   367  TRP367     -0.1241
     33  CA       -72.4360  137.3420  419.7560 C.3   367  TRP367      0.1605
     34  C        -73.7220  136.5730  420.0380 C.2   367  TRP367      0.2264
     35  O        -74.7680  136.8590  419.4490 O.2   367  TRP367     -0.2867
     36  CB       -72.3450  138.5820  420.6240 C.3   367  TRP367      0.0550
     37  CG       -72.3650  138.4100  422.1050 C.ar  367  TRP367      0.0003
     38  CD1      -71.3060  138.1240  422.9130 C.ar  367  TRP367      0.0946
     39  CD2      -73.4860  138.6140  422.9680 C.ar  367  TRP367      0.0152
     40  NE1      -71.7050  138.1110  424.2260 N.ar  367  TRP367     -0.2442
     41  CE2      -73.0420  138.4040  424.2880 C.ar  367  TRP367      0.0810
     42  CE3      -74.8290  138.9360  422.7520 C.ar  367  TRP367      0.0012
     43  CZ2      -73.8870  138.5110  425.3870 C.ar  367  TRP367      0.0191
     44  CZ3      -75.6670  139.0400  423.8480 C.ar  367  TRP367      0.0001
     45  CH2      -75.1910  138.8270  425.1480 C.ar  367  TRP367      0.0015
     46  N        -84.7430  135.4050  427.2770 N.3   373  LYS373     -0.1245
     47  CA       -85.1620  136.3650  428.2980 C.3   373  LYS373      0.1561
     48  C        -86.6630  136.3510  428.5460 C.2   373  LYS373      0.2260
     49  O        -87.4600  136.3560  427.6080 O.2   373  LYS373     -0.2867
     50  CB       -84.7120  137.7770  427.9110 C.3   373  LYS373      0.0271
     51  CG       -83.2150  137.9370  427.8560 C.3   373  LYS373      0.0035
     52  CD       -82.8270  139.3300  427.4280 C.3   373  LYS373      0.0206
     53  CE       -81.3270  139.4310  427.2140 C.3   373  LYS373      0.1093
     54  NZ       -80.8830  140.8300  426.9540 N.3   373  LYS373     -0.1314
     55  N        -76.5600  136.8140  435.9180 N.3   409  TRP409     -0.1227
     56  CA       -76.5550  137.3200  434.5460 C.3   409  TRP409      0.1737
     57  C        -77.8180  136.8970  433.8120 C.2   409  TRP409      0.2595
     58  O        -78.0080  135.7120  433.5260 O.2   409  TRP409     -0.2718
     59  CB       -75.3230  136.8230  433.7960 C.3   409  TRP409      0.0564
     60  CG       -74.9660  137.6480  432.6080 C.ar  409  TRP409      0.0003
     61  CD1      -75.1690  138.9850  432.4460 C.ar  409  TRP409      0.0946
     62  CD2      -74.3430  137.1890  431.4060 C.ar  409  TRP409      0.0152
     63  NE1      -74.6980  139.3900  431.2280 N.ar  409  TRP409     -0.2442
     64  CE2      -74.1840  138.3050  430.5660 C.ar  409  TRP409      0.0810
     65  CE3      -73.8980  135.9410  430.9570 C.ar  409  TRP409      0.0012
     66  CZ2      -73.6110  138.2120  429.3000 C.ar  409  TRP409      0.0191
     67  CZ3      -73.3210  135.8530  429.7030 C.ar  409  TRP409      0.0001
     68  CH2      -73.1830  136.9790  428.8920 C.ar  409  TRP409      0.0015
     69  N        -78.6580  137.8770  433.4920 N.am  410  PHE410     -0.1976
     70  CA       -79.9850  137.6290  432.9310 C.3   410  PHE410      0.1639
     71  C        -80.7770  136.6150  433.7690 C.2   410  PHE410      0.2290
     72  O        -81.0610  135.5100  433.3090 O.2   410  PHE410     -0.2864
     73  CB       -79.8840  137.1420  431.4790 C.3   410  PHE410      0.0560
     74  CG       -79.0440  138.0270  430.5910 C.ar  410  PHE410     -0.0200
     75  CD1      -79.4100  139.3420  430.3480 C.ar  410  PHE410     -0.0042
     76  CD2      -77.8950  137.5370  429.9930 C.ar  410  PHE410     -0.0042
     77  CE1      -78.6360  140.1540  429.5320 C.ar  410  PHE410     -0.0003
     78  CE2      -77.1230  138.3420  429.1680 C.ar  410  PHE410     -0.0003
     79  CZ       -77.4940  139.6500  428.9400 C.ar  410  PHE410     -0.0000
     80  N        -64.9600  145.7280  427.3970 N.3   572  GLU572     -0.1231
     81  CA       -66.2420  145.5220  428.0620 C.3   572  GLU572      0.1699
     82  C        -67.2050  146.6860  427.8630 C.2   572  GLU572      0.2592
     83  O        -66.7820  147.8180  427.6730 O.2   572  GLU572     -0.2718
     84  CB       -66.0230  145.2830  429.5630 C.3   572  GLU572      0.0402
     85  CG       -67.2790  144.8420  430.3050 C.3   572  GLU572      0.1161
     86  CD       -67.0140  144.3090  431.7070 C.2   572  GLU572      0.3649
     87  OE1      -66.2000  144.8970  432.4550 O.co2 572  GLU572     -0.2457
     88  OE2      -67.6440  143.2960  432.0540 O.co2 572  GLU572     -0.2457
     89  N        -68.4980  146.3980  427.9730 N.am  573  PHE573     -0.1976
     90  CA       -69.5310  147.4240  427.9970 C.3   573  PHE573      0.1639
     91  C        -69.2500  148.4850  429.0700 C.2   573  PHE573      0.2290
     92  O        -69.0150  148.1610  430.2340 O.2   573  PHE573     -0.2864
     93  CB       -70.8670  146.7370  428.2610 C.3   573  PHE573      0.0560
     94  CG       -72.0200  147.6700  428.4580 C.ar  573  PHE573     -0.0200
     95  CD1      -72.4880  148.4480  427.4180 C.ar  573  PHE573     -0.0042
     96  CD2      -72.6730  147.7260  429.6780 C.ar  573  PHE573     -0.0042
     97  CE1      -73.5670  149.2860  427.5960 C.ar  573  PHE573     -0.0003
     98  CE2      -73.7530  148.5620  429.8630 C.ar  573  PHE573     -0.0003
     99  CZ       -74.2030  149.3390  428.8210 C.ar  573  PHE573     -0.0000
@<TRIPOS>BOND
     1    32    33    1
     2    21    20    2
     3    20    19    1
     4     9    10    1
     5    35    34    2
     6    33    34    1
     7    33    36    1
     8    10    11    1
     9    10    13    1
    10    11    12    2
    11    11    18   am
    12    19    18    1
    13    19    22    1
    14    36    37    1
    15    23    24    1
    16    13    14    1
    17    14    15    1
    18    37    38   ar
    19    37    39   ar
    20     4     3    2
    21    31    29   ar
    22     3     2    1
    23     1     2    1
    24    42    39   ar
    25    42    44   ar
    26    38    40   ar
    27    24    27    1
    28    24    25    1
    29    39    41   ar
    30     2     5    1
    31    15    16   ar
    32    15    17   ar
    33    28    29    1
    34    28    27    1
    35    29    30   ar
    36    25    26    2
    37    44    45   ar
    38    40    41   ar
    39    41    43   ar
    40     8     6   am
    41     5     6    1
    42     6     7    2
    43    45    43   ar
    44    54    53    1
    45    53    52    1
    46    46    47    1
    47    80    81    1
    48    95    97   ar
    49    95    94   ar
    50    52    51    1
    51    97    99   ar
    52    49    48    2
    53    83    82    2
    54    51    50    1
    55    82    89   am
    56    82    81    1
    57    50    47    1
    58    89    90    1
    59    90    93    1
    60    90    91    1
    61    81    84    1
    62    93    94    1
    63    47    48    1
    64    94    96   ar
    65    99    98   ar
    66    68    66   ar
    67    68    67   ar
    68    79    78   ar
    69    79    77   ar
    70    91    92    2
    71    78    76   ar
    72    66    64   ar
    73    77    75   ar
    74    84    85    1
    75    96    98   ar
    76    67    65   ar
    77    76    74   ar
    78    85    86    1
    79    75    74   ar
    80    64    63   ar
    81    64    62   ar
    82    74    73    1
    83    65    62   ar
    84    63    61   ar
    85    62    60   ar
    86    73    70    1
    87    86    88   ar
    88    86    87   ar
    89    61    60   ar
    90    60    59    1
    91    70    69    1
    92    70    71    1
    93    72    71    2
    94    69    57   am
    95    58    57    2
    96    59    56    1
    97    57    56    1
    98    56    55    1
