@<TRIPOS>MOLECULE
tmp/5x3jA00.pdb
 123 124 0 0 0
SMALL
GASTEIGER

@<TRIPOS>ATOM
      1  N        -68.3730  142.1020  440.2300 N.3    73  HIS73      -0.1241
      2  CA       -69.6660  142.7420  440.0670 C.3    73  HIS73       0.1621
      3  C        -70.1550  143.6160  441.2280 C.2    73  HIS73       0.2264
      4  O        -70.7740  144.6490  441.0000 O.2    73  HIS73      -0.2867
      5  CB       -70.7130  141.6840  439.7670 C.3    73  HIS73       0.0745
      6  CG       -70.7150  141.2350  438.3420 C.ar   73  HIS73       0.0817
      7  ND1      -70.7930  142.1200  437.2940 N.ar   73  HIS73      -0.2268
      8  CD2      -70.6370  139.9990  437.7900 C.ar   73  HIS73       0.1154
      9  CE1      -70.7770  141.4510  436.1540 C.ar   73  HIS73       0.1986
     10  NE2      -70.6770  140.1630  436.4290 N.ar   73  HIS73      -0.2212
     11  N        -69.1250  130.3730  436.1890 N.3   184  GLU184     -0.1245
     12  CA       -68.7120  131.6570  435.6530 C.3   184  GLU184      0.1567
     13  C        -68.1590  132.4820  436.7940 C.2   184  GLU184      0.2260
     14  O        -68.8910  133.0590  437.5870 O.2   184  GLU184     -0.2867
     15  CB       -69.8720  132.4070  434.9860 C.3   184  GLU184      0.0388
     16  CG       -69.4020  133.6250  434.1850 C.3   184  GLU184      0.1160
     17  CD       -70.3600  134.8070  434.2110 C.2   184  GLU184      0.3649
     18  OE1      -71.5950  134.6160  434.2350 O.co2 184  GLU184     -0.2457
     19  OE2      -69.8620  135.9470  434.2030 O.co2 184  GLU184     -0.2457
     20  N        -66.3950  135.7930  437.5940 N.3   186  TYR186     -0.1241
     21  CA       -66.2790  137.0570  436.8870 C.3   186  TYR186      0.1605
     22  C        -64.9830  137.7730  437.2360 C.2   186  TYR186      0.2264
     23  O        -64.9380  138.6110  438.1300 O.2   186  TYR186     -0.2867
     24  CB       -67.4840  137.9470  437.1810 C.3   186  TYR186      0.0534
     25  CG       -67.4490  139.2650  436.4530 C.ar  186  TYR186     -0.0201
     26  CD1      -67.4370  139.3110  435.0690 C.ar  186  TYR186     -0.0009
     27  CD2      -67.4210  140.4640  437.1510 C.ar  186  TYR186     -0.0009
     28  CE1      -67.4030  140.5150  434.3970 C.ar  186  TYR186      0.0417
     29  CE2      -67.3870  141.6730  436.4890 C.ar  186  TYR186      0.0417
     30  CZ       -67.3770  141.6920  435.1120 C.ar  186  TYR186      0.1957
     31  OH       -67.3420  142.8870  434.4470 O.3   186  TYR186     -0.2866
     32  N        -76.7840  135.5140  438.2930 N.3   408  TRP408     -0.1227
     33  CA       -76.8620  136.9690  438.3300 C.3   408  TRP408      0.1737
     34  C        -76.9570  137.5780  436.9280 C.2   408  TRP408      0.2595
     35  O        -77.3790  138.7210  436.7650 O.2   408  TRP408     -0.2718
     36  CB       -75.6410  137.5310  439.0500 C.3   408  TRP408      0.0564
     37  CG       -74.3580  137.0680  438.4200 C.ar  408  TRP408      0.0003
     38  CD1      -73.6660  137.6890  437.4250 C.ar  408  TRP408      0.0946
     39  CD2      -73.6310  135.8730  438.7270 C.ar  408  TRP408      0.0152
     40  NE1      -72.5460  136.9660  437.1010 N.ar  408  TRP408     -0.2442
     41  CE2      -72.5000  135.8450  437.8860 C.ar  408  TRP408      0.0810
     42  CE3      -73.8120  134.8370  439.6470 C.ar  408  TRP408      0.0012
     43  CZ2      -71.5590  134.8160  437.9290 C.ar  408  TRP408      0.0191
     44  CZ3      -72.8780  133.8130  439.6870 C.ar  408  TRP408      0.0001
     45  CH2      -71.7660  133.8100  438.8330 C.ar  408  TRP408      0.0015
     46  N        -76.5600  136.8140  435.9180 N.am  409  TRP409     -0.1976
     47  CA       -76.5550  137.3200  434.5460 C.3   409  TRP409      0.1640
     48  C        -77.8180  136.8970  433.8120 C.2   409  TRP409      0.2290
     49  O        -78.0080  135.7120  433.5260 O.2   409  TRP409     -0.2864
     50  CB       -75.3230  136.8230  433.7960 C.3   409  TRP409      0.0576
     51  CG       -74.9660  137.6480  432.6080 C.ar  409  TRP409      0.0006
     52  CD1      -75.1690  138.9850  432.4460 C.ar  409  TRP409      0.0946
     53  CD2      -74.3430  137.1890  431.4060 C.ar  409  TRP409      0.0152
     54  NE1      -74.6980  139.3900  431.2280 N.ar  409  TRP409     -0.2442
     55  CE2      -74.1840  138.3050  430.5660 C.ar  409  TRP409      0.0810
     56  CE3      -73.8980  135.9410  430.9570 C.ar  409  TRP409      0.0012
     57  CZ2      -73.6110  138.2120  429.3000 C.ar  409  TRP409      0.0191
     58  CZ3      -73.3210  135.8530  429.7030 C.ar  409  TRP409      0.0001
     59  CH2      -73.1830  136.9790  428.8920 C.ar  409  TRP409      0.0015
     60  N        -66.1840  130.8660  425.8090 N.3   495  ARG495     -0.1245
     61  CA       -65.4210  130.8250  427.0540 C.3   495  ARG495      0.1563
     62  C        -65.5920  129.5080  427.8280 C.2   495  ARG495      0.2260
     63  O        -64.6660  129.0380  428.4880 O.2   495  ARG495     -0.2867
     64  CB       -65.7830  132.0170  427.9350 C.3   495  ARG495      0.0307
     65  CG       -67.1940  131.9920  428.4850 C.3   495  ARG495      0.0489
     66  CD       -67.5650  133.3170  429.0990 C.3   495  ARG495      0.2205
     67  NE       -68.8170  133.2130  429.8340 N.pl3 495  ARG495     -0.0865
     68  CZ       -69.4530  134.2390  430.3930 C.cat 495  ARG495      0.5346
     69  NH1      -68.9660  135.4690  430.2900 N.pl3 495  ARG495      0.1354
     70  NH2      -70.5850  134.0320  431.0500 N.pl3 495  ARG495      0.1354
     71  N        -61.8170  131.3780  424.2570 N.3   508  TRP508     -0.1241
     72  CA       -61.0590  132.4770  424.8260 C.3   508  TRP508      0.1605
     73  C        -61.1680  132.4150  426.3450 C.2   508  TRP508      0.2264
     74  O        -62.1170  131.8400  426.8750 O.2   508  TRP508     -0.2867
     75  CB       -61.5350  133.8260  424.2670 C.3   508  TRP508      0.0550
     76  CG       -62.5660  134.5780  425.0730 C.ar  508  TRP508      0.0003
     77  CD1      -62.3300  135.5940  425.9520 C.ar  508  TRP508      0.0946
     78  CD2      -63.9900  134.4150  425.0260 C.ar  508  TRP508      0.0152
     79  NE1      -63.5110  136.0630  426.4640 N.ar  508  TRP508     -0.2442
     80  CE2      -64.5460  135.3520  425.9180 C.ar  508  TRP508      0.0810
     81  CE3      -64.8490  133.5670  424.3210 C.ar  508  TRP508      0.0012
     82  CZ2      -65.9160  135.4600  426.1280 C.ar  508  TRP508      0.0191
     83  CZ3      -66.2170  133.6790  424.5340 C.ar  508  TRP508      0.0001
     84  CH2      -66.7330  134.6150  425.4290 C.ar  508  TRP508      0.0015
     85  N        -63.4240  136.7160  430.9790 N.3   511  ASP511     -0.1239
     86  CA       -63.3700  138.0900  431.4770 C.3   511  ASP511      0.1674
     87  C        -62.2420  138.3450  432.4800 C.2   511  ASP511      0.2266
     88  O        -62.0900  137.5990  433.4390 O.2   511  ASP511     -0.2867
     89  CB       -64.7120  138.4480  432.1290 C.3   511  ASP511      0.1410
     90  CG       -65.8910  138.2300  431.1980 C.2   511  ASP511      0.3668
     91  OD1      -65.6850  138.2300  429.9650 O.co2 511  ASP511     -0.2456
     92  OD2      -67.0250  138.0690  431.6960 O.co2 511  ASP511     -0.2456
     93  N        -60.1530  143.1070  429.0500 N.3   544  PHE544     -0.1241
     94  CA       -61.2370  143.9220  428.5130 C.3   544  PHE544      0.1605
     95  C        -61.9690  144.8020  429.5260 C.2   544  PHE544      0.2264
     96  O        -62.7750  145.6490  429.1370 O.2   544  PHE544     -0.2867
     97  CB       -62.2340  143.0110  427.7620 C.3   544  PHE544      0.0534
     98  CG       -63.4000  142.4990  428.5870 C.ar  544  PHE544     -0.0203
     99  CD1      -64.6650  142.4200  428.0180 C.ar  544  PHE544     -0.0042
    100  CD2      -63.2370  142.0380  429.8840 C.ar  544  PHE544     -0.0042
    101  CE1      -65.7480  141.9360  428.7350 C.ar  544  PHE544     -0.0003
    102  CE2      -64.3120  141.5640  430.6070 C.ar  544  PHE544     -0.0003
    103  CZ       -65.5680  141.5070  430.0360 C.ar  544  PHE544     -0.0000
    104  N        -64.9600  145.7280  427.3970 N.3   572  GLU572     -0.1231
    105  CA       -66.2420  145.5220  428.0620 C.3   572  GLU572      0.1699
    106  C        -67.2050  146.6860  427.8630 C.2   572  GLU572      0.2592
    107  O        -66.7820  147.8180  427.6730 O.2   572  GLU572     -0.2718
    108  CB       -66.0230  145.2830  429.5630 C.3   572  GLU572      0.0402
    109  CG       -67.2790  144.8420  430.3050 C.3   572  GLU572      0.1161
    110  CD       -67.0140  144.3090  431.7070 C.2   572  GLU572      0.3649
    111  OE1      -66.2000  144.8970  432.4550 O.co2 572  GLU572     -0.2457
    112  OE2      -67.6440  143.2960  432.0540 O.co2 572  GLU572     -0.2457
    113  N        -68.4980  146.3980  427.9730 N.am  573  PHE573     -0.1976
    114  CA       -69.5310  147.4240  427.9970 C.3   573  PHE573      0.1639
    115  C        -69.2500  148.4850  429.0700 C.2   573  PHE573      0.2290
    116  O        -69.0150  148.1610  430.2340 O.2   573  PHE573     -0.2864
    117  CB       -70.8670  146.7370  428.2610 C.3   573  PHE573      0.0560
    118  CG       -72.0200  147.6700  428.4580 C.ar  573  PHE573     -0.0200
    119  CD1      -72.4880  148.4480  427.4180 C.ar  573  PHE573     -0.0042
    120  CD2      -72.6730  147.7260  429.6780 C.ar  573  PHE573     -0.0042
    121  CE1      -73.5670  149.2860  427.5960 C.ar  573  PHE573     -0.0003
    122  CE2      -73.7530  148.5620  429.8630 C.ar  573  PHE573     -0.0003
    123  CZ       -74.2030  149.3390  428.8210 C.ar  573  PHE573     -0.0000
@<TRIPOS>BOND
     1    71    72    1
     2    75    72    1
     3    75    76    1
     4    81    83   ar
     5    81    78   ar
     6    83    84   ar
     7    72    73    1
     8    78    76   ar
     9    78    80   ar
    10    76    77   ar
    11    84    82   ar
    12    60    61    1
    13    80    82   ar
    14    80    79   ar
    15    77    79   ar
    16    73    74    2
    17    61    62    1
    18    61    64    1
    19   104   105    1
    20   119   121   ar
    21   119   118   ar
    22   121   123   ar
    23   107   106    2
    24    97    94    1
    25    97    98    1
    26    62    63    2
    27   106   113   am
    28   106   105    1
    29    64    65    1
    30   113   114    1
    31   114   117    1
    32   114   115    1
    33    99    98   ar
    34    99   101   ar
    35   105   108    1
    36   117   118    1
    37   118   120   ar
    38    65    66    1
    39    94    93    1
    40    94    95    1
    41    98   100   ar
    42   101   103   ar
    43   123   122   ar
    44    59    57   ar
    45    59    58   ar
    46   115   116    2
    47    66    67    1
    48    96    95    2
    49    57    55   ar
    50   108   109    1
    51   120   122   ar
    52    58    56   ar
    53    67    68    2
    54   100   102   ar
    55    91    90   ar
    56   103   102   ar
    57    69    68    1
    58   109   110    1
    59    68    70    1
    60    55    54   ar
    61    55    53   ar
    62    56    53   ar
    63    85    86    1
    64    90    92   ar
    65    90    89    1
    66    54    52   ar
    67    53    51   ar
    68    86    89    1
    69    86    87    1
    70   110   112   ar
    71   110   111   ar
    72    52    51   ar
    73    87    88    2
    74    51    50    1
    75    49    48    2
    76    50    47    1
    77    48    47    1
    78    16    17    1
    79    16    15    1
    80    19    17   ar
    81    17    18   ar
    82    28    26   ar
    83    28    30   ar
    84    31    30    1
    85    47    46    1
    86    15    12    1
    87    26    25   ar
    88    30    29   ar
    89    12    11    1
    90    12    13    1
    91    46    34   am
    92     9    10   ar
    93     9     7   ar
    94    10     8   ar
    95    25    27   ar
    96    25    24    1
    97    29    27   ar
    98    35    34    2
    99    13    14    2
   100    21    24    1
   101    21    22    1
   102    21    20    1
   103    34    33    1
   104    40    38   ar
   105    40    41   ar
   106    22    23    2
   107     7     6   ar
   108    38    37   ar
   109     8     6   ar
   110    41    43   ar
   111    41    39   ar
   112    43    45   ar
   113    32    33    1
   114    33    36    1
   115     6     5    1
   116    37    39   ar
   117    37    36    1
   118    39    42   ar
   119    45    44   ar
   120    42    44   ar
   121     5     2    1
   122     2     1    1
   123     2     3    1
   124     4     3    2
