@<TRIPOS>MOLECULE
tmp/5x40B01.pdb
 110 107 0 0 0
SMALL
GASTEIGER

@<TRIPOS>ATOM
      1  N          9.3130   27.6390  -18.5500 N.3    14  PHE14      -0.1228
      2  CA         9.8470   27.3180  -17.2290 C.3    14  PHE14       0.1721
      3  C         11.3590   27.2710  -17.2560 C.2    14  PHE14       0.2437
      4  O         11.9480   27.0690  -18.3150 O.2    14  PHE14      -0.2733
      5  CB         9.3050   25.9710  -16.7310 C.3    14  PHE14       0.0547
      6  CG         7.8960   26.0460  -16.2280 C.ar   14  PHE14      -0.0202
      7  CD1        7.6510   26.3690  -14.9000 C.ar   14  PHE14      -0.0042
      8  CD2        6.8160   25.8240  -17.0830 C.ar   14  PHE14      -0.0042
      9  CE1        6.3530   26.4530  -14.4210 C.ar   14  PHE14      -0.0003
     10  CE2        5.5070   25.9140  -16.6140 C.ar   14  PHE14      -0.0003
     11  CZ         5.2780   26.2360  -15.2780 C.ar   14  PHE14      -0.0000
     12  N         11.9950   27.4500  -16.0850 N.am   15  PRO15      -0.2729
     13  CA        13.4310   27.1760  -16.0260 C.3    15  PRO15       0.1401
     14  C         13.6890   25.7480  -16.4810 C.2    15  PRO15       0.2269
     15  O         13.0030   24.8190  -16.0400 O.2    15  PRO15      -0.2865
     16  CB        13.7710   27.3590  -14.5430 C.3    15  PRO15       0.0296
     17  CG        12.6890   28.2480  -14.0180 C.3    15  PRO15       0.0237
     18  CD        11.4570   27.8800  -14.7810 C.3    15  PRO15       0.0939
     19  N         11.0520   24.2920  -20.8480 N.3    18  VAL18      -0.1231
     20  CA         9.7440   23.8370  -21.2990 C.3    18  VAL18       0.1692
     21  C          8.7930   25.0290  -21.5120 C.2    18  VAL18       0.2592
     22  O          8.5120   25.7990  -20.5910 O.2    18  VAL18      -0.2718
     23  CB         9.1220   22.8260  -20.3080 C.3    18  VAL18       0.0266
     24  CG1        7.7090   22.4440  -20.7430 C.3    18  VAL18       0.0020
     25  CG2       10.0000   21.5780  -20.2030 C.3    18  VAL18       0.0020
     26  N          8.3110   25.1810  -22.7400 N.am   19  LYS19      -0.1966
     27  CA         7.4110   26.2800  -23.0790 C.3    19  LYS19       0.1728
     28  C          6.0070   26.0130  -22.5560 C.2    19  LYS19       0.2616
     29  O          5.4870   24.9030  -22.7050 O.2    19  LYS19      -0.2715
     30  CB         7.3680   26.4920  -24.5870 C.3    19  LYS19       0.0311
     31  CG         8.7170   26.7810  -25.1770 C.3    19  LYS19       0.0038
     32  CD         8.5950   27.1930  -26.6320 C.3    19  LYS19       0.0206
     33  CE         9.9230   27.6910  -27.1790 C.3    19  LYS19       0.1093
     34  NZ        10.9370   26.6110  -27.2450 N.3    19  LYS19      -0.1314
     35  N          5.3900   27.0230  -21.9470 N.am   20  ALA20      -0.1977
     36  CA         4.0680   26.8240  -21.3380 C.3    20  ALA20       0.1597
     37  C          3.0080   27.7960  -21.8510 C.2    20  ALA20       0.2287
     38  O          1.8760   27.3920  -22.1120 O.2    20  ALA20      -0.2864
     39  CB         4.1820   26.9190  -19.8170 C.3    20  ALA20       0.0319
     40  N         -4.6280   18.4320  -20.8960 N.3    40  ASN40      -0.1225
     41  CA        -3.4990   18.4230  -19.9820 C.3    40  ASN40       0.1785
     42  C         -2.2790   18.9690  -20.7210 C.2    40  ASN40       0.2598
     43  O         -1.9920   18.5450  -21.8410 O.2    40  ASN40      -0.2718
     44  CB        -3.2230   17.0080  -19.4510 C.3    40  ASN40       0.1169
     45  CG        -4.4070   16.4110  -18.6590 C.2    40  ASN40       0.2627
     46  OD1       -4.6960   15.2140  -18.7590 O.2    40  ASN40      -0.2716
     47  ND2       -5.0800   17.2360  -17.8760 N.am   40  ASN40      -0.0877
     48  N         -1.5860   19.9210  -20.0970 N.am   41  GLY41      -0.1942
     49  CA        -0.4160   20.5590  -20.6740 C.3    41  GLY41       0.2014
     50  C         -0.6740   21.7920  -21.5280 C.2    41  GLY41       0.2639
     51  O          0.2640   22.3640  -22.0760 O.2    41  GLY41      -0.2714
     52  N         -1.9320   22.2110  -21.6470 N.am   42  ALA42      -0.1963
     53  CA        -2.2830   23.3470  -22.4950 C.3    42  ALA42       0.1728
     54  C         -1.8220   24.6920  -21.9350 C.2    42  ALA42       0.2617
     55  O         -1.7720   25.6740  -22.6650 O.2    42  ALA42      -0.2715
     56  CB        -3.7870   23.3730  -22.7300 C.3    42  ALA42       0.0334
     57  N         -1.5100   24.7460  -20.6450 N.am   43  GLY43      -0.1940
     58  CA        -1.0830   25.9970  -20.0240 C.3    43  GLY43       0.2014
     59  C         -2.0890   26.6910  -19.1120 C.2    43  GLY43       0.2639
     60  O         -1.8820   27.8460  -18.7200 O.2    43  GLY43      -0.2714
     61  N         -3.1540   25.9860  -18.7360 N.am   44  LYS44      -0.1963
     62  CA        -4.1930   26.5780  -17.8920 C.3    44  LYS44       0.1728
     63  C         -3.6460   26.9830  -16.5140 C.2    44  LYS44       0.2617
     64  O         -3.8720   28.1120  -16.0680 O.2    44  LYS44      -0.2715
     65  CB        -5.3750   25.6030  -17.7350 C.3    44  LYS44       0.0311
     66  CG        -5.9450   25.1100  -19.0760 C.3    44  LYS44       0.0038
     67  CD        -7.1350   24.1500  -18.9110 C.3    44  LYS44       0.0206
     68  CE        -6.7850   22.8690  -18.1480 C.3    44  LYS44       0.1093
     69  NZ        -5.8260   22.0090  -18.9170 N.3    44  LYS44      -0.1314
     70  N         -2.9300   26.0720  -15.8550 N.am   45  SER45      -0.1936
     71  CA        -2.3710   26.3750  -14.5310 C.3    45  SER45       0.2055
     72  C         -1.3630   27.5010  -14.5860 C.2    45  SER45       0.2643
     73  O         -1.3670   28.3950  -13.7370 O.2    45  SER45      -0.2714
     74  CB        -1.7120   25.1390  -13.9190 C.3    45  SER45       0.2130
     75  OG        -2.6890   24.1580  -13.6230 O.3    45  SER45      -0.2179
     76  N         -0.4930   27.4650  -15.5850 N.am   46  THR46      -0.1950
     77  CA         0.5530   28.4670  -15.7020 C.3    46  THR46       0.1897
     78  C         -0.0780   29.8360  -15.9420 C.2    46  THR46       0.2313
     79  O          0.3680   30.8450  -15.3830 O.2    46  THR46      -0.2863
     80  CB         1.5340   28.0990  -16.8400 C.3    46  THR46       0.1794
     81  OG1        2.1670   26.8490  -16.5240 O.3    46  THR46      -0.2208
     82  CG2        2.5890   29.1620  -17.0060 C.3    46  THR46       0.0378
     83  N         -4.0920   23.8500   -7.6470 N.3    88  GLN88      -0.1245
     84  CA        -4.5640   22.5650   -8.1350 C.3    88  GLN88       0.1566
     85  C         -4.3920   21.4490   -7.1020 C.2    88  GLN88       0.2260
     86  O         -5.2720   20.6170   -6.9440 O.2    88  GLN88      -0.2867
     87  CB        -3.8320   22.2060   -9.4230 C.3    88  GLN88       0.0367
     88  CG        -4.4250   21.0100  -10.1100 C.3    88  GLN88       0.0905
     89  CD        -3.7110   20.6670  -11.4000 C.2    88  GLN88       0.2608
     90  OE1       -3.2310   19.5500  -11.5630 O.2    88  GLN88      -0.2717
     91  NE2       -3.6570   21.6070  -12.3250 N.am   88  GLN88      -0.0878
     92  N         -8.9440   23.8320  -11.1390 N.3   166  GLN166     -0.1245
     93  CA        -9.6440   22.5570  -11.0430 C.3   166  GLN166      0.1566
     94  C        -10.2450   22.3780   -9.6390 C.2   166  GLN166      0.2260
     95  O         -9.9340   21.4340   -8.8960 O.2   166  GLN166     -0.2867
     96  CB        -8.6990   21.4210  -11.4330 C.3   166  GLN166      0.0367
     97  CG        -8.2610   21.5740  -12.9010 C.3   166  GLN166      0.0905
     98  CD        -7.2260   20.5670  -13.3290 C.2   166  GLN166      0.2608
     99  OE1       -7.0730   19.5100  -12.7180 O.2   166  GLN166     -0.2717
    100  NE2       -6.4870   20.9000  -14.3740 N.am  166  GLN166     -0.0878
    101  N        -11.8220   20.3670  -16.0550 N.3   198  HIS198     -0.1241
    102  CA       -12.0660   19.3330  -17.0430 C.3   198  HIS198      0.1621
    103  C        -13.5180   18.8760  -17.0040 C.2   198  HIS198      0.2264
    104  O        -13.9190   17.9960  -17.7550 O.2   198  HIS198     -0.2867
    105  CB       -11.1080   18.1650  -16.8170 C.3   198  HIS198      0.0745
    106  CG        -9.6890   18.5270  -17.0930 C.ar  198  HIS198      0.0817
    107  ND1       -9.2160   18.7530  -18.3680 N.ar  198  HIS198     -0.2268
    108  CD2       -8.6490   18.7570  -16.2560 C.ar  198  HIS198      0.1154
    109  CE1       -7.9380   19.0830  -18.3080 C.ar  198  HIS198      0.1986
    110  NE2       -7.5730   19.1030  -17.0370 N.ar  198  HIS198     -0.2212
@<TRIPOS>BOND
     1    34    33    1
     2    33    32    1
     3    32    31    1
     4    31    30    1
     5    30    27    1
     6    27    26    1
     7    27    28    1
     8    26    21   am
     9    56    53    1
    10    29    28    2
    11    55    54    2
    12    28    35   am
    13    53    54    1
    14    53    52    1
    15    38    37    2
    16    51    50    2
    17    35    36    1
    18    54    57   am
    19    37    36    1
    20    43    42    2
    21    52    50   am
    22    50    49    1
    23    21    20    1
    24    21    22    2
    25    36    39    1
    26    20    19    1
    27    20    23    1
    28    40    41    1
    29    24    23    1
    30    42    48   am
    31    42    41    1
    32    49    48    1
    33    57    58    1
    34    23    25    1
    35    58    59    1
    36    41    44    1
    37    44    45    1
    38    59    61   am
    39    59    60    2
    40    66    67    1
    41    66    65    1
    42    69    68    1
    43    67    68    1
    44    46    45    2
    45    61    62    1
    46    45    47   am
    47     1     2    1
    48   107   109   ar
    49   107   106   ar
    50     4     3    2
    51   109   110   ar
    52    62    65    1
    53    62    63    1
    54   104   103    2
    55     3     2    1
    56     3    12   am
    57     2     5    1
    58   106   105    1
    59   106   108   ar
    60     8    10   ar
    61     8     6   ar
    62   102   103    1
    63   102   105    1
    64   102   101    1
    65   110   108   ar
    66    82    80    1
    67    80    81    1
    68    80    77    1
    69     5     6    1
    70    10    11   ar
    71    63    64    2
    72    63    70   am
    73    14    15    2
    74    14    13    1
    75     6     7   ar
    76    12    13    1
    77    12    18    1
    78    13    16    1
    79    78    77    1
    80    78    79    2
    81    70    71    1
    82    77    76    1
    83    76    72   am
    84    11     9   ar
    85     7     9   ar
    86    18    17    1
    87    72    71    1
    88    72    73    2
    89    16    17    1
    90    71    74    1
    91   100    98   am
    92    74    75    1
    93    98    97    1
    94    98    99    2
    95    97    96    1
    96    91    89   am
    97    90    89    2
    98    96    93    1
    99    89    88    1
   100    92    93    1
   101    93    94    1
   102    88    87    1
   103    94    95    2
   104    87    84    1
   105    84    83    1
   106    84    85    1
   107    85    86    2
