@<TRIPOS>MOLECULE
tmp/5x40B00.pdb
 72 69 0 0 0
SMALL
GASTEIGER

@<TRIPOS>ATOM
      1  N         -8.7040   20.1750   13.8500 N.3   136  ARG136     -0.1245
      2  CA        -7.9910   19.0860   13.2190 C.3   136  ARG136      0.1563
      3  C         -6.7020   19.6170   12.6020 C.2   136  ARG136      0.2260
      4  O         -6.7420   20.5850   11.8350 O.2   136  ARG136     -0.2867
      5  CB        -8.8790   18.4470   12.1370 C.3   136  ARG136      0.0307
      6  CG        -8.3280   17.1850   11.5280 C.3   136  ARG136      0.0489
      7  CD        -8.5670   15.9620   12.4270 C.3   136  ARG136      0.2205
      8  NE        -9.9780   15.5980   12.5570 N.pl3 136  ARG136     -0.0865
      9  CZ       -10.6460   14.8560   11.6720 C.cat 136  ARG136      0.5346
     10  NH1      -10.0410   14.4070   10.5820 N.pl3 136  ARG136      0.1354
     11  NH2      -11.9210   14.5690   11.8730 N.pl3 136  ARG136      0.1354
     12  N         -2.9200   17.9050    8.2590 N.3   139  HIS139     -0.1226
     13  CA        -2.4480   16.6430    7.6880 C.3   139  HIS139      0.1752
     14  C         -3.3850   15.4810    8.0310 C.2   139  HIS139      0.2596
     15  O         -3.3580   14.4380    7.3690 O.2   139  HIS139     -0.2718
     16  CB        -0.9980   16.3380    8.1250 C.3   139  HIS139      0.0759
     17  CG        -0.8560   15.8490    9.5340 C.ar  139  HIS139      0.0818
     18  ND1       -0.6650   16.6980   10.6040 N.ar  139  HIS139     -0.2268
     19  CD2       -0.8300   14.5930   10.0410 C.ar  139  HIS139      0.1154
     20  CE1       -0.5390   15.9860   11.7100 C.ar  139  HIS139      0.1986
     21  NE2       -0.6270   14.7070   11.3960 N.ar  139  HIS139     -0.2212
     22  N         -4.2360   15.6720    9.0350 N.am  140  MET140     -0.1965
     23  CA        -5.1720   14.6310    9.4440 C.3   140  MET140      0.1736
     24  C         -6.5100   14.8020    8.7320 C.2   140  MET140      0.2616
     25  O         -7.5630   14.9140    9.3700 O.2   140  MET140     -0.2715
     26  CB        -5.3770   14.6470   10.9550 C.3   140  MET140      0.0427
     27  CG        -4.1110   14.3640   11.7620 C.3   140  MET140      0.0599
     28  SD        -4.5240   14.2210   13.5140 S.3   140  MET140     -0.1393
     29  CE        -2.9180   13.9330   14.2460 C.3   140  MET140      0.0692
     30  N         -6.4570   14.8160    7.4010 N.am  141  LEU141     -0.1963
     31  CA        -7.6190   15.1010    6.5700 C.3   141  LEU141      0.1728
     32  C         -7.5810   14.2600    5.3210 C.2   141  LEU141      0.2617
     33  O         -6.4960   13.9240    4.8360 O.2   141  LEU141     -0.2715
     34  CB        -7.6650   16.5820    6.1790 C.3   141  LEU141      0.0311
     35  CG        -7.9150   17.6190    7.2820 C.3   141  LEU141      0.0022
     36  CD1       -7.7800   19.0230    6.7100 C.3   141  LEU141      0.0001
     37  CD2       -9.2840   17.4010    7.9240 C.3   141  LEU141      0.0001
     38  N         -8.7560   13.9360    4.7910 N.am  142  SER142     -0.1936
     39  CA        -8.8330   13.3220    3.4670 C.3   142  SER142      0.2055
     40  C         -8.5770   14.3570    2.3720 C.2   142  SER142      0.2644
     41  O         -8.6300   15.5620    2.6130 O.2   142  SER142     -0.2714
     42  CB       -10.1970   12.6690    3.2280 C.3   142  SER142      0.2130
     43  OG       -11.1830   13.6400    2.9160 O.3   142  SER142     -0.2179
     44  N         -8.3410   13.8790    1.1520 N.am  143  GLY143     -0.1939
     45  CA        -8.1110   14.7940    0.0470 C.3   143  GLY143      0.2014
     46  C         -9.2320   15.8020   -0.1790 C.2   143  GLY143      0.2639
     47  O         -8.9830   16.9890   -0.4270 O.2   143  GLY143     -0.2714
     48  N        -10.4750   15.3410   -0.1060 N.am  144  GLY144     -0.1939
     49  CA       -11.6080   16.2290   -0.3250 C.3   144  GLY144      0.2014
     50  C        -11.8000   17.2160    0.8200 C.2   144  GLY144      0.2638
     51  O        -12.2470   18.3340    0.6160 O.2   144  GLY144     -0.2714
     52  N        -11.4640   16.8090    2.0420 N.am  145  GLN145     -0.1977
     53  CA       -11.4970   17.7220    3.1800 C.3   145  GLN145      0.1601
     54  C        -10.4120   18.7930    3.0160 C.2   145  GLN145      0.2287
     55  O        -10.6680   19.9750    3.2460 O.2   145  GLN145     -0.2864
     56  CB       -11.3180   16.9390    4.4800 C.3   145  GLN145      0.0394
     57  CG       -12.5120   16.0320    4.8170 C.3   145  GLN145      0.0908
     58  CD       -12.2550   15.1690    6.0380 C.2   145  GLN145      0.2608
     59  OE1      -11.1680   14.6060    6.1930 O.2   145  GLN145     -0.2717
     60  NE2      -13.2410   15.0630    6.9040 N.am  145  GLN145     -0.0878
     61  N        -11.7010   15.7250   -7.0690 N.3   170  GLY170     -0.1225
     62  CA       -11.6650   15.0810   -5.7610 C.3   170  GLY170      0.1811
     63  C        -12.7910   15.4320   -4.7780 C.2   170  GLY170      0.2280
     64  O        -12.8770   14.8750   -3.6780 O.2   170  GLY170     -0.2866
     65  N        -16.6560   15.3920   -3.4300 N.3   172  ASP172     -0.1239
     66  CA       -17.8560   14.5670   -3.5910 C.3   172  ASP172      0.1674
     67  C        -19.0030   15.4270   -4.1210 C.2   172  ASP172      0.2266
     68  O        -18.8580   16.6410   -4.2990 O.2   172  ASP172     -0.2867
     69  CB       -18.2360   13.8290   -2.2800 C.3   172  ASP172      0.1410
     70  CG       -18.4830   14.7520   -1.0960 C.2   172  ASP172      0.3668
     71  OD1      -18.7260   15.9570   -1.2840 O.co2 172  ASP172     -0.2456
     72  OD2      -18.4500   14.2400    0.0540 O.co2 172  ASP172     -0.2456
@<TRIPOS>BOND
     1    61    62    1
     2    62    63    1
     3    63    64    2
     4    68    67    2
     5    67    66    1
     6    66    65    1
     7    66    69    1
     8    69    70    1
     9    71    70   ar
    10    70    72   ar
    11    47    46    2
    12    49    48    1
    13    49    50    1
    14    46    48   am
    15    46    45    1
    16    45    44    1
    17    51    50    2
    18    50    52   am
    19    44    40   am
    20    52    53    1
    21    40    41    2
    22    40    39    1
    23    43    42    1
    24    54    53    1
    25    54    55    2
    26    53    56    1
    27    42    39    1
    28    39    38    1
    29    56    57    1
    30    38    32   am
    31    57    58    1
    32    33    32    2
    33    32    31    1
    34    58    59    2
    35    58    60   am
    36    34    31    1
    37    34    35    1
    38    31    30    1
    39    36    35    1
    40    35    37    1
    41    15    14    2
    42    30    24   am
    43    13    14    1
    44    13    16    1
    45    13    12    1
    46    14    22   am
    47    16    17    1
    48    24    25    2
    49    24    23    1
    50    22    23    1
    51    23    26    1
    52    17    19   ar
    53    17    18   ar
    54    19    21   ar
    55    10     9    1
    56    18    20   ar
    57    26    27    1
    58    21    20   ar
    59     6     5    1
    60     6     7    1
    61     9    11    1
    62     9     8    2
    63    27    28    1
    64     4     3    2
    65     5     2    1
    66     7     8    1
    67     3     2    1
    68     2     1    1
    69    28    29    1
