@<TRIPOS>MOLECULE
tmp/5x49B00.pdb
 181 172 0 0 0
SMALL
GASTEIGER

@<TRIPOS>ATOM
      1  N          0.7120  -34.0710    0.9290 N.3    15  GLU15      -0.1245
      2  CA         0.2160  -34.0170    2.3060 C.3    15  GLU15       0.1567
      3  C         -1.0550  -33.1710    2.3990 C.2    15  GLU15       0.2260
      4  O         -2.0330  -33.5780    3.0400 O.2    15  GLU15      -0.2867
      5  CB         1.2860  -33.5220    3.2700 C.3    15  GLU15       0.0388
      6  CG         0.7530  -33.5170    4.7190 C.3    15  GLU15       0.1160
      7  CD         1.8020  -33.7620    5.7800 C.2    15  GLU15       0.3649
      8  OE1        2.9410  -34.1480    5.4530 O.co2  15  GLU15      -0.2457
      9  OE2        1.4730  -33.5080    6.9600 O.co2  15  GLU15      -0.2457
     10  N         -3.8790  -35.1540    1.0080 N.3    18  LEU18      -0.1231
     11  CA        -4.3470  -36.1980    1.9130 C.3    18  LEU18       0.1693
     12  C         -5.2110  -35.6160    3.0300 C.2    18  LEU18       0.2591
     13  O         -6.1600  -36.2760    3.4730 O.2    18  LEU18      -0.2718
     14  CB        -3.1620  -36.9680    2.4880 C.3    18  LEU18       0.0284
     15  CG        -2.4680  -37.7940    1.3990 C.3    18  LEU18       0.0019
     16  CD1       -1.1460  -38.3300    1.9160 C.3    18  LEU18       0.0001
     17  CD2       -3.3620  -38.9050    0.8920 C.3    18  LEU18       0.0001
     18  N         -4.9480  -34.3790    3.4570 N.am   19  ARG19      -0.1980
     19  CA        -5.8350  -33.7690    4.4470 C.3    19  ARG19       0.1597
     20  C         -7.2240  -33.5800    3.8580 C.2    19  ARG19       0.2287
     21  O         -8.2310  -33.8690    4.5070 O.2    19  ARG19      -0.2864
     22  CB        -5.2880  -32.4140    4.9340 C.3    19  ARG19       0.0334
     23  CG        -3.9350  -32.5180    5.6410 C.3    19  ARG19       0.0492
     24  CD        -3.3830  -31.1290    5.9020 C.3    19  ARG19       0.2205
     25  NE        -2.1450  -31.1790    6.6740 N.pl3  19  ARG19      -0.0865
     26  CZ        -1.4630  -30.0880    6.9970 C.cat  19  ARG19       0.5346
     27  NH1       -1.8710  -28.8900    6.5650 N.pl3  19  ARG19       0.1354
     28  NH2       -0.3460  -30.1900    7.7160 N.pl3  19  ARG19       0.1354
     29  N         -8.6070  -35.3260    1.4090 N.3    21  HIS21      -0.1226
     30  CA        -9.1920  -36.6580    1.3260 C.3    21  HIS21       0.1752
     31  C         -9.7770  -37.0880    2.6680 C.2    21  HIS21       0.2595
     32  O        -10.8980  -37.6080    2.7310 O.2    21  HIS21      -0.2718
     33  CB        -8.1220  -37.6510    0.8610 C.3    21  HIS21       0.0759
     34  CG        -8.4880  -39.0910    1.0330 C.ar   21  HIS21       0.0818
     35  ND1       -9.0330  -39.8370    0.0110 N.ar   21  HIS21      -0.2268
     36  CD2       -8.3460  -39.9350    2.0860 C.ar   21  HIS21       0.1154
     37  CE1       -9.2280  -41.0810    0.4300 C.ar   21  HIS21       0.1986
     38  NE2       -8.8260  -41.1630    1.6890 N.ar   21  HIS21      -0.2212
     39  N         -9.0180  -36.8980    3.7450 N.am   22  LYS22      -0.1980
     40  CA        -9.5170  -37.3160    5.0550 C.3    22  LYS22       0.1596
     41  C        -10.7520  -36.5170    5.4520 C.2    22  LYS22       0.2287
     42  O        -11.6530  -37.0510    6.1040 O.2    22  LYS22      -0.2864
     43  CB        -8.4200  -37.1800    6.1180 C.3    22  LYS22       0.0298
     44  CG        -7.3250  -38.2340    5.9190 C.3    22  LYS22       0.0038
     45  CD        -6.2840  -38.1120    7.0410 C.3    22  LYS22       0.0206
     46  CE        -5.1760  -39.1280    6.8570 C.3    22  LYS22       0.1093
     47  NZ        -4.1760  -39.0830    7.9740 N.3    22  LYS22      -0.1314
     48  N        -13.6460  -37.9570    3.7400 N.3    25  SER25      -0.1202
     49  CA       -13.9820  -39.2240    4.3870 C.3    25  SER25       0.2020
     50  C        -14.8480  -39.0010    5.6250 C.2    25  SER25       0.2618
     51  O        -15.7930  -39.7640    5.8790 O.2    25  SER25      -0.2717
     52  CB       -12.6980  -39.9660    4.7630 C.3    25  SER25       0.2103
     53  OG       -12.0580  -40.4950    3.6140 O.3    25  SER25      -0.2182
     54  N        -14.5290  -37.9650    6.4160 N.am   26  LEU26      -0.1979
     55  CA       -15.3500  -37.6330    7.5800 C.3    26  LEU26       0.1596
     56  C        -16.7450  -37.1910    7.1550 C.2    26  LEU26       0.2287
     57  O        -17.7410  -37.5490    7.7950 O.2    26  LEU26      -0.2864
     58  CB       -14.6970  -36.5210    8.4170 C.3    26  LEU26       0.0297
     59  CG       -13.4490  -36.8960    9.2010 C.3    26  LEU26       0.0022
     60  CD1      -12.9480  -35.7000    9.9880 C.3    26  LEU26       0.0001
     61  CD2      -13.7510  -38.0560   10.1300 C.3    26  LEU26       0.0001
     62  N        -19.1290  -40.0630    6.3020 N.3    29  LYS29      -0.1245
     63  CA       -19.7280  -40.7420    7.4420 C.3    29  LYS29       0.1561
     64  C        -20.9200  -39.9910    8.0200 C.2    29  LYS29       0.2260
     65  O        -21.7770  -40.6190    8.6500 O.2    29  LYS29      -0.2867
     66  CB       -18.6650  -40.9640    8.5120 C.3    29  LYS29       0.0271
     67  CG       -17.5820  -41.8970    8.0240 C.3    29  LYS29       0.0035
     68  CD       -16.3810  -41.9520    8.9340 C.3    29  LYS29       0.0206
     69  CE       -15.3860  -42.9750    8.3920 C.3    29  LYS29       0.1093
     70  NZ       -16.0510  -43.9200    7.4420 N.3    29  LYS29      -0.1314
     71  N         -4.7700  -24.9790    6.6000 N.3    61  TYR61      -0.1241
     72  CA        -4.5750  -26.4130    6.8030 C.3    61  TYR61       0.1605
     73  C         -4.9730  -27.2220    5.5750 C.2    61  TYR61       0.2264
     74  O         -4.2950  -28.1980    5.2170 O.2    61  TYR61      -0.2867
     75  CB        -5.3760  -26.8660    8.0290 C.3    61  TYR61       0.0534
     76  CG        -5.2300  -28.3240    8.3810 C.ar   61  TYR61      -0.0201
     77  CD1       -4.0940  -28.7760    9.0530 C.ar   61  TYR61      -0.0009
     78  CD2       -6.2250  -29.2300    8.0540 C.ar   61  TYR61      -0.0009
     79  CE1       -3.9560  -30.1410    9.3900 C.ar   61  TYR61       0.0417
     80  CE2       -6.1090  -30.5960    8.4060 C.ar   61  TYR61       0.0417
     81  CZ        -4.9670  -31.0150    9.0650 C.ar   61  TYR61       0.1957
     82  OH        -4.8410  -32.3380    9.4070 O.3    61  TYR61      -0.2866
     83  N        -11.0240  -32.3210   14.0780 N.3   180  ARG180     -0.1231
     84  CA       -10.6990  -33.7270   14.3350 C.3   180  ARG180      0.1694
     85  C         -9.4310  -34.1250   13.5980 C.2   180  ARG180      0.2591
     86  O         -8.6370  -34.9220   14.1020 O.2   180  ARG180     -0.2718
     87  CB       -11.8580  -34.6430   13.9340 C.3   180  ARG180      0.0321
     88  CG       -13.0270  -34.5860   14.9010 C.3   180  ARG180      0.0489
     89  CD       -14.0990  -35.6100   14.5380 C.3   180  ARG180      0.2205
     90  NE       -13.5350  -36.9510   14.5480 N.pl3 180  ARG180     -0.0865
     91  CZ       -14.1540  -38.0190   14.0420 C.cat 180  ARG180      0.5346
     92  NH1      -15.3510  -37.8860   13.4840 N.pl3 180  ARG180      0.1354
     93  NH2      -13.5710  -39.2070   14.0880 N.pl3 180  ARG180      0.1354
     94  N         -9.2200  -33.5690   12.4030 N.am  181  LEU181     -0.1980
     95  CA        -7.9970  -33.8550   11.6670 C.3   181  LEU181      0.1596
     96  C         -6.8020  -33.1510   12.2830 C.2   181  LEU181      0.2287
     97  O         -5.7510  -33.7760   12.4800 O.2   181  LEU181     -0.2864
     98  CB        -8.1610  -33.4560   10.1960 C.3   181  LEU181      0.0297
     99  CG        -9.3040  -34.1600    9.4570 C.3   181  LEU181      0.0022
    100  CD1       -9.3740  -33.6660    7.9990 C.3   181  LEU181      0.0001
    101  CD2       -9.1380  -35.6790    9.4520 C.3   181  LEU181      0.0001
    102  N         -6.2360  -32.3250   15.1630 N.3   183  LEU183     -0.1231
    103  CA        -5.9000  -32.9280   16.4480 C.3   183  LEU183      0.1693
    104  C         -4.7320  -33.9200   16.3630 C.2   183  LEU183      0.2592
    105  O         -3.9760  -34.0610   17.3340 O.2   183  LEU183     -0.2718
    106  CB        -7.1630  -33.6270   16.9660 C.3   183  LEU183      0.0284
    107  CG        -7.2640  -34.2160   18.3600 C.3   183  LEU183      0.0019
    108  CD1       -6.9790  -33.1640   19.4710 C.3   183  LEU183      0.0001
    109  CD2       -8.6770  -34.8470   18.4960 C.3   183  LEU183      0.0001
    110  N         -4.5640  -34.6290   15.2350 N.am  184  ILE184     -0.1966
    111  CA        -3.5250  -35.6510   15.0900 C.3   184  ILE184      0.1727
    112  C         -2.4930  -35.1460   14.0880 C.2   184  ILE184      0.2616
    113  O         -2.7930  -35.0410   12.8870 O.2   184  ILE184     -0.2715
    114  CB        -4.1060  -36.9900   14.6110 C.3   184  ILE184      0.0290
    115  CG1       -5.3360  -37.3550   15.4370 C.3   184  ILE184      0.0022
    116  CG2       -3.0190  -38.0920   14.6230 C.3   184  ILE184      0.0023
    117  CD1       -5.0370  -37.6420   16.8860 C.3   184  ILE184      0.0001
    118  N         -1.2760  -34.8720   14.5660 N.am  185  LYS185     -0.1963
    119  CA        -0.2300  -34.3040   13.7140 C.3   185  LYS185      0.1728
    120  C          0.4980  -35.3920   12.9360 C.2   185  LYS185      0.2616
    121  O          0.8120  -36.4620   13.4690 O.2   185  LYS185     -0.2715
    122  CB         0.8090  -33.5370   14.5400 C.3   185  LYS185      0.0311
    123  CG         0.4260  -32.0760   14.8890 C.3   185  LYS185      0.0038
    124  CD        -0.8550  -31.9940   15.7370 C.3   185  LYS185      0.0206
    125  CE        -1.0720  -30.5530   16.2460 C.3   185  LYS185      0.1093
    126  NZ        -2.4440  -30.4160   16.8830 N.3   185  LYS185     -0.1314
    127  N          0.8280  -35.0850   11.6910 N.am  186  SER186     -0.1950
    128  CA         1.6910  -35.9330   10.8730 C.3   186  SER186      0.1924
    129  C          3.1420  -35.7470   11.2860 C.2   186  SER186      0.2314
    130  O          3.4710  -34.7920   11.9820 O.2   186  SER186     -0.2863
    131  CB         1.5620  -35.5360    9.4090 C.3   186  SER186      0.2116
    132  OG         2.2020  -34.2690    9.2480 O.3   186  SER186     -0.2180
    133  N          4.2680  -32.2770   10.3870 N.3   189  GLU189     -0.1245
    134  CA         3.7920  -31.2520   11.3220 C.3   189  GLU189      0.1567
    135  C          4.5870  -31.2680   12.6190 C.2   189  GLU189      0.2260
    136  O          4.9070  -30.2110   13.1800 O.2   189  GLU189     -0.2867
    137  CB         2.3070  -31.4370   11.6260 C.3   189  GLU189      0.0388
    138  CG         1.3950  -31.1580   10.4130 C.3   189  GLU189      0.1160
    139  CD        -0.0690  -31.3780   10.7820 C.2   189  GLU189      0.3649
    140  OE1       -0.5190  -32.5460   10.8250 O.co2 189  GLU189     -0.2457
    141  OE2       -0.7530  -30.3720   11.0610 O.co2 189  GLU189     -0.2457
    142  N        -12.7590  -27.1160   20.4210 N.3   373  ASP373     -0.1225
    143  CA       -13.9770  -27.8720   20.6740 C.3   373  ASP373      0.1805
    144  C        -13.7250  -29.3640   20.8500 C.2   373  ASP373      0.2598
    145  O        -14.6730  -30.1150   21.0920 O.2   373  ASP373     -0.2718
    146  CB       -14.9800  -27.6270   19.5420 C.3   373  ASP373      0.1424
    147  CG       -15.3620  -26.1590   19.4440 C.2   373  ASP373      0.3668
    148  OD1      -15.8090  -25.5960   20.4680 O.co2 373  ASP373     -0.2456
    149  OD2      -15.1240  -25.5440   18.3920 O.co2 373  ASP373     -0.2456
    150  N        -12.4820  -29.8070   20.7630 N.am  374  MET374     -0.1966
    151  CA       -12.1860  -31.2040   21.0380 C.3   374  MET374      0.1721
    152  C        -12.1390  -31.4090   22.5460 C.2   374  MET374      0.2458
    153  O        -11.4680  -30.6410   23.2420 O.2   374  MET374     -0.2730
    154  CB       -10.8470  -31.6010   20.4180 C.3   374  MET374      0.0427
    155  CG       -10.8140  -31.4410   18.8950 C.3   374  MET374      0.0599
    156  SD       -11.9520  -32.5450   18.0300 S.3   374  MET374     -0.1393
    157  CE       -13.4220  -31.5350   17.8710 C.3   374  MET374      0.0692
    158  N        -12.8350  -32.4100   23.0830 N.am  375  PRO375     -0.2727
    159  CA       -12.9340  -32.5250   24.5480 C.3   375  PRO375      0.1402
    160  C        -11.5880  -32.7840   25.1980 C.2   375  PRO375      0.2269
    161  O        -10.7270  -33.4820   24.6600 O.2   375  PRO375     -0.2865
    162  CB       -13.8860  -33.7050   24.7510 C.3   375  PRO375      0.0296
    163  CG       -14.7060  -33.7420   23.4820 C.3   375  PRO375      0.0237
    164  CD       -13.7890  -33.2800   22.3770 C.3   375  PRO375      0.0939
    165  N        -10.9520  -36.5440   26.0110 N.3   378  LEU378     -0.1245
    166  CA       -10.5660  -37.5230   25.0050 C.3   378  LEU378      0.1561
    167  C         -9.3180  -38.2850   25.4540 C.2   378  LEU378      0.2260
    168  O         -8.3690  -37.6890   25.9430 O.2   378  LEU378     -0.2867
    169  CB       -10.2580  -36.8180   23.6740 C.3   378  LEU378      0.0270
    170  CG       -11.3910  -36.2140   22.8560 C.3   378  LEU378      0.0019
    171  CD1      -10.7660  -35.5180   21.6170 C.3   378  LEU378      0.0001
    172  CD2      -12.4050  -37.2570   22.4530 C.3   378  LEU378      0.0001
    173  N         -3.8560  -39.8780   22.0360 N.3   381  GLN381     -0.1245
    174  CA        -3.4130  -40.7910   20.9920 C.3   381  GLN381      0.1566
    175  C         -2.0970  -40.2850   20.4320 C.2   381  GLN381      0.2260
    176  O         -1.8340  -39.0750   20.4520 O.2   381  GLN381     -0.2867
    177  CB        -4.4000  -40.8690   19.8110 C.3   381  GLN381      0.0367
    178  CG        -5.8220  -41.2450   20.0810 C.3   381  GLN381      0.0905
    179  CD        -6.6710  -41.0300   18.8180 C.2   381  GLN381      0.2608
    180  OE1       -6.1970  -41.2400   17.6920 O.2   381  GLN381     -0.2717
    181  NE2       -7.9120  -40.5970   18.9980 N.am  381  GLN381     -0.0878
@<TRIPOS>BOND
     1    35    37   ar
     2    35    34   ar
     3    37    38   ar
     4    33    34    1
     5    33    30    1
     6    17    15    1
     7     1     2    1
     8    10    11    1
     9    34    36   ar
    10    30    29    1
    11    30    31    1
    12    15    16    1
    13    15    14    1
    14    38    36   ar
    15    11    14    1
    16    11    12    1
    17     2     3    1
    18     2     5    1
    19     3     4    2
    20    31    32    2
    21    31    39   am
    22    12    18   am
    23    12    13    2
    24     5     6    1
    25    18    19    1
    26    53    52    1
    27    48    49    1
    28    39    40    1
    29    20    19    1
    30    20    21    2
    31    49    52    1
    32    49    50    1
    33    19    22    1
    34     6     7    1
    35    22    23    1
    36    40    41    1
    37    40    43    1
    38    74    73    2
    39    41    42    2
    40     8     7   ar
    41    73    72    1
    42    50    51    2
    43    50    54   am
    44    23    24    1
    45     7     9   ar
    46    24    25    1
    47    44    43    1
    48    44    45    1
    49    62    63    1
    50    54    55    1
    51    27    26    1
    52    71    72    1
    53    25    26    2
    54    72    75    1
    55    46    45    1
    56    46    47    1
    57    26    28    1
    58    56    55    1
    59    56    57    2
    60    70    69    1
    61    63    64    1
    62    63    66    1
    63    55    58    1
    64   100    99    1
    65    64    65    2
    66    67    66    1
    67    67    68    1
    68    75    76    1
    69    78    76   ar
    70    78    80   ar
    71    76    77   ar
    72    69    68    1
    73    80    81   ar
    74    58    59    1
    75    77    79   ar
    76    81    79   ar
    77    81    82    1
    78    59    60    1
    79    59    61    1
    80   132   131    1
    81   131   128    1
    82   101    99    1
    83    99    98    1
    84    98    95    1
    85   133   134    1
    86   138   139    1
    87   138   137    1
    88   139   140   ar
    89   139   141   ar
    90   128   129    1
    91   128   127    1
    92   129   130    2
    93   134   137    1
    94   134   135    1
    95    95    96    1
    96    95    94    1
    97   127   120   am
    98    96    97    2
    99    94    85   am
   100   135   136    2
   101   113   112    2
   102   120   121    2
   103   120   119    1
   104    92    91    1
   105    85    86    2
   106    85    84    1
   107   119   122    1
   108   119   118    1
   109    87    84    1
   110    87    88    1
   111    91    93    1
   112    91    90    2
   113    83    84    1
   114   112   118   am
   115   112   111    1
   116    89    90    1
   117    89    88    1
   118   122   123    1
   119   114   116    1
   120   114   111    1
   121   114   115    1
   122   123   124    1
   123   111   110    1
   124   102   103    1
   125   110   104   am
   126   115   117    1
   127   124   125    1
   128   125   126    1
   129   104   103    1
   130   104   105    2
   131   103   106    1
   132   106   107    1
   133   180   179    2
   134   157   156    1
   135   156   155    1
   136   107   109    1
   137   107   108    1
   138   149   147   ar
   139   179   181   am
   140   179   178    1
   141   155   154    1
   142   147   146    1
   143   147   148   ar
   144   146   143    1
   145   177   178    1
   146   177   174    1
   147   154   151    1
   148   142   143    1
   149   175   176    2
   150   175   174    1
   151   143   144    1
   152   150   144   am
   153   150   151    1
   154   144   145    2
   155   174   173    1
   156   151   152    1
   157   171   170    1
   158   164   158    1
   159   164   163    1
   160   172   170    1
   161   152   158   am
   162   152   153    2
   163   170   169    1
   164   158   159    1
   165   163   162    1
   166   169   166    1
   167   159   162    1
   168   159   160    1
   169   161   160    2
   170   166   167    1
   171   166   165    1
   172   167   168    2
