@<TRIPOS>MOLECULE
tmp/5x49B01.pdb
 123 117 0 0 0
SMALL
GASTEIGER

@<TRIPOS>ATOM
      1  N          1.2730  -15.2700   20.5630 N.3   238  TYR238     -0.1228
      2  CA         0.3130  -14.6700   21.4710 C.3   238  TYR238      0.1721
      3  C          0.9980  -13.5110   22.1530 C.2   238  TYR238      0.2437
      4  O          2.2380  -13.4440   22.1540 O.2   238  TYR238     -0.2733
      5  CB        -0.1690  -15.6870   22.5220 C.3   238  TYR238      0.0547
      6  CG         0.9370  -16.4540   23.1980 C.ar  238  TYR238     -0.0200
      7  CD1        1.5480  -15.9870   24.3500 C.ar  238  TYR238     -0.0009
      8  CD2        1.3250  -17.7080   22.7050 C.ar  238  TYR238     -0.0009
      9  CE1        2.5640  -16.7370   24.9930 C.ar  238  TYR238      0.0417
     10  CE2        2.3260  -18.4620   23.3400 C.ar  238  TYR238      0.0417
     11  CZ         2.9260  -17.9950   24.4710 C.ar  238  TYR238      0.1957
     12  OH         3.8880  -18.7330   25.1090 O.3   238  TYR238     -0.2866
     13  N          0.2420  -12.6010   22.7620 N.am  239  PRO239     -0.2729
     14  CA         0.8820  -11.5380   23.5590 C.3   239  PRO239      0.1401
     15  C          1.6170  -12.1630   24.7320 C.2   239  PRO239      0.2269
     16  O          0.9980  -12.8920   25.5100 O.2   239  PRO239     -0.2865
     17  CB        -0.3040  -10.6840   24.0420 C.3   239  PRO239      0.0296
     18  CG        -1.4240  -10.9860   23.0350 C.3   239  PRO239      0.0237
     19  CD        -1.2300  -12.4670   22.7100 C.3   239  PRO239      0.0939
     20  N          3.3520  -12.9790   28.3140 N.3   241  VAL241     -0.1245
     21  CA         3.3130  -12.5790   29.7170 C.3   241  VAL241      0.1561
     22  C          4.7470  -12.3000   30.1400 C.2   241  VAL241      0.2260
     23  O          5.6030  -13.1690   30.0230 O.2   241  VAL241     -0.2867
     24  CB         2.6890  -13.6760   30.6000 C.3   241  VAL241      0.0252
     25  CG1        2.7150  -13.2080   32.0810 C.3   241  VAL241      0.0019
     26  CG2        1.2490  -13.9980   30.1540 C.3   241  VAL241      0.0019
     27  N         -2.9480  -13.5750   36.2990 N.3   251  LEU251     -0.1231
     28  CA        -2.7830  -14.6940   35.3740 C.3   251  LEU251      0.1693
     29  C         -2.8220  -14.2610   33.9150 C.2   251  LEU251      0.2592
     30  O         -2.2040  -14.9200   33.0730 O.2   251  LEU251     -0.2718
     31  CB        -3.8370  -15.7650   35.6630 C.3   251  LEU251      0.0284
     32  CG        -3.6860  -16.4160   37.0460 C.3   251  LEU251      0.0019
     33  CD1       -4.7610  -17.4530   37.2920 C.3   251  LEU251      0.0001
     34  CD2       -2.2940  -17.0270   37.2120 C.3   251  LEU251      0.0001
     35  N         -3.5070  -13.1530   33.5810 N.am  252  HIS252     -0.1976
     36  CA        -3.5180  -12.6740   32.2040 C.3   252  HIS252      0.1656
     37  C         -2.7590  -11.3610   32.0660 C.2   252  HIS252      0.2291
     38  O         -3.0760  -10.5290   31.2040 O.2   252  HIS252     -0.2864
     39  CB        -4.9470  -12.5450   31.6770 C.3   252  HIS252      0.0771
     40  CG        -5.5880  -13.8770   31.4150 C.ar  252  HIS252      0.0820
     41  ND1       -6.8530  -14.0150   30.8870 N.ar  252  HIS252     -0.2267
     42  CD2       -5.1380  -15.1340   31.6510 C.ar  252  HIS252      0.1154
     43  CE1       -7.1530  -15.2990   30.7920 C.ar  252  HIS252      0.1986
     44  NE2       -6.1270  -16.0010   31.2450 N.ar  252  HIS252     -0.2212
     45  N         -0.4240   -8.8910   30.6430 N.3   254  VAL254     -0.1245
     46  CA         0.2470   -8.7010   29.3640 C.3   254  VAL254      0.1561
     47  C          0.7580   -7.2790   29.1760 C.2   254  VAL254      0.2260
     48  O          1.3640   -6.9860   28.1470 O.2   254  VAL254     -0.2867
     49  CB        -0.6720   -9.0950   28.1800 C.3   254  VAL254      0.0252
     50  CG1       -0.9060  -10.6580   28.1410 C.3   254  VAL254      0.0019
     51  CG2       -2.0200   -8.3930   28.2640 C.3   254  VAL254      0.0019
     52  N          5.9710  -16.0280   29.8350 N.3   269  ASP269     -0.1239
     53  CA         5.2360  -16.9680   28.9910 C.3   269  ASP269      0.1674
     54  C          5.3240  -16.4090   27.5770 C.2   269  ASP269      0.2266
     55  O          4.7740  -15.3350   27.3150 O.2   269  ASP269     -0.2867
     56  CB         3.7900  -17.0670   29.4840 C.3   269  ASP269      0.1410
     57  CG         3.0250  -18.2220   28.8570 C.2   269  ASP269      0.3668
     58  OD1        3.4080  -18.6870   27.7810 O.co2 269  ASP269     -0.2456
     59  OD2        1.9800  -18.6090   29.4070 O.co2 269  ASP269     -0.2456
     60  N          4.5450  -22.6150   22.8690 N.3   280  ASP280     -0.1239
     61  CA         3.8270  -22.0030   23.9900 C.3   280  ASP280      0.1674
     62  C          4.5880  -22.4580   25.2370 C.2   280  ASP280      0.2266
     63  O          4.3890  -23.5880   25.7120 O.2   280  ASP280     -0.2867
     64  CB         2.3650  -22.4350   23.9980 C.3   280  ASP280      0.1410
     65  CG         1.5860  -21.8920   25.2040 C.2   280  ASP280      0.3668
     66  OD1        2.1630  -21.0810   25.9690 O.co2 280  ASP280     -0.2456
     67  OD2        0.3980  -22.2700   25.3680 O.co2 280  ASP280     -0.2456
     68  N         -3.6350  -27.7600   27.2350 N.3   362  HIS362     -0.1241
     69  CA        -4.5600  -27.6510   26.1210 C.3   362  HIS362      0.1621
     70  C         -3.8650  -28.2530   24.9110 C.2   362  HIS362      0.2264
     71  O         -2.6400  -28.4070   24.8990 O.2   362  HIS362     -0.2867
     72  CB        -4.9220  -26.1770   25.8550 C.3   362  HIS362      0.0745
     73  CG        -3.7160  -25.2920   25.7650 C.ar  362  HIS362      0.0817
     74  ND1       -3.0210  -25.0950   24.5840 N.ar  362  HIS362     -0.2268
     75  CD2       -3.0490  -24.5930   26.7180 C.ar  362  HIS362      0.1154
     76  CE1       -1.9790  -24.3120   24.8170 C.ar  362  HIS362      0.1986
     77  NE2       -1.9860  -23.9780   26.0990 N.ar  362  HIS362     -0.2212
     78  N         -2.5790  -21.5940   19.3180 N.3   368  VAL368     -0.1231
     79  CA        -2.1310  -21.7450   20.7070 C.3   368  VAL368      0.1692
     80  C         -3.1240  -22.5850   21.4920 C.2   368  VAL368      0.2592
     81  O         -2.7640  -23.6130   22.0870 O.2   368  VAL368     -0.2718
     82  CB        -1.9410  -20.3500   21.3410 C.3   368  VAL368      0.0266
     83  CG1       -1.5220  -20.5020   22.8580 C.3   368  VAL368      0.0020
     84  CG2       -0.8760  -19.6060   20.5750 C.3   368  VAL368      0.0020
     85  N         -4.4050  -22.1840   21.4860 N.am  369  HIS369     -0.1976
     86  CA        -5.4790  -23.0460   21.9930 C.3   369  HIS369      0.1656
     87  C         -6.0590  -23.7680   20.7830 C.2   369  HIS369      0.2291
     88  O         -7.0920  -23.3970   20.2030 O.2   369  HIS369     -0.2864
     89  CB        -6.5030  -22.2410   22.7790 C.3   369  HIS369      0.0771
     90  CG        -5.9490  -21.7080   24.0560 C.ar  369  HIS369      0.0820
     91  ND1       -6.5600  -20.7080   24.7900 N.ar  369  HIS369     -0.2267
     92  CD2       -4.8380  -22.0570   24.7430 C.ar  369  HIS369      0.1154
     93  CE1       -5.8430  -20.4680   25.8760 C.ar  369  HIS369      0.1986
     94  NE2       -4.8000  -21.2820   25.8790 N.ar  369  HIS369     -0.2212
     95  N          1.3050  -27.1460   31.9400 N.3   389  GLU389     -0.1245
     96  CA         1.6920  -25.8220   32.4490 C.3   389  GLU389      0.1567
     97  C          1.1710  -25.5610   33.8550 C.2   389  GLU389      0.2260
     98  O          0.5280  -24.5450   34.1160 O.2   389  GLU389     -0.2867
     99  CB         1.2500  -24.7090   31.4900 C.3   389  GLU389      0.0388
    100  CG        -0.2700  -24.5900   31.1920 C.3   389  GLU389      0.1160
    101  CD        -0.5240  -23.5280   30.1490 C.2   389  GLU389      0.3649
    102  OE1       -0.1870  -22.3500   30.4590 O.co2 389  GLU389     -0.2457
    103  OE2       -1.0660  -23.8460   29.0530 O.co2 389  GLU389     -0.2457
    104  N          5.1150  -20.5180   37.2000 N.3   411  ARG411     -0.1245
    105  CA         4.5630  -21.4790   36.2450 C.3   411  ARG411      0.1563
    106  C          5.6890  -22.0530   35.3830 C.2   411  ARG411      0.2260
    107  O          6.6410  -21.3430   35.0290 O.2   411  ARG411     -0.2867
    108  CB         3.4720  -20.8300   35.3290 C.3   411  ARG411      0.0307
    109  CG         2.9540  -21.7850   34.2680 C.3   411  ARG411      0.0489
    110  CD         1.6720  -21.2550   33.6050 C.3   411  ARG411      0.2205
    111  NE         1.8520  -20.0820   32.7330 N.pl3 411  ARG411     -0.0865
    112  CZ         1.4690  -18.8460   33.0430 C.cat 411  ARG411      0.5346
    113  NH1        0.9670  -18.5720   34.2420 N.pl3 411  ARG411      0.1354
    114  NH2        1.5820  -17.8810   32.1300 N.pl3 411  ARG411      0.1354
    115  N          5.9460  -24.3420   31.8210 N.3   413  GLU413     -0.1245
    116  CA         5.0960  -24.8310   30.7330 C.3   413  GLU413      0.1567
    117  C          5.9620  -25.4090   29.6240 C.2   413  GLU413      0.2260
    118  O          6.8960  -24.7440   29.1450 O.2   413  GLU413     -0.2867
    119  CB         4.2250  -23.6980   30.1620 C.3   413  GLU413      0.0388
    120  CG         3.4740  -24.1160   28.8470 C.3   413  GLU413      0.1160
    121  CD         2.4460  -23.0970   28.4330 C.2   413  GLU413      0.3649
    122  OE1        1.3910  -23.4540   27.8380 O.co2 413  GLU413     -0.2457
    123  OE2        2.6960  -21.9120   28.7220 O.co2 413  GLU413     -0.2457
@<TRIPOS>BOND
     1    78    79    1
     2    88    87    2
     3     1     2    1
     4    84    82    1
     5    79    82    1
     6    79    80    1
     7    87    86    1
     8    82    83    1
     9     2     3    1
    10     2     5    1
    11    85    80   am
    12    85    86    1
    13    80    81    2
    14    86    89    1
    15     3     4    2
    16     3    13   am
    17     5     6    1
    18     8     6   ar
    19     8    10   ar
    20    19    13    1
    21    19    18    1
    22    13    14    1
    23    89    90    1
    24    60    61    1
    25    18    17    1
    26     6     7   ar
    27    10    11   ar
    28    14    17    1
    29    14    15    1
    30    61    64    1
    31    61    62    1
    32    64    65    1
    33    90    92   ar
    34    90    91   ar
    35     7     9   ar
    36    11     9   ar
    37    11    12    1
    38    74    76   ar
    39    74    73   ar
    40    15    16    2
    41    92    94   ar
    42    91    93   ar
    43    76    77   ar
    44    71    70    2
    45    70    69    1
    46    65    67   ar
    47    65    66   ar
    48    62    63    2
    49    73    72    1
    50    73    75   ar
    51    72    69    1
    52    93    94   ar
    53    77    75   ar
    54    69    68    1
    55    55    54    2
    56    54    53    1
    57    58    57   ar
    58   122   121   ar
    59    50    49    1
    60    48    47    2
    61    49    51    1
    62    49    46    1
    63    20    21    1
    64   121   123   ar
    65   121   120    1
    66   120   119    1
    67    57    59   ar
    68    57    56    1
    69    53    56    1
    70    53    52    1
    71   103   101   ar
    72   118   117    2
    73    47    46    1
    74    46    45    1
    75   117   116    1
    76    21    22    1
    77    21    24    1
    78    23    22    2
    79   101   102   ar
    80   101   100    1
    81    26    24    1
    82   119   116    1
    83    24    25    1
    84   116   115    1
    85    43    41   ar
    86    43    44   ar
    87    41    40   ar
    88   100    99    1
    89    38    37    2
    90    44    42   ar
    91    40    42   ar
    92    40    39    1
    93    99    96    1
    94    39    36    1
    95    95    96    1
    96    37    36    1
    97   114   112    1
    98    36    35    1
    99    96    97    1
   100   111   112    2
   101   111   110    1
   102   112   113    1
   103    30    29    2
   104    35    29   am
   105   110   109    1
   106    97    98    2
   107    29    28    1
   108   109   108    1
   109   107   106    2
   110   108   105    1
   111    28    31    1
   112    28    27    1
   113   106   105    1
   114    31    32    1
   115   105   104    1
   116    32    34    1
   117    32    33    1
