@<TRIPOS>MOLECULE
tmp/5x4bA00.pdb
 130 125 0 0 0
SMALL
GASTEIGER

@<TRIPOS>ATOM
      1  N        -18.9810  -30.6030   14.1880 N.3    11  PRO11      -0.2102
      2  CA       -17.6770  -30.6630   13.5470 C.3    11  PRO11       0.1504
      3  C        -17.5950  -29.9790   12.2160 C.2    11  PRO11       0.2576
      4  O        -18.5640  -30.0060   11.4390 O.2    11  PRO11      -0.2718
      5  CB       -17.4860  -32.1950   13.3890 C.3    11  PRO11       0.0282
      6  CG       -18.2140  -32.7850   14.5120 C.3    11  PRO11       0.0208
      7  CD       -19.4750  -31.9470   14.5910 C.3    11  PRO11       0.0893
      8  N        -16.4350  -29.4230   11.9100 N.am   12  ASN12      -0.1961
      9  CA       -16.1560  -28.7750   10.6080 C.3    12  ASN12       0.1819
     10  C        -16.9990  -27.4740   10.4200 C.2    12  ASN12       0.2621
     11  O        -17.5940  -27.1120    9.2690 O.2    12  ASN12      -0.2715
     12  CB       -16.4630  -29.6970    9.3990 C.3    12  ASN12       0.1195
     13  CG       -15.8460  -29.1830    8.1350 C.2    12  ASN12       0.2630
     14  OD1      -14.8110  -28.5400    8.1690 O.2    12  ASN12      -0.2716
     15  ND2      -16.3790  -29.5130    7.0010 N.am   12  ASN12      -0.0877
     16  N        -17.0660  -26.7110   11.4450 N.am   13  VAL13      -0.1963
     17  CA       -17.5760  -25.3430   11.2730 C.3    13  VAL13       0.1727
     18  C        -16.4600  -24.2590   11.4150 C.2    13  VAL13       0.2617
     19  O        -16.8300  -23.0020   11.6470 O.2    13  VAL13      -0.2715
     20  CB       -18.7770  -25.0400   12.1300 C.3    13  VAL13       0.0290
     21  CG1      -19.9530  -26.0230   11.8900 C.3    13  VAL13       0.0023
     22  CG2      -18.4330  -24.9670   13.5890 C.3    13  VAL13       0.0023
     23  N        -15.2980  -24.7140   11.7730 N.am   14  GLY14      -0.1940
     24  CA       -14.1510  -23.8810   11.9370 C.3    14  GLY14       0.2014
     25  C        -13.7870  -23.4440   13.3610 C.2    14  GLY14       0.2639
     26  O        -13.1060  -22.4330   13.5780 O.2    14  GLY14      -0.2714
     27  N        -14.2240  -24.1500   14.3420 N.am   15  LYS15      -0.1963
     28  CA       -14.0730  -23.8020   15.7510 C.3    15  LYS15       0.1728
     29  C        -12.5960  -23.7320   16.1400 C.2    15  LYS15       0.2617
     30  O        -12.1610  -22.7990   16.7800 O.2    15  LYS15      -0.2715
     31  CB       -14.8810  -24.7060   16.6930 C.3    15  LYS15       0.0311
     32  CG       -16.3510  -24.7550   16.3980 C.3    15  LYS15       0.0038
     33  CD       -17.1540  -25.5930   17.3950 C.3    15  LYS15       0.0206
     34  CE       -16.6460  -27.0570   17.5050 C.3    15  LYS15       0.1093
     35  NZ       -16.7930  -27.7160   16.1710 N.3    15  LYS15      -0.1314
     36  N        -11.8670  -24.8180   15.8870 N.am   16  SER16      -0.1936
     37  CA       -10.4580  -24.8530   16.2580 C.3    16  SER16       0.2055
     38  C         -9.6550  -23.7590   15.6180 C.2    16  SER16       0.2643
     39  O         -8.7610  -23.1690   16.2240 O.2    16  SER16      -0.2714
     40  CB        -9.8430  -26.2100   15.9100 C.3    16  SER16       0.2130
     41  OG       -10.5230  -27.2610   16.5560 O.3    16  SER16      -0.2179
     42  N        -10.0020  -23.4720   14.3710 N.am   17  THR17      -0.1950
     43  CA        -9.2840  -22.4520   13.6050 C.3    17  THR17       0.1897
     44  C         -9.5720  -21.0820   14.2010 C.2    17  THR17       0.2313
     45  O         -8.6260  -20.2890   14.4090 O.2    17  THR17      -0.2863
     46  CB        -9.7080  -22.4940   12.1600 C.3    17  THR17       0.1794
     47  OG1       -9.3770  -23.7870   11.5890 O.3    17  THR17      -0.2208
     48  CG2       -8.9490  -21.5200   11.3710 C.3    17  THR17       0.0378
     49  N         -6.7170  -30.0540   18.4900 N.3    28  ARG28      -0.1245
     50  CA        -6.2490  -29.0280   17.5100 C.3    28  ARG28       0.1563
     51  C         -5.9440  -27.6690   18.1540 C.2    28  ARG28       0.2260
     52  O         -5.2420  -26.7970   17.5510 O.2    28  ARG28      -0.2867
     53  CB        -7.3690  -28.8240   16.5030 C.3    28  ARG28       0.0307
     54  CG        -7.5950  -30.1220   15.7350 C.3    28  ARG28       0.0489
     55  CD        -6.5760  -30.2300   14.6260 C.3    28  ARG28       0.2205
     56  NE        -6.9240  -29.0540   13.8080 N.pl3  28  ARG28      -0.0865
     57  CZ        -7.8400  -28.9340   12.8420 C.cat  28  ARG28       0.5346
     58  NH1       -8.5270  -29.9770   12.4010 N.pl3  28  ARG28       0.1354
     59  NH2       -7.9800  -27.7420   12.2410 N.pl3  28  ARG28       0.1354
     60  N        -13.0100  -23.8850   23.4460 N.3    46  ASP46      -0.1239
     61  CA       -13.5020  -24.6240   22.2570 C.3    46  ASP46       0.1674
     62  C        -14.1640  -25.9370   22.7000 C.2    46  ASP46       0.2266
     63  O        -13.4860  -26.9140   22.9960 O.2    46  ASP46      -0.2867
     64  CB       -12.4080  -24.9530   21.2770 C.3    46  ASP46       0.1410
     65  CG       -12.9210  -25.7800   20.1410 C.2    46  ASP46       0.3668
     66  OD1      -14.1630  -26.0060   19.9950 O.co2  46  ASP46      -0.2456
     67  OD2      -12.1090  -26.1450   19.2660 O.co2  46  ASP46      -0.2456
     68  N        -21.0060  -22.3880    4.1410 N.3    82  ARG82      -0.1245
     69  CA       -20.9690  -23.0800    2.8470 C.3    82  ARG82       0.1563
     70  C        -21.8710  -24.2820    2.8830 C.2    82  ARG82       0.2260
     71  O        -22.0230  -24.9180    1.8240 O.2    82  ARG82      -0.2867
     72  CB       -19.5210  -23.4730    2.5330 C.3    82  ARG82       0.0307
     73  CG       -18.5770  -22.3000    2.1600 C.3    82  ARG82       0.0489
     74  CD       -17.1460  -22.7510    1.9400 C.3    82  ARG82       0.2205
     75  NE       -16.2610  -21.6470    1.5180 N.pl3  82  ARG82      -0.0865
     76  CZ       -15.9920  -21.3130    0.2600 C.cat  82  ARG82       0.5346
     77  NH1      -16.5560  -21.9720   -0.7310 N.pl3  82  ARG82       0.1354
     78  NH2      -15.1740  -20.3410    0.0320 N.pl3  82  ARG82       0.1354
     79  N        -19.2880  -19.2620    9.6060 N.3   108  ASN108     -0.1225
     80  CA       -17.8920  -19.2830    9.1840 C.3   108  ASN108      0.1785
     81  C        -17.7540  -19.8450    7.7280 C.2   108  ASN108      0.2597
     82  O        -18.7470  -20.2050    7.0720 O.2   108  ASN108     -0.2718
     83  CB       -17.1270  -20.2070   10.1560 C.3   108  ASN108      0.1169
     84  CG       -15.6940  -19.9160   10.2960 C.2   108  ASN108      0.2627
     85  OD1      -15.0590  -19.1820    9.5690 O.2   108  ASN108     -0.2716
     86  ND2      -15.1770  -20.2700   11.5140 N.am  108  ASN108     -0.0877
     87  N        -16.5490  -19.7580    7.2310 N.am  109  LYS109     -0.1980
     88  CA       -16.1890  -20.1230    5.8520 C.3   109  LYS109      0.1596
     89  C        -16.7500  -19.1860    4.8390 C.2   109  LYS109      0.2287
     90  O        -16.8200  -19.4940    3.6810 O.2   109  LYS109     -0.2864
     91  CB       -16.4700  -21.5950    5.5150 C.3   109  LYS109      0.0298
     92  CG       -15.8860  -22.5460    6.5780 C.3   109  LYS109      0.0038
     93  CD       -15.7480  -23.9930    6.0380 C.3   109  LYS109      0.0206
     94  CE       -15.3490  -24.9930    7.1070 C.3   109  LYS109      0.1093
     95  NZ       -15.0120  -26.3240    6.4560 N.3   109  LYS109     -0.1314
     96  N        -15.5980  -16.5500    2.9590 N.3   111  ASP111     -0.1239
     97  CA       -14.1930  -16.2020    2.6370 C.3   111  ASP111      0.1674
     98  C        -13.9810  -14.9250    1.8980 C.2   111  ASP111      0.2266
     99  O        -12.8160  -14.5810    1.6550 O.2   111  ASP111     -0.2867
    100  CB       -13.5410  -17.4000    1.9520 C.3   111  ASP111      0.1410
    101  CG       -13.4900  -18.6680    2.8130 C.2   111  ASP111      0.3668
    102  OD1      -13.3580  -18.6320    4.0370 O.co2 111  ASP111     -0.2456
    103  OD2      -13.5000  -19.7590    2.1390 O.co2 111  ASP111     -0.2456
    104  N        -14.4430  -15.5840    8.6510 N.3   134  SER134     -0.1202
    105  CA       -13.5520  -16.6110    8.0780 C.3   134  SER134      0.2020
    106  C        -12.3970  -16.7480    8.9980 C.2   134  SER134      0.2619
    107  O        -11.5830  -15.8370    9.2090 O.2   134  SER134     -0.2717
    108  CB       -13.0680  -16.1510    6.7330 C.3   134  SER134      0.2103
    109  OG       -12.0700  -17.0430    6.2380 O.3   134  SER134     -0.2182
    110  N        -12.2190  -17.9340    9.5750 N.am  135  GLY135     -0.1942
    111  CA       -11.0190  -18.2060   10.3720 C.3   135  GLY135      0.2014
    112  C         -9.7810  -18.3230    9.5370 C.2   135  GLY135      0.2640
    113  O         -8.7480  -17.8080   10.0330 O.2   135  GLY135     -0.2714
    114  N         -9.8140  -18.9280    8.3930 N.am  136  THR136     -0.1936
    115  CA        -8.5900  -19.0330    7.6090 C.3   136  THR136      0.2028
    116  C         -8.1830  -17.7170    7.0490 C.2   136  THR136      0.2638
    117  O         -6.9450  -17.4940    6.9900 O.2   136  THR136     -0.2714
    118  CB        -8.7810  -20.0530    6.5710 C.3   136  THR136      0.1808
    119  OG1       -9.9070  -19.8050    5.7520 O.3   136  THR136     -0.2208
    120  CG2       -8.7690  -21.4500    7.1770 C.3   136  THR136      0.0379
    121  N         -9.1070  -16.8680    6.6380 N.am  137  HIS137     -0.2029
    122  CA        -8.7470  -15.5550    6.0120 C.3   137  HIS137      0.1297
    123  C         -8.7530  -14.4770    7.0730 C.3   137  HIS137      0.2036
    124  O         -8.4940  -13.2610    6.6850 O.3   137  HIS137     -0.2185
    125  CB        -9.6710  -15.2860    4.8180 C.3   137  HIS137      0.0433
    126  CG        -9.4580  -16.2960    3.7590 C.3   137  HIS137      0.0935
    127  ND1      -10.2740  -17.3970    3.5930 N.3   137  HIS137     -0.1997
    128  CD2       -8.3090  -16.5960    3.1050 C.3   137  HIS137      0.1077
    129  CE1       -9.7560  -18.1710    2.6370 C.3   137  HIS137      0.1782
    130  NE2       -8.6050  -17.6310    2.2580 N.3   137  HIS137     -0.1983
@<TRIPOS>BOND
     1    77    76    1
     2    78    76    1
     3    76    75    2
     4    75    74    1
     5    99    98    2
     6    71    70    2
     7    98    97    1
     8    74    73    1
     9   100    97    1
    10   100   101    1
    11   103   101   ar
    12    73    72    1
    13   130   129    1
    14   130   128    1
    15    72    69    1
    16   129   127    1
    17    97    96    1
    18   101   102   ar
    19    69    70    1
    20    69    68    1
    21   128   126    1
    22   127   126    1
    23    90    89    2
    24   126   125    1
    25   125   122    1
    26    89    88    1
    27    91    88    1
    28    91    92    1
    29   119   118    1
    30    88    87    1
    31   122   121    1
    32   122   123    1
    33    93    92    1
    34    93    94    1
    35   109   108    1
    36    95    94    1
    37   118   120    1
    38   118   115    1
    39   121   116   am
    40   124   123    1
    41   108   105    1
    42   117   116    2
    43    15    13   am
    44   116   115    1
    45    82    81    2
    46    87    81   am
    47   115   114    1
    48    81    80    1
    49   105   104    1
    50   105   106    1
    51    13    14    2
    52    13    12    1
    53   114   112   am
    54   106   107    2
    55   106   110   am
    56    80    79    1
    57    80    83    1
    58    11    10    2
    59    12     9    1
    60   112   113    2
    61   112   111    1
    62    85    84    2
    63   110   111    1
    64    83    84    1
    65    84    86   am
    66    10     9    1
    67    10    16   am
    68     9     8    1
    69    17    18    1
    70    17    16    1
    71    17    20    1
    72    48    46    1
    73    18    19    2
    74    18    23   am
    75     4     3    2
    76    47    46    1
    77    23    24    1
    78    21    20    1
    79     8     3   am
    80    24    25    1
    81    20    22    1
    82    46    43    1
    83     3     2    1
    84    59    57    1
    85    58    57    1
    86    57    56    2
    87    25    26    2
    88    25    27   am
    89     5     2    1
    90     5     6    1
    91     2     1    1
    92    43    44    1
    93    43    42    1
    94    56    55    1
    95     1     7    1
    96    44    45    2
    97    27    28    1
    98    42    38   am
    99     6     7    1
   100    55    54    1
   101    38    39    2
   102    38    37    1
   103    54    53    1
   104    28    29    1
   105    28    31    1
   106    36    29   am
   107    36    37    1
   108    40    37    1
   109    40    41    1
   110    29    30    2
   111    35    34    1
   112    32    31    1
   113    32    33    1
   114    53    50    1
   115    33    34    1
   116    50    51    1
   117    50    49    1
   118    52    51    2
   119    67    65   ar
   120    66    65   ar
   121    65    64    1
   122    64    61    1
   123    61    62    1
   124    61    60    1
   125    62    63    2
