@<TRIPOS>MOLECULE
tmp/5x4kA02.pdb
 156 145 0 0 0
SMALL
GASTEIGER

@<TRIPOS>ATOM
      1  N         76.2300  -11.6960  128.6890 N.3    35  ASP35      -0.1239
      2  CA        75.9780  -11.0470  127.4090 C.3    35  ASP35       0.1674
      3  C         77.2680  -10.3490  127.0020 C.2    35  ASP35       0.2266
      4  O         78.2780  -10.4220  127.7070 O.2    35  ASP35      -0.2867
      5  CB        74.7890  -10.0790  127.4850 C.3    35  ASP35       0.1410
      6  CG        74.9720   -8.9830  128.5310 C.2    35  ASP35       0.3668
      7  OD1       75.9610   -9.0030  129.2910 O.co2  35  ASP35      -0.2456
      8  OD2       74.0970   -8.0960  128.6010 O.co2  35  ASP35      -0.2456
      9  N         76.6490   -4.2680  121.9830 N.3   165  GLY165     -0.1210
     10  CA        75.8640   -5.4270  122.3820 C.3   165  GLY165      0.1956
     11  C         74.6730   -5.0650  123.2460 C.2   165  GLY165      0.2611
     12  O         73.6130   -5.6900  123.1440 O.2   165  GLY165     -0.2717
     13  N         74.8210   -4.0470  124.0930 N.am  166  ASP166     -0.1973
     14  CA        73.7260   -3.5590  124.9210 C.3   166  ASP166      0.1709
     15  C         72.8100   -2.5900  124.1850 C.2   166  ASP166      0.2293
     16  O         71.8630   -2.0820  124.7970 O.2   166  ASP166     -0.2864
     17  CB        74.2840   -2.8920  126.1790 C.3   166  ASP166      0.1436
     18  CG        74.1040   -3.7430  127.4170 C.2   166  ASP166      0.3671
     19  OD1       73.9730   -4.9790  127.2900 O.co2 166  ASP166     -0.2456
     20  OD2       74.0920   -3.1680  128.5220 O.co2 166  ASP166     -0.2456
     21  N         73.6980   -6.2710  111.3660 N.3   198  PHE198     -0.1241
     22  CA        74.6560   -7.3480  111.5780 C.3   198  PHE198      0.1605
     23  C         75.1130   -7.9200  110.2420 C.2   198  PHE198      0.2264
     24  O         74.3060   -8.1420  109.3350 O.2   198  PHE198     -0.2867
     25  CB        74.0380   -8.4560  112.4340 C.3   198  PHE198      0.0534
     26  CG        74.7830   -9.7600  112.3590 C.ar  198  PHE198     -0.0203
     27  CD1       75.9110   -9.9730  113.1340 C.ar  198  PHE198     -0.0042
     28  CD2       74.3620  -10.7700  111.5060 C.ar  198  PHE198     -0.0042
     29  CE1       76.6030  -11.1680  113.0640 C.ar  198  PHE198     -0.0003
     30  CE2       75.0530  -11.9680  111.4280 C.ar  198  PHE198     -0.0003
     31  CZ        76.1740  -12.1680  112.2090 C.ar  198  PHE198     -0.0000
     32  N         68.6570  -10.8180  107.5890 N.3   210  TYR210     -0.1241
     33  CA        68.7450  -10.8900  109.0440 C.3   210  TYR210      0.1605
     34  C         68.2710   -9.6200  109.7390 C.2   210  TYR210      0.2264
     35  O         68.2060   -9.6030  110.9720 O.2   210  TYR210     -0.2867
     36  CB        70.1870  -11.1720  109.4820 C.3   210  TYR210      0.0534
     37  CG        70.6200  -12.6210  109.4190 C.ar  210  TYR210     -0.0201
     38  CD1       69.7590  -13.6460  109.7900 C.ar  210  TYR210     -0.0009
     39  CD2       71.9010  -12.9600  109.0020 C.ar  210  TYR210     -0.0009
     40  CE1       70.1620  -14.9700  109.7400 C.ar  210  TYR210      0.0417
     41  CE2       72.3120  -14.2780  108.9470 C.ar  210  TYR210      0.0417
     42  CZ        71.4400  -15.2790  109.3160 C.ar  210  TYR210      0.1957
     43  OH        71.8520  -16.5920  109.2600 O.3   210  TYR210     -0.2866
     44  N         66.3940   -7.2480  111.6860 N.3   212  THR212     -0.1203
     45  CA        65.1860   -7.1990  112.5000 C.3   212  THR212      0.1994
     46  C         65.1710   -6.0030  113.4420 C.2   212  THR212      0.2617
     47  O         64.2950   -5.9280  114.3120 O.2   212  THR212     -0.2717
     48  CB        65.0160   -8.4900  113.3130 C.3   212  THR212      0.1784
     49  OG1       66.1670   -8.6850  114.1420 O.3   212  THR212     -0.2211
     50  CG2       64.8410   -9.6910  112.3910 C.3   212  THR212      0.0376
     51  N         66.1100   -5.0740  113.3000 N.am  213  ASN213     -0.1974
     52  CA        66.2010   -3.9340  114.2010 C.3   213  ASN213      0.1688
     53  C         66.9670   -2.7860  113.5470 C.2   213  ASN213      0.2292
     54  O         68.0960   -2.4970  113.9330 O.2   213  ASN213     -0.2864
     55  CB        66.8790   -4.3550  115.5090 C.3   213  ASN213      0.1181
     56  CG        66.8770   -3.2560  116.5520 C.2   213  ASN213      0.2629
     57  OD1       65.9650   -2.4300  116.6020 O.2   213  ASN213     -0.2716
     58  ND2       67.9050   -3.2390  117.3930 N.am  213  ASN213     -0.0877
     59  N         79.4700   -4.7220  116.3600 N.3   292  ARG292     -0.1245
     60  CA        78.2490   -5.5220  116.4380 C.3   292  ARG292      0.1563
     61  C         78.5270   -6.9890  116.1260 C.2   292  ARG292      0.2260
     62  O         77.9830   -7.8830  116.7870 O.2   292  ARG292     -0.2867
     63  CB        77.1800   -4.9560  115.4980 C.3   292  ARG292      0.0307
     64  CG        75.9290   -5.8180  115.4030 C.3   292  ARG292      0.0489
     65  CD        74.8080   -5.1150  114.6560 C.3   292  ARG292      0.2205
     66  NE        73.9980   -4.2960  115.5540 N.pl3 292  ARG292     -0.0865
     67  CZ        74.1380   -2.9850  115.7040 C.cat 292  ARG292      0.5346
     68  NH1       75.0540   -2.3280  115.0070 N.pl3 292  ARG292      0.1354
     69  NH2       73.3560   -2.3290  116.5480 N.pl3 292  ARG292      0.1354
     70  N         80.2200   -8.2830  119.2220 N.3   295  ALA295     -0.1231
     71  CA        79.2480   -8.5030  120.2890 C.3   295  ALA295      0.1694
     72  C         78.4120   -9.7500  120.0300 C.2   295  ALA295      0.2592
     73  O         78.1210  -10.5140  120.9580 O.2   295  ALA295     -0.2718
     74  CB        78.3440   -7.2790  120.4430 C.3   295  ALA295      0.0304
     75  N         78.0160   -9.9700  118.7730 N.am  296  THR296     -0.1953
     76  CA        77.2410  -11.1610  118.4320 C.3   296  THR296      0.1897
     77  C         78.0540  -12.4310  118.6620 C.2   296  THR296      0.2313
     78  O         77.5350  -13.4250  119.1860 O.2   296  THR296     -0.2863
     79  CB        76.7690  -11.0780  116.9780 C.3   296  THR296      0.1794
     80  OG1       75.8890   -9.9580  116.8230 O.3   296  THR296     -0.2208
     81  CG2       76.0300  -12.3510  116.5710 C.3   296  THR296      0.0378
     82  N         77.9240  -12.9470  122.3330 N.3   299  ASN299     -0.1240
     83  CA        76.5950  -13.4080  122.7180 C.3   299  ASN299      0.1653
     84  C         76.4020  -14.8770  122.3660 C.2   299  ASN299      0.2266
     85  O         75.7240  -15.6130  123.0940 O.2   299  ASN299     -0.2867
     86  CB        75.5240  -12.5470  122.0490 C.3   299  ASN299      0.1155
     87  CG        75.3400  -11.2100  122.7390 C.2   299  ASN299      0.2627
     88  OD1       75.6490  -11.0630  123.9230 O.2   299  ASN299     -0.2716
     89  ND2       74.8290  -10.2270  122.0030 N.am  299  ASN299     -0.0877
     90  N         73.1620  -19.5850  116.3960 N.3   330  TYR330     -0.1227
     91  CA        72.6300  -18.4370  117.1260 C.3   330  TYR330      0.1736
     92  C         71.7060  -17.6000  116.2450 C.2   330  TYR330      0.2595
     93  O         70.5780  -17.2760  116.6380 O.2   330  TYR330     -0.2718
     94  CB        73.8020  -17.6050  117.6580 C.3   330  TYR330      0.0548
     95  CG        73.4470  -16.3370  118.4020 C.ar  330  TYR330     -0.0200
     96  CD1       73.1580  -16.3630  119.7610 C.ar  330  TYR330     -0.0009
     97  CD2       73.4370  -15.1080  117.7540 C.ar  330  TYR330     -0.0009
     98  CE1       72.8450  -15.2010  120.4500 C.ar  330  TYR330      0.0417
     99  CE2       73.1260  -13.9420  118.4340 C.ar  330  TYR330      0.0417
    100  CZ        72.8300  -13.9950  119.7810 C.ar  330  TYR330      0.1957
    101  OH        72.5190  -12.8390  120.4600 O.3   330  TYR330     -0.2866
    102  N         72.1650  -17.2460  115.0400 N.am  331  LYS331     -0.1980
    103  CA        71.3440  -16.4190  114.1600 C.3   331  LYS331      0.1596
    104  C         70.1580  -17.2020  113.6040 C.2   331  LYS331      0.2287
    105  O         69.0520  -16.6610  113.4860 O.2   331  LYS331     -0.2864
    106  CB        72.1900  -15.8470  113.0190 C.3   331  LYS331      0.0298
    107  CG        73.3100  -14.9090  113.4590 C.3   331  LYS331      0.0038
    108  CD        72.7950  -13.7560  114.3080 C.3   331  LYS331      0.0206
    109  CE        71.9400  -12.7940  113.5010 C.3   331  LYS331      0.1093
    110  NZ        71.4310  -11.6800  114.3490 N.3   331  LYS331     -0.1314
    111  N         67.1700  -17.3010  115.9170 N.3   334  GLN334     -0.1245
    112  CA        66.4460  -16.0380  116.0220 C.3   334  GLN334      0.1566
    113  C         65.4480  -15.8780  114.8840 C.2   334  GLN334      0.2260
    114  O         64.3190  -15.4220  115.1000 O.2   334  GLN334     -0.2867
    115  CB        67.4270  -14.8670  116.0370 C.3   334  GLN334      0.0367
    116  CG        68.3530  -14.8460  117.2350 C.3   334  GLN334      0.0905
    117  CD        69.2350  -13.6150  117.2600 C.2   334  GLN334      0.2608
    118  OE1       69.3170  -12.8790  116.2770 O.2   334  GLN334     -0.2717
    119  NE2       69.8960  -13.3810  118.3880 N.am  334  GLN334     -0.0878
    120  N         63.4590  -12.3630  125.1420 N.3   370  GLY370     -0.1210
    121  CA        63.6780  -10.9290  125.0370 C.3   370  GLY370      0.1956
    122  C         63.8160  -10.4730  123.6000 C.2   370  GLY370      0.2611
    123  O         63.2090   -9.4810  123.1870 O.2   370  GLY370     -0.2717
    124  N         64.6290  -11.1880  122.8210 N.am  371  ILE371     -0.1979
    125  CA        64.7200  -10.9200  121.3920 C.3   371  ILE371      0.1595
    126  C         63.3520  -11.0650  120.7390 C.2   371  ILE371      0.2287
    127  O         62.9650  -10.2580  119.8850 O.2   371  ILE371     -0.2864
    128  CB        65.7620  -11.8540  120.7500 C.3   371  ILE371      0.0276
    129  CG1       67.1230  -11.6540  121.4230 C.3   371  ILE371      0.0022
    130  CG2       65.8460  -11.6170  119.2520 C.3   371  ILE371      0.0022
    131  CD1       68.1070  -12.7760  121.1700 C.3   371  ILE371      0.0001
    132  N         61.1900   -7.9920  121.3550 N.3   374  SER374     -0.1217
    133  CA        61.6280   -6.8960  120.4960 C.3   374  SER374      0.1889
    134  C         61.2060   -7.1230  119.0500 C.2   374  SER374      0.2288
    135  O         60.7790   -6.1850  118.3650 O.2   374  SER374     -0.2866
    136  CB        63.1450   -6.7310  120.5880 C.3   374  SER374      0.2089
    137  OG        63.5520   -6.4300  121.9110 O.3   374  SER374     -0.2183
    138  N         59.2620   -4.8940  116.2370 N.3   377  ASN377     -0.1240
    139  CA        59.9040   -4.5140  114.9830 C.3   377  ASN377      0.1653
    140  C         59.2010   -5.1260  113.7780 C.2   377  ASN377      0.2266
    141  O         59.2580   -4.5600  112.6800 O.2   377  ASN377     -0.2867
    142  CB        61.3800   -4.9150  115.0160 C.3   377  ASN377      0.1155
    143  CG        62.2030   -4.0270  115.9330 C.2   377  ASN377      0.2627
    144  OD1       62.1890   -2.8040  115.8050 O.2   377  ASN377     -0.2716
    145  ND2       62.9100   -4.6360  116.8740 N.am  377  ASN377     -0.0877
    146  N         59.8590   -5.8320  126.6540 N.3   405  ARG405     -0.1245
    147  CA        60.5050   -4.8600  125.7840 C.3   405  ARG405      0.1563
    148  C         59.4750   -3.8350  125.3430 C.2   405  ARG405      0.2260
    149  O         58.2830   -4.1390  125.2410 O.2   405  ARG405     -0.2867
    150  CB        61.1310   -5.5160  124.5430 C.3   405  ARG405      0.0307
    151  CG        62.2130   -6.5360  124.8410 C.3   405  ARG405      0.0489
    152  CD        63.4550   -5.8820  125.4170 C.3   405  ARG405      0.2205
    153  NE        64.5510   -6.8400  125.5230 N.pl3 405  ARG405     -0.0865
    154  CZ        64.7880   -7.5880  126.5940 C.cat 405  ARG405      0.5346
    155  NH1       64.0110   -7.4860  127.6620 N.pl3 405  ARG405      0.1354
    156  NH2       65.8070   -8.4380  126.5980 N.pl3 405  ARG405      0.1354
@<TRIPOS>BOND
     1    32    33    1
     2    41    39   ar
     3    41    42   ar
     4    39    37   ar
     5    33    36    1
     6    33    34    1
     7    43    42    1
     8    42    40   ar
     9    24    23    2
    10    37    36    1
    11    37    38   ar
    12    34    35    2
    13    40    38   ar
    14    23    22    1
    15    21    22    1
    16    30    28   ar
    17    30    31   ar
    18    28    26   ar
    19    22    25    1
    20    44    45    1
    21    31    29   ar
    22    26    25    1
    23    26    27   ar
    24    50    48    1
    25    45    48    1
    26    45    46    1
    27   141   140    2
    28   106   107    1
    29   106   103    1
    30    29    27   ar
    31    51    46   am
    32    51    52    1
    33    48    49    1
    34    46    47    2
    35   107   108    1
    36   105   104    2
    37   109   108    1
    38   109   110    1
    39    53    54    2
    40    53    52    1
    41   104   103    1
    42   140   139    1
    43   103   102    1
    44    52    55    1
    45    65    64    1
    46    65    66    1
    47   113   114    2
    48   113   112    1
    49   139   142    1
    50   139   138    1
    51    68    67    1
    52   142   143    1
    53   102    92   am
    54    64    63    1
    55    63    60    1
    56    55    56    1
    57    66    67    2
    58    67    69    1
    59   144   143    2
    60   111   112    1
    61   143   145   am
    62   112   115    1
    63   115   116    1
    64    61    60    1
    65    61    62    2
    66    92    93    2
    67    92    91    1
    68   118   117    2
    69    59    60    1
    70    90    91    1
    71    56    57    2
    72    56    58   am
    73    81    79    1
    74    80    79    1
    75    79    76    1
    76    91    94    1
    77   116   117    1
    78   117   119   am
    79    94    95    1
    80    97    95   ar
    81    97    99   ar
    82   135   134    2
    83    95    96   ar
    84    76    77    1
    85    76    75    1
    86    99   100   ar
    87    77    78    2
    88    75    72   am
    89   134   133    1
    90    70    71    1
    91   130   128    1
    92    96    98   ar
    93   100    98   ar
    94   100   101    1
    95   127   126    2
    96    72    71    1
    97    72    73    2
    98    71    74    1
    99   133   136    1
   100   133   132    1
   101   136   137    1
   102   126   125    1
   103   128   125    1
   104   128   129    1
   105   131   129    1
   106   125   124    1
   107     9    10    1
   108    89    87   am
   109    86    83    1
   110    86    87    1
   111    82    83    1
   112    84    83    1
   113    84    85    2
   114    10    11    1
   115    87    88    2
   116   124   122   am
   117    12    11    2
   118   123   122    2
   119    11    13   am
   120   122   121    1
   121    13    14    1
   122    15    16    2
   123    15    14    1
   124   150   151    1
   125   150   147    1
   126   151   152    1
   127    14    17    1
   128   121   120    1
   129   149   148    2
   130   148   147    1
   131   152   153    1
   132   153   154    2
   133   147   146    1
   134    17    18    1
   135   154   156    1
   136   154   155    1
   137     3     2    1
   138     3     4    2
   139    19    18   ar
   140     2     5    1
   141     2     1    1
   142    18    20   ar
   143     5     6    1
   144     6     8   ar
   145     6     7   ar
