@<TRIPOS>MOLECULE
tmp/5x4kA00.pdb
 140 133 0 0 0
SMALL
GASTEIGER

@<TRIPOS>ATOM
      1  N         77.7080  -10.2410  133.8300 N.3    33  HIS33      -0.1241
      2  CA        76.4790  -10.6020  133.1350 C.3    33  HIS33       0.1621
      3  C         76.7640  -11.4540  131.9010 C.2    33  HIS33       0.2264
      4  O         77.7850  -11.2980  131.2260 O.2    33  HIS33      -0.2867
      5  CB        75.7120   -9.3420  132.7280 C.3    33  HIS33       0.0745
      6  CG        74.2530   -9.5760  132.4940 C.ar   33  HIS33       0.0817
      7  ND1       73.4800   -8.7370  131.7210 N.ar   33  HIS33      -0.2268
      8  CD2       73.4230  -10.5510  132.9360 C.ar   33  HIS33       0.1154
      9  CE1       72.2380   -9.1870  131.6930 C.ar   33  HIS33       0.1986
     10  NE2       72.1770  -10.2870  132.4220 N.ar   33  HIS33      -0.2212
     11  N         73.6480  -15.2680  134.6750 N.3    62  LYS62      -0.1231
     12  CA        72.4550  -14.6520  134.1080 C.3    62  LYS62       0.1693
     13  C         71.8930  -13.5550  135.0050 C.2    62  LYS62       0.2591
     14  O         71.4650  -12.5080  134.5080 O.2    62  LYS62      -0.2718
     15  CB        71.3910  -15.7190  133.8420 C.3    62  LYS62       0.0285
     16  CG        71.1700  -16.0090  132.3690 C.3    62  LYS62       0.0035
     17  CD        70.0870  -17.0550  132.1540 C.3    62  LYS62       0.0206
     18  CE        70.5510  -18.4330  132.5880 C.3    62  LYS62       0.1093
     19  NZ        69.5280  -19.4750  132.2950 N.3    62  LYS62      -0.1314
     20  N         71.8690  -13.7710  136.3190 N.am   63  GLN63      -0.1979
     21  CA        71.3260  -12.7600  137.2140 C.3    63  GLN63       0.1601
     22  C         71.9250  -12.9310  138.6020 C.2    63  GLN63       0.2287
     23  O         72.4090  -14.0060  138.9650 O.2    63  GLN63      -0.2864
     24  CB        69.7940  -12.8210  137.2810 C.3    63  GLN63       0.0394
     25  CG        69.2330  -13.8410  138.2610 C.3    63  GLN63       0.0908
     26  CD        68.9950  -15.1990  137.6310 C.2    63  GLN63       0.2608
     27  OE1       69.5080  -15.4960  136.5520 O.2    63  GLN63      -0.2717
     28  NE2       68.2020  -16.0310  138.3000 N.am   63  GLN63      -0.0878
     29  N         75.9080   -6.0020  136.0100 N.3    85  LEU85      -0.1245
     30  CA        74.6850   -6.4150  136.6870 C.3    85  LEU85       0.1561
     31  C         74.8300   -6.0990  138.1700 C.2    85  LEU85       0.2260
     32  O         75.9090   -5.7320  138.6420 O.2    85  LEU85      -0.2867
     33  CB        74.3810   -7.9080  136.4760 C.3    85  LEU85       0.0270
     34  CG        75.4720   -8.9910  136.5110 C.3    85  LEU85       0.0019
     35  CD1       76.4790   -8.8350  137.6500 C.3    85  LEU85       0.0001
     36  CD2       74.8170  -10.3700  136.5790 C.3    85  LEU85       0.0001
     37  N         70.1330   -3.9500  140.9560 N.3    88  GLY88      -0.1225
     38  CA        68.8110   -4.2760  141.4450 C.3    88  GLY88       0.1811
     39  C         68.7860   -5.2720  142.5820 C.2    88  GLY88       0.2280
     40  O         67.7020   -5.6810  143.0120 O.2    88  GLY88      -0.2866
     41  N         72.4410   -0.6430  135.6490 N.3   108  HIS108     -0.1241
     42  CA        71.0140   -0.8590  135.8190 C.3   108  HIS108      0.1621
     43  C         70.4540    0.1220  136.8490 C.2   108  HIS108      0.2264
     44  O         71.1800    0.5740  137.7390 O.2   108  HIS108     -0.2867
     45  CB        70.7400   -2.2920  136.2660 C.3   108  HIS108      0.0745
     46  CG        71.0070   -3.3170  135.2070 C.ar  108  HIS108      0.0817
     47  ND1       72.2730   -3.7810  134.9190 N.ar  108  HIS108     -0.2268
     48  CD2       70.1680   -3.9670  134.3660 C.ar  108  HIS108      0.1154
     49  CE1       72.2030   -4.6730  133.9470 C.ar  108  HIS108      0.1986
     50  NE2       70.9370   -4.8040  133.5930 N.ar  108  HIS108     -0.2212
     51  N         60.0480  -18.1080  132.3720 N.3   401  LYS401     -0.1245
     52  CA        60.9970  -17.0190  132.1860 C.3   401  LYS401      0.1561
     53  C         60.3910  -16.0110  131.2190 C.2   401  LYS401      0.2260
     54  O         60.0220  -16.3680  130.0950 O.2   401  LYS401     -0.2867
     55  CB        62.3390  -17.5250  131.6560 C.3   401  LYS401      0.0271
     56  CG        63.3140  -16.4020  131.2990 C.3   401  LYS401      0.0035
     57  CD        63.6320  -15.5370  132.5180 C.3   401  LYS401      0.0206
     58  CE        64.6800  -14.4770  132.2010 C.3   401  LYS401      0.1093
     59  NZ        64.1930  -13.4630  131.2260 N.3   401  LYS401     -0.1314
     60  N         60.4890  -11.9160  129.4600 N.3   403  SER403     -0.1217
     61  CA        61.2350  -10.7170  129.1210 C.3   403  SER403      0.1889
     62  C         60.2760   -9.6790  128.5680 C.2   403  SER403      0.2288
     63  O         59.3630  -10.0100  127.8050 O.2   403  SER403     -0.2866
     64  CB        62.3280  -11.0050  128.1010 C.3   403  SER403      0.2089
     65  OG        63.4080  -11.7060  128.6850 O.3   403  SER403     -0.2183
     66  N         59.8590   -5.8320  126.6540 N.3   405  ARG405     -0.1245
     67  CA        60.5050   -4.8600  125.7840 C.3   405  ARG405      0.1563
     68  C         59.4750   -3.8350  125.3430 C.2   405  ARG405      0.2260
     69  O         58.2830   -4.1390  125.2410 O.2   405  ARG405     -0.2867
     70  CB        61.1310   -5.5160  124.5430 C.3   405  ARG405      0.0307
     71  CG        62.2130   -6.5360  124.8410 C.3   405  ARG405      0.0489
     72  CD        63.4550   -5.8820  125.4170 C.3   405  ARG405      0.2205
     73  NE        64.5510   -6.8400  125.5230 N.pl3 405  ARG405     -0.0865
     74  CZ        64.7880   -7.5880  126.5940 C.cat 405  ARG405      0.5346
     75  NH1       64.0110   -7.4860  127.6620 N.pl3 405  ARG405      0.1354
     76  NH2       65.8070   -8.4380  126.5980 N.pl3 405  ARG405      0.1354
     77  N         60.2250  -12.9630  140.7300 N.3   431  GLU431     -0.1231
     78  CA        61.3950  -12.0990  140.8170 C.3   431  GLU431      0.1699
     79  C         61.5510  -11.3810  139.4860 C.2   431  GLU431      0.2593
     80  O         61.5230  -12.0280  138.4370 O.2   431  GLU431     -0.2718
     81  CB        62.6550  -12.9130  141.1380 C.3   431  GLU431      0.0402
     82  CG        63.9510  -12.1190  141.1690 C.3   431  GLU431      0.1161
     83  CD        65.1740  -13.0040  140.9820 C.2   431  GLU431      0.3649
     84  OE1       65.3790  -13.5090  139.8550 O.co2 431  GLU431     -0.2457
     85  OE2       65.9220  -13.2070  141.9620 O.co2 431  GLU431     -0.2457
     86  N         61.7120  -10.0560  139.5260 N.am  432  GLY432     -0.1942
     87  CA        61.8330   -9.3000  138.2900 C.3   432  GLY432      0.2014
     88  C         62.4660   -7.9400  138.5020 C.2   432  GLY432      0.2639
     89  O         62.6480   -7.4790  139.6300 O.2   432  GLY432     -0.2714
     90  N         62.7920   -7.3010  137.3870 N.am  433  GLY433     -0.1939
     91  CA        63.4020   -5.9850  137.4060 C.3   433  GLY433      0.2014
     92  C         64.1670   -5.7280  136.1230 C.2   433  GLY433      0.2639
     93  O         64.1980   -6.5560  135.2130 O.2   433  GLY433     -0.2714
     94  N         64.7880   -4.5480  136.0700 N.am  434  GLY434     -0.1939
     95  CA        65.6500   -4.2030  134.9600 C.3   434  GLY434      0.2014
     96  C         65.5030   -2.7460  134.5720 C.2   434  GLY434      0.2638
     97  O         65.1460   -1.8970  135.3900 O.2   434  GLY434     -0.2714
     98  N         65.8040   -2.4700  133.3050 N.am  435  HIS435     -0.1973
     99  CA        65.7180   -1.1240  132.7600 C.3   435  HIS435      0.1656
    100  C         64.2580   -0.7300  132.5460 C.2   435  HIS435      0.2291
    101  O         63.3480   -1.5650  132.5510 O.2   435  HIS435     -0.2864
    102  CB        66.4720   -1.0270  131.4300 C.3   435  HIS435      0.0771
    103  CG        67.9220   -1.3960  131.5150 C.ar  435  HIS435      0.0820
    104  ND1       68.8750   -0.5550  132.0470 N.ar  435  HIS435     -0.2267
    105  CD2       68.5850   -2.5060  131.1090 C.ar  435  HIS435      0.1154
    106  CE1       70.0600   -1.1350  131.9780 C.ar  435  HIS435      0.1986
    107  NE2       69.9110   -2.3200  131.4130 N.ar  435  HIS435     -0.2212
    108  N         63.5730   -2.3040  129.0670 N.3   438  ALA438     -0.1231
    109  CA        63.8560   -3.7230  128.8680 C.3   438  ALA438      0.1694
    110  C         64.0890   -4.3620  130.2240 C.2   438  ALA438      0.2592
    111  O         64.9880   -3.9380  130.9590 O.2   438  ALA438     -0.2718
    112  CB        65.0750   -3.9130  127.9650 C.3   438  ALA438      0.0304
    113  N         63.3050   -5.3880  130.5470 N.am  439  ALA439     -0.1966
    114  CA        63.3450   -5.9800  131.8740 C.3   439  ALA439      0.1728
    115  C         62.9580   -7.4480  131.7870 C.2   439  ALA439      0.2617
    116  O         62.3910   -7.9050  130.7910 O.2   439  ALA439     -0.2715
    117  CB        62.4210   -5.2340  132.8410 C.3   439  ALA439      0.0334
    118  N         63.2800   -8.1870  132.8500 N.am  440  GLY440     -0.1940
    119  CA        62.9890   -9.6010  132.9030 C.3   440  GLY440      0.2014
    120  C         62.2350   -9.9510  134.1680 C.2   440  GLY440      0.2639
    121  O         62.1810   -9.1760  135.1230 O.2   440  GLY440     -0.2714
    122  N         61.6410  -11.1450  134.1610 N.am  441  ILE441     -0.1963
    123  CA        60.8720  -11.6130  135.3070 C.3   441  ILE441      0.1727
    124  C         60.7730  -13.1280  135.2400 C.2   441  ILE441      0.2616
    125  O         60.7620  -13.7200  134.1560 O.2   441  ILE441     -0.2715
    126  CB        59.4720  -10.9470  135.3590 C.3   441  ILE441      0.0290
    127  CG1       58.7370  -11.3440  136.6460 C.3   441  ILE441      0.0022
    128  CG2       58.6620  -11.3100  134.1230 C.3   441  ILE441      0.0023
    129  CD1       57.5100  -10.5220  136.9350 C.3   441  ILE441      0.0001
    130  N         60.7230  -13.7540  136.4110 N.am  442  ARG442     -0.1977
    131  CA        60.4420  -15.1730  136.5580 C.3   442  ARG442      0.1597
    132  C         59.2250  -15.3180  137.4580 C.2   442  ARG442      0.2287
    133  O         59.1820  -14.7280  138.5420 O.2   442  ARG442     -0.2864
    134  CB        61.6490  -15.9080  137.1480 C.3   442  ARG442      0.0334
    135  CG        62.8810  -15.8580  136.2560 C.3   442  ARG442      0.0492
    136  CD        64.1660  -16.1210  137.0300 C.3   442  ARG442      0.2205
    137  NE        65.2940  -16.3390  136.1260 N.pl3 442  ARG442     -0.0865
    138  CZ        65.9780  -15.3670  135.5280 C.cat 442  ARG442      0.5346
    139  NH1       65.6560  -14.0980  135.7350 N.pl3 442  ARG442      0.1354
    140  NH2       66.9870  -15.6650  134.7200 N.pl3 442  ARG442      0.1354
@<TRIPOS>BOND
     1    70    71    1
     2    70    67    1
     3    71    72    1
     4    69    68    2
     5    68    67    1
     6    72    73    1
     7    73    74    2
     8    67    66    1
     9    74    76    1
    10    74    75    1
    11    63    62    2
    12   112   109    1
    13    64    65    1
    14    64    61    1
    15    62    61    1
    16   109   108    1
    17   109   110    1
    18    61    60    1
    19    54    53    2
    20   110   113   am
    21   110   111    2
    22   113   114    1
    23   116   115    2
    24   105   107   ar
    25   105   103   ar
    26    53    52    1
    27    59    58    1
    28     4     3    2
    29    56    55    1
    30    56    57    1
    31   107   106   ar
    32   102   103    1
    33   102    99    1
    34   103   104   ar
    35    55    52    1
    36     9     7   ar
    37     9    10   ar
    38     7     6   ar
    39   115   114    1
    40   115   118   am
    41   114   117    1
    42     3     2    1
    43   106   104   ar
    44    17    16    1
    45    17    18    1
    46    52    51    1
    47    58    57    1
    48    19    18    1
    49    16    15    1
    50    10     8   ar
    51     6     5    1
    52     6     8   ar
    53   100   101    2
    54   100    99    1
    55     5     2    1
    56    99    98    1
    57   118   119    1
    58   119   120    1
    59     2     1    1
    60    98    96   am
    61    50    49   ar
    62    50    48   ar
    63    15    12    1
    64    49    47   ar
    65    12    11    1
    66    12    13    1
    67   128   126    1
    68   125   124    2
    69   122   120   am
    70   122   123    1
    71   120   121    2
    72    48    46   ar
    73    14    13    2
    74    96    95    1
    75    96    97    2
    76   140   138    1
    77    47    46   ar
    78    95    94    1
    79    13    20   am
    80    46    45    1
    81    93    92    2
    82   124   123    1
    83   124   130   am
    84   123   126    1
    85   126   127    1
    86   138   139    1
    87   138   137    2
    88    41    42    1
    89    42    45    1
    90    42    43    1
    91    29    30    1
    92    94    92   am
    93    92    91    1
    94   137   136    1
    95   135   136    1
    96   135   134    1
    97    20    21    1
    98   130   131    1
    99    33    34    1
   100    33    30    1
   101    34    36    1
   102    34    35    1
   103    27    26    2
   104   131   134    1
   105   131   132    1
   106   127   129    1
   107    30    31    1
   108    43    44    2
   109    21    24    1
   110    21    22    1
   111    24    25    1
   112    90    91    1
   113    90    88   am
   114   132   133    2
   115    26    25    1
   116    26    28   am
   117    31    32    2
   118    87    88    1
   119    87    86    1
   120    80    79    2
   121    88    89    2
   122    22    23    2
   123    79    86   am
   124    79    78    1
   125    84    83   ar
   126    77    78    1
   127    78    81    1
   128    37    38    1
   129    83    82    1
   130    83    85   ar
   131    81    82    1
   132    38    39    1
   133    39    40    2
