@<TRIPOS>MOLECULE
tmp/5x4kA01.pdb
 149 140 0 0 0
SMALL
GASTEIGER

@<TRIPOS>ATOM
      1  N         77.7080  -10.2410  133.8300 N.3    33  HIS33      -0.1241
      2  CA        76.4790  -10.6020  133.1350 C.3    33  HIS33       0.1621
      3  C         76.7640  -11.4540  131.9010 C.2    33  HIS33       0.2264
      4  O         77.7850  -11.2980  131.2260 O.2    33  HIS33      -0.2867
      5  CB        75.7120   -9.3420  132.7280 C.3    33  HIS33       0.0745
      6  CG        74.2530   -9.5760  132.4940 C.ar   33  HIS33       0.0817
      7  ND1       73.4800   -8.7370  131.7210 N.ar   33  HIS33      -0.2268
      8  CD2       73.4230  -10.5510  132.9360 C.ar   33  HIS33       0.1154
      9  CE1       72.2380   -9.1870  131.6930 C.ar   33  HIS33       0.1986
     10  NE2       72.1770  -10.2870  132.4220 N.ar   33  HIS33      -0.2212
     11  N         76.2300  -11.6960  128.6890 N.3    35  ASP35      -0.1239
     12  CA        75.9780  -11.0470  127.4090 C.3    35  ASP35       0.1674
     13  C         77.2680  -10.3490  127.0020 C.2    35  ASP35       0.2266
     14  O         78.2780  -10.4220  127.7070 O.2    35  ASP35      -0.2867
     15  CB        74.7890  -10.0790  127.4850 C.3    35  ASP35       0.1410
     16  CG        74.9720   -8.9830  128.5310 C.2    35  ASP35       0.3668
     17  OD1       75.9610   -9.0030  129.2910 O.co2  35  ASP35      -0.2456
     18  OD2       74.0970   -8.0960  128.6010 O.co2  35  ASP35      -0.2456
     19  N         77.9600   -7.1950  127.0190 N.3    37  ASP37      -0.1239
     20  CA        78.3180   -6.1840  128.0090 C.3    37  ASP37       0.1674
     21  C         79.0920   -6.7980  129.1740 C.2    37  ASP37       0.2266
     22  O         80.1220   -6.2640  129.6020 O.2    37  ASP37      -0.2867
     23  CB        77.0530   -5.4780  128.5050 C.3    37  ASP37       0.1410
     24  CG        77.3460   -4.1400  129.1650 C.2    37  ASP37       0.3668
     25  OD1       78.3460   -3.4920  128.7960 O.co2  37  ASP37      -0.2456
     26  OD2       76.5620   -3.7320  130.0450 O.co2  37  ASP37      -0.2456
     27  N         75.1640   -0.4510  135.4160 N.3   107  HIS107     -0.1226
     28  CA        74.3780    0.6370  134.8480 C.3   107  HIS107      0.1752
     29  C         72.8770    0.3650  134.9010 C.2   107  HIS107      0.2596
     30  O         72.1060    1.0740  134.2410 O.2   107  HIS107     -0.2718
     31  CB        74.8010    0.8990  133.3970 C.3   107  HIS107      0.0759
     32  CG        74.3900   -0.1840  132.4500 C.ar  107  HIS107      0.0818
     33  ND1       73.4750    0.0180  131.4400 N.ar  107  HIS107     -0.2268
     34  CD2       74.7490   -1.4880  132.3780 C.ar  107  HIS107      0.1154
     35  CE1       73.3020   -1.1100  130.7740 C.ar  107  HIS107      0.1986
     36  NE2       74.0630   -2.0400  131.3230 N.ar  107  HIS107     -0.2212
     37  N         72.4410   -0.6430  135.6490 N.am  108  HIS108     -0.1975
     38  CA        71.0140   -0.8590  135.8190 C.3   108  HIS108      0.1656
     39  C         70.4540    0.1220  136.8490 C.2   108  HIS108      0.2291
     40  O         71.1800    0.5740  137.7390 O.2   108  HIS108     -0.2864
     41  CB        70.7400   -2.2920  136.2660 C.3   108  HIS108      0.0771
     42  CG        71.0070   -3.3170  135.2070 C.ar  108  HIS108      0.0820
     43  ND1       72.2730   -3.7810  134.9190 N.ar  108  HIS108     -0.2267
     44  CD2       70.1680   -3.9670  134.3660 C.ar  108  HIS108      0.1154
     45  CE1       72.2030   -4.6730  133.9470 C.ar  108  HIS108      0.1986
     46  NE2       70.9370   -4.8040  133.5930 N.ar  108  HIS108     -0.2212
     47  N         70.2790    3.0050  129.4450 N.3   132  VAL132     -0.1231
     48  CA        70.4690    2.2600  128.2050 C.3   132  VAL132      0.1692
     49  C         71.1210    3.1100  127.1240 C.2   132  VAL132      0.2591
     50  O         71.1820    2.6870  125.9640 O.2   132  VAL132     -0.2718
     51  CB        69.1470    1.6570  127.6990 C.3   132  VAL132      0.0266
     52  CG1       68.6070    0.6420  128.7050 C.3   132  VAL132      0.0020
     53  CG2       68.1220    2.7520  127.4300 C.3   132  VAL132      0.0020
     54  N         71.6370    4.2770  127.4740 N.am  133  ARG133     -0.1980
     55  CA        72.1310    5.1820  126.4440 C.3   133  ARG133      0.1597
     56  C         73.4880    5.7960  126.7660 C.2   133  ARG133      0.2287
     57  O         74.3300    5.9140  125.8710 O.2   133  ARG133     -0.2864
     58  CB        71.0920    6.2900  126.2200 C.3   133  ARG133      0.0334
     59  CG        71.1030    6.8860  124.8330 C.3   133  ARG133      0.0492
     60  CD        70.1780    8.0910  124.7380 C.3   133  ARG133      0.2205
     61  NE        68.7700    7.7250  124.8460 N.pl3 133  ARG133     -0.0865
     62  CZ        67.9290    7.6780  123.8160 C.cat 133  ARG133      0.5346
     63  NH1       68.3510    7.9800  122.5960 N.pl3 133  ARG133      0.1354
     64  NH2       66.6630    7.3330  124.0090 N.pl3 133  ARG133      0.1354
     65  N         76.6490   -4.2680  121.9830 N.3   165  GLY165     -0.1210
     66  CA        75.8640   -5.4270  122.3820 C.3   165  GLY165      0.1956
     67  C         74.6730   -5.0650  123.2460 C.2   165  GLY165      0.2611
     68  O         73.6130   -5.6900  123.1440 O.2   165  GLY165     -0.2717
     69  N         74.8210   -4.0470  124.0930 N.am  166  ASP166     -0.1973
     70  CA        73.7260   -3.5590  124.9210 C.3   166  ASP166      0.1709
     71  C         72.8100   -2.5900  124.1850 C.2   166  ASP166      0.2293
     72  O         71.8630   -2.0820  124.7970 O.2   166  ASP166     -0.2864
     73  CB        74.2840   -2.8920  126.1790 C.3   166  ASP166      0.1436
     74  CG        74.1040   -3.7430  127.4170 C.2   166  ASP166      0.3671
     75  OD1       73.9730   -4.9790  127.2900 O.co2 166  ASP166     -0.2456
     76  OD2       74.0920   -3.1680  128.5220 O.co2 166  ASP166     -0.2456
     77  N         73.3750    0.4680  123.1010 N.3   167  GLN167     -0.1245
     78  CA        73.4550    1.8310  123.6080 C.3   167  GLN167      0.1566
     79  C         73.3810    2.8710  122.4950 C.2   167  GLN167      0.2260
     80  O         73.1550    4.0520  122.7820 O.2   167  GLN167     -0.2867
     81  CB        74.7400    2.0030  124.4190 C.3   167  GLN167      0.0367
     82  CG        74.7900    1.1270  125.6680 C.3   167  GLN167      0.0905
     83  CD        74.6230    1.9270  126.9480 C.2   167  GLN167      0.2608
     84  OE1       75.1660    3.0210  127.0800 O.2   167  GLN167     -0.2717
     85  NE2       73.8690    1.3830  127.8960 N.am  167  GLN167     -0.0878
     86  N         71.1180    2.5400  119.9460 N.3   169  ASN169     -0.1240
     87  CA        69.9650    1.9540  119.2720 C.3   169  ASN169      0.1653
     88  C         69.2610    2.9490  118.3570 C.2   169  ASN169      0.2266
     89  O         68.5910    2.5380  117.4030 O.2   169  ASN169     -0.2867
     90  CB        68.9840    1.3980  120.3040 C.3   169  ASN169      0.1155
     91  CG        67.8610    0.6090  119.6690 C.2   169  ASN169      0.2627
     92  OD1       68.0960   -0.4180  119.0320 O.2   169  ASN169     -0.2716
     93  ND2       66.6340    1.0840  119.8350 N.am  169  ASN169     -0.0877
     94  N         61.1900   -7.9920  121.3550 N.3   374  SER374     -0.1217
     95  CA        61.6280   -6.8960  120.4960 C.3   374  SER374      0.1889
     96  C         61.2060   -7.1230  119.0500 C.2   374  SER374      0.2288
     97  O         60.7790   -6.1850  118.3650 O.2   374  SER374     -0.2866
     98  CB        63.1450   -6.7310  120.5880 C.3   374  SER374      0.2089
     99  OG        63.5520   -6.4300  121.9110 O.3   374  SER374     -0.2183
    100  N         59.8590   -5.8320  126.6540 N.3   405  ARG405     -0.1231
    101  CA        60.5050   -4.8600  125.7840 C.3   405  ARG405      0.1694
    102  C         59.4750   -3.8350  125.3430 C.2   405  ARG405      0.2592
    103  O         58.2830   -4.1390  125.2410 O.2   405  ARG405     -0.2718
    104  CB        61.1310   -5.5160  124.5430 C.3   405  ARG405      0.0321
    105  CG        62.2130   -6.5360  124.8410 C.3   405  ARG405      0.0489
    106  CD        63.4550   -5.8820  125.4170 C.3   405  ARG405      0.2205
    107  NE        64.5510   -6.8400  125.5230 N.pl3 405  ARG405     -0.0865
    108  CZ        64.7880   -7.5880  126.5940 C.cat 405  ARG405      0.5346
    109  NH1       64.0110   -7.4860  127.6620 N.pl3 405  ARG405      0.1354
    110  NH2       65.8070   -8.4380  126.5980 N.pl3 405  ARG405      0.1354
    111  N         59.9440   -2.6260  125.0650 N.am  406  THR406     -0.1953
    112  CA        59.0620   -1.5770  124.5730 C.3   406  THR406      0.1897
    113  C         59.9070   -0.5450  123.8260 C.2   406  THR406      0.2313
    114  O         61.0710   -0.7950  123.4910 O.2   406  THR406     -0.2863
    115  CB        58.2430   -0.9810  125.7240 C.3   406  THR406      0.1794
    116  OG1       57.1400   -0.2490  125.1860 O.3   406  THR406     -0.2208
    117  CG2       59.0950   -0.0670  126.6140 C.3   406  THR406      0.0378
    118  N         60.8080    3.8730  122.9180 N.3   408  GLU408     -0.1245
    119  CA        60.9550    5.1870  123.5370 C.3   408  GLU408      0.1567
    120  C         59.6260    5.9320  123.5910 C.2   408  GLU408      0.2260
    121  O         59.3490    6.6470  124.5610 O.2   408  GLU408     -0.2867
    122  CB        62.0060    6.0080  122.7890 C.3   408  GLU408      0.0388
    123  CG        63.4300    5.7420  123.2470 C.3   408  GLU408      0.1160
    124  CD        63.7020    6.2870  124.6380 C.2   408  GLU408      0.3649
    125  OE1       63.0390    7.2700  125.0310 O.co2 408  GLU408     -0.2457
    126  OE2       64.5750    5.7310  125.3390 O.co2 408  GLU408     -0.2457
    127  N         65.8040   -2.4700  133.3050 N.3   435  HIS435     -0.1241
    128  CA        65.7180   -1.1240  132.7600 C.3   435  HIS435      0.1621
    129  C         64.2580   -0.7300  132.5460 C.2   435  HIS435      0.2264
    130  O         63.3480   -1.5650  132.5510 O.2   435  HIS435     -0.2867
    131  CB        66.4720   -1.0270  131.4300 C.3   435  HIS435      0.0745
    132  CG        67.9220   -1.3960  131.5150 C.ar  435  HIS435      0.0817
    133  ND1       68.8750   -0.5550  132.0470 N.ar  435  HIS435     -0.2268
    134  CD2       68.5850   -2.5060  131.1090 C.ar  435  HIS435      0.1154
    135  CE1       70.0600   -1.1350  131.9780 C.ar  435  HIS435      0.1986
    136  NE2       69.9110   -2.3200  131.4130 N.ar  435  HIS435     -0.2212
    137  N         63.1530    0.3510  129.6970 N.3   437  ILE437     -0.1231
    138  CA        62.7890   -0.0880  128.3500 C.3   437  ILE437      0.1692
    139  C         62.9090   -1.5950  128.1560 C.2   437  ILE437      0.2591
    140  O         62.3870   -2.1240  127.1620 O.2   437  ILE437     -0.2718
    141  CB        63.6600    0.6340  127.3020 C.3   437  ILE437      0.0266
    142  CG1       62.9340    0.7240  125.9580 C.3   437  ILE437      0.0019
    143  CG2       64.9950   -0.0800  127.1350 C.3   437  ILE437      0.0020
    144  CD1       63.6300    1.6200  124.9460 C.3   437  ILE437      0.0001
    145  N         63.5730   -2.3040  129.0670 N.am  438  ALA438     -0.1980
    146  CA        63.8560   -3.7230  128.8680 C.3   438  ALA438      0.1597
    147  C         64.0890   -4.3620  130.2240 C.2   438  ALA438      0.2287
    148  O         64.9880   -3.9380  130.9590 O.2   438  ALA438     -0.2864
    149  CB        65.0750   -3.9130  127.9650 C.3   438  ALA438      0.0319
@<TRIPOS>BOND
     1    89    88    2
     2    88    87    1
     3    97    96    2
     4    92    91    2
     5    96    95    1
     6    87    86    1
     7    87    90    1
     8    91    93   am
     9    91    90    1
    10    95    98    1
    11    95    94    1
    12    98    99    1
    13    65    66    1
    14    66    67    1
    15    79    80    2
    16    79    78    1
    17    63    62    1
    18   122   123    1
    19   122   119    1
    20   118   119    1
    21    77    78    1
    22    68    67    2
    23    67    69   am
    24   123   124    1
    25   114   113    2
    26   119   120    1
    27   120   121    2
    28    78    81    1
    29    62    64    1
    30    62    61    2
    31   113   112    1
    32    69    70    1
    33    71    72    2
    34    71    70    1
    35    81    82    1
    36   104   105    1
    37   104   101    1
    38   112   111    1
    39   112   115    1
    40   124   125   ar
    41   124   126   ar
    42    60    59    1
    43    60    61    1
    44    59    58    1
    45   105   106    1
    46    70    73    1
    47   144   142    1
    48   111   102   am
    49   116   115    1
    50   103   102    2
    51   102   101    1
    52   106   107    1
    53   107   108    2
    54    82    83    1
    55   115   117    1
    56   101   100    1
    57    57    56    2
    58   142   141    1
    59    50    49    2
    60    73    74    1
    61    58    55    1
    62    55    56    1
    63    55    54    1
    64   108   110    1
    65   108   109    1
    66    83    84    2
    67    83    85   am
    68    13    12    1
    69    13    14    2
    70    19    20    1
    71    49    54   am
    72    49    48    1
    73   143   141    1
    74   140   139    2
    75    75    74   ar
    76   141   138    1
    77    12    15    1
    78    12    11    1
    79    74    76   ar
    80    53    51    1
    81    15    16    1
    82    51    48    1
    83    51    52    1
    84   149   146    1
    85    20    23    1
    86    20    21    1
    87   139   138    1
    88   139   145   am
    89    48    47    1
    90   138   137    1
    91    23    24    1
    92    16    18   ar
    93    16    17   ar
    94    25    24   ar
    95   146   145    1
    96   146   147    1
    97    24    26   ar
    98    21    22    2
    99   147   148    2
   100    35    36   ar
   101    35    33   ar
   102   134   136   ar
   103   134   132   ar
   104     4     3    2
   105    36    34   ar
   106   136   135   ar
   107   131   132    1
   108   131   128    1
   109    33    32   ar
   110   132   133   ar
   111     9     7   ar
   112     9    10   ar
   113     7     6   ar
   114     3     2    1
   115   135   133   ar
   116    34    32   ar
   117    10     8   ar
   118    32    31    1
   119     6     5    1
   120     6     8   ar
   121   129   130    2
   122   129   128    1
   123     5     2    1
   124   128   127    1
   125     2     1    1
   126    31    28    1
   127    46    45   ar
   128    46    44   ar
   129    45    43   ar
   130    30    29    2
   131    44    42   ar
   132    28    29    1
   133    28    27    1
   134    29    37   am
   135    43    42   ar
   136    42    41    1
   137    37    38    1
   138    38    41    1
   139    38    39    1
   140    39    40    2
