@<TRIPOS>MOLECULE
tmp/5x4vA00.pdb
 151 141 0 0 0
SMALL
GASTEIGER

@<TRIPOS>ATOM
      1  N          8.4270   11.8160   -0.4480 N.3     6  TYR6       -0.1241
      2  CA         9.3040   11.4920    0.6640 C.3     6  TYR6        0.1605
      3  C          8.6300   10.6340    1.7490 C.2     6  TYR6        0.2264
      4  O          7.4120   10.4560    1.7750 O.2     6  TYR6       -0.2867
      5  CB         9.8590   12.7770    1.2850 C.3     6  TYR6        0.0534
      6  CG         8.8990   13.4480    2.2330 C.ar    6  TYR6       -0.0201
      7  CD1        8.8650   13.1000    3.5790 C.ar    6  TYR6       -0.0009
      8  CD2        8.0250   14.4270    1.7870 C.ar    6  TYR6       -0.0009
      9  CE1        7.9900   13.6940    4.4480 C.ar    6  TYR6        0.0417
     10  CE2        7.1460   15.0330    2.6500 C.ar    6  TYR6        0.0417
     11  CZ         7.1320   14.6640    3.9820 C.ar    6  TYR6        0.1957
     12  OH         6.2520   15.2600    4.8530 O.3     6  TYR6       -0.2866
     13  N          2.2780   10.7460   17.8790 N.3    14  LEU14      -0.1245
     14  CA         1.2760   11.6680   17.3850 C.3    14  LEU14       0.1561
     15  C         -0.0470   10.9220   17.2990 C.2    14  LEU14       0.2260
     16  O         -0.0700    9.7550   16.9040 O.2    14  LEU14      -0.2867
     17  CB         1.6760   12.2400   16.0200 C.3    14  LEU14       0.0270
     18  CG         2.8300   13.2440   15.9500 C.3    14  LEU14       0.0019
     19  CD1        3.1150   13.6370   14.5160 C.3    14  LEU14       0.0001
     20  CD2        2.5370   14.4880   16.7680 C.3    14  LEU14       0.0001
     21  N         -2.4810   18.4000   11.0700 N.3    22  ILE22      -0.1245
     22  CA        -1.3880   18.7490   10.1760 C.3    22  ILE22       0.1561
     23  C         -1.8620   18.6230    8.7320 C.2    22  ILE22       0.2260
     24  O         -1.3880   19.3370    7.8470 O.2    22  ILE22      -0.2867
     25  CB        -0.1630   17.8550   10.4090 C.3    22  ILE22       0.0252
     26  CG1        0.4760   18.1870   11.7660 C.3    22  ILE22       0.0019
     27  CG2        0.8400   18.0270    9.2630 C.3    22  ILE22       0.0019
     28  CD1        1.2400   17.0480   12.3980 C.3    22  ILE22       0.0001
     29  N         -4.2490   22.0410    8.0350 N.3    25  ILE25      -0.1231
     30  CA        -3.3520   23.1900    7.8730 C.3    25  ILE25       0.1692
     31  C         -2.4660   23.0340    6.6450 C.2    25  ILE25       0.2592
     32  O         -2.0590   24.0220    6.0290 O.2    25  ILE25      -0.2718
     33  CB        -2.4420   23.3930    9.0930 C.3    25  ILE25       0.0266
     34  CG1       -3.2610   23.4530   10.3880 C.3    25  ILE25       0.0019
     35  CG2       -1.5940   24.6540    8.9140 C.3    25  ILE25       0.0020
     36  CD1       -2.4060   23.6380   11.6480 C.3    25  ILE25       0.0001
     37  N         -2.1700   21.7800    6.3090 N.am   26  SER26      -0.1952
     38  CA        -1.4190   21.4400    5.1040 C.3    26  SER26       0.1924
     39  C         -2.2150   21.7860    3.8570 C.2    26  SER26       0.2314
     40  O         -1.7100   22.4430    2.9500 O.2    26  SER26      -0.2863
     41  CB        -1.0620   19.9500    5.0800 C.3    26  SER26       0.2116
     42  OG         0.3380   19.7620    5.0750 O.3    26  SER26      -0.2180
     43  N         -2.6500   25.8270    3.2850 N.3    29  LYS29      -0.1231
     44  CA        -1.4640   26.5650    2.8510 C.3    29  LYS29       0.1693
     45  C         -1.0510   26.0960    1.4580 C.2    29  LYS29       0.2592
     46  O         -0.3470   26.7930    0.7090 O.2    29  LYS29      -0.2718
     47  CB        -0.3290   26.3830    3.8540 C.3    29  LYS29       0.0285
     48  CG         0.7150   27.4730    3.8110 C.3    29  LYS29       0.0035
     49  CD         1.5040   27.5200    5.1190 C.3    29  LYS29       0.0206
     50  CE         2.6400   28.5320    5.0430 C.3    29  LYS29       0.1093
     51  NZ         3.3240   28.7290    6.3550 N.3    29  LYS29      -0.1314
     52  N         -1.5290   24.8990    1.1300 N.am   30  ASN30      -0.1974
     53  CA        -1.3650   24.2950   -0.1760 C.3    30  ASN30       0.1688
     54  C         -2.3240   24.8680   -1.2220 C.2    30  ASN30       0.2292
     55  O         -1.8970   25.2350   -2.3230 O.2    30  ASN30      -0.2864
     56  CB        -1.5540   22.7830   -0.0640 C.3    30  ASN30       0.1181
     57  CG        -0.2810   22.0670    0.3260 C.2    30  ASN30       0.2629
     58  OD1        0.7730   22.6870    0.4830 O.2    30  ASN30      -0.2716
     59  ND2       -0.3710   20.7520    0.4810 N.am   30  ASN30      -0.0877
     60  N         -0.8980   12.6090    1.8810 N.3    39  LEU39      -0.1245
     61  CA        -0.1610   12.3740    3.1150 C.3    39  LEU39       0.1561
     62  C         -0.7430   11.1280    3.7690 C.2    39  LEU39       0.2260
     63  O         -1.9300   11.0770    4.0870 O.2    39  LEU39      -0.2867
     64  CB        -0.2500   13.5910    4.0460 C.3    39  LEU39       0.0270
     65  CG         0.5830   13.5900    5.3250 C.3    39  LEU39       0.0019
     66  CD1       -0.0840   12.7880    6.4170 C.3    39  LEU39       0.0001
     67  CD2        1.9440   13.0120    5.0100 C.3    39  LEU39       0.0001
     68  N          5.5510    8.5700    8.1780 N.3    46  PHE46      -0.1241
     69  CA         4.8900    9.4570    7.2100 C.3    46  PHE46       0.1605
     70  C          5.3270    9.2260    5.7590 C.2    46  PHE46       0.2264
     71  O          6.5260    9.1730    5.4660 O.2    46  PHE46      -0.2867
     72  CB         5.1460   10.9270    7.5630 C.3    46  PHE46       0.0534
     73  CG         4.2290   11.4600    8.6210 C.ar   46  PHE46      -0.0203
     74  CD1        2.8570   11.2300    8.5520 C.ar   46  PHE46      -0.0042
     75  CD2        4.7270   12.1800    9.6860 C.ar   46  PHE46      -0.0042
     76  CE1        1.9990   11.7160    9.5200 C.ar   46  PHE46      -0.0003
     77  CE2        3.8670   12.6690   10.6620 C.ar   46  PHE46      -0.0003
     78  CZ         2.5060   12.4310   10.5770 C.ar   46  PHE46      -0.0000
     79  N          4.5900   11.1250    1.9800 N.3    48  GLN48      -0.1245
     80  CA         3.9640   12.2600    1.3110 C.3    48  GLN48       0.1566
     81  C          4.4120   12.4500   -0.1400 C.2    48  GLN48       0.2260
     82  O          5.6030   12.3160   -0.4680 O.2    48  GLN48      -0.2867
     83  CB         4.2350   13.5500    2.0840 C.3    48  GLN48       0.0367
     84  CG         3.5290   14.7430    1.4670 C.3    48  GLN48       0.0905
     85  CD         3.3930   15.9250    2.4050 C.2    48  GLN48       0.2608
     86  OE1        4.3790   16.5590    2.7860 O.2    48  GLN48      -0.2717
     87  NE2        2.1590   16.2370    2.7670 N.am   48  GLN48      -0.0878
     88  N          4.1130   15.5530   -2.9280 N.3    50  LEU50      -0.1245
     89  CA         3.7410   16.9530   -3.1970 C.3    50  LEU50       0.1561
     90  C          4.0470   17.3790   -4.6430 C.2    50  LEU50       0.2260
     91  O          5.1490   17.1330   -5.1580 O.2    50  LEU50      -0.2867
     92  CB         4.4640   17.9140   -2.2430 C.3    50  LEU50       0.0270
     93  CG         4.4640   17.6470   -0.7380 C.3    50  LEU50       0.0019
     94  CD1        5.8860   17.3470   -0.2900 C.3    50  LEU50       0.0001
     95  CD2        3.8970   18.8330    0.0130 C.3    50  LEU50       0.0001
     96  N          8.3220   24.7500    0.3990 N.3    60  ILE60      -0.1245
     97  CA         7.5650   23.9010    1.3090 C.3    60  ILE60       0.1561
     98  C          8.4550   22.8320    1.9330 C.2    60  ILE60       0.2260
     99  O          8.4260   22.5890    3.1400 O.2    60  ILE60      -0.2867
    100  CB         6.4010   23.1960    0.5960 C.3    60  ILE60       0.0252
    101  CG1        5.3220   24.1970    0.1900 C.3    60  ILE60       0.0019
    102  CG2        5.8180   22.0970    1.4760 C.3    60  ILE60       0.0019
    103  CD1        4.0900   23.5450   -0.3640 C.3    60  ILE60       0.0001
    104  N         10.8380   23.8010    4.5840 N.3    63  ARG63      -0.1231
    105  CA        10.1060   23.9460    5.8380 C.3    63  ARG63       0.1694
    106  C          9.7190   22.6000    6.4260 C.2    63  ARG63       0.2591
    107  O          9.6900   22.4350    7.6380 O.2    63  ARG63      -0.2718
    108  CB         8.8410   24.7840    5.6420 C.3    63  ARG63       0.0321
    109  CG         9.0760   26.2190    5.1710 C.3    63  ARG63       0.0489
    110  CD         7.8320   27.0750    5.4020 C.3    63  ARG63       0.2205
    111  NE         6.5980   26.4230    4.9580 N.pl3  63  ARG63      -0.0865
    112  CZ         5.8920   26.7870    3.8940 C.cat  63  ARG63       0.5346
    113  NH1        4.7860   26.1340    3.5700 N.pl3  63  ARG63       0.1354
    114  NH2        6.2940   27.8060    3.1520 N.pl3  63  ARG63       0.1354
    115  N          9.3870   21.6420    5.5730 N.am   64  ILE64      -0.1980
    116  CA         9.1340   20.2970    6.0590 C.3    64  ILE64       0.1595
    117  C         10.4170   19.6880    6.6470 C.2    64  ILE64       0.2287
    118  O         10.3740   19.0040    7.6630 O.2    64  ILE64      -0.2864
    119  CB         8.5830   19.3930    4.9470 C.3    64  ILE64       0.0276
    120  CG1        7.3320   20.0260    4.3370 C.3    64  ILE64       0.0022
    121  CG2        8.2780   17.9950    5.4940 C.3    64  ILE64       0.0022
    122  CD1        6.6810   19.2030    3.2430 C.3    64  ILE64       0.0001
    123  N         11.1200   20.9900   10.2070 N.3    67  ASP67      -0.1239
    124  CA        10.0480   20.7420   11.1670 C.3    67  ASP67       0.1674
    125  C         10.4230   19.5630   12.0700 C.2    67  ASP67       0.2266
    126  O         10.7750   18.4910   11.5770 O.2    67  ASP67      -0.2867
    127  CB         8.7430   20.4720   10.4190 C.3    67  ASP67       0.1410
    128  CG         7.5570   20.3140   11.3330 C.2    67  ASP67       0.3668
    129  OD1        7.7290   19.9060   12.5030 O.co2  67  ASP67      -0.2456
    130  OD2        6.4330   20.5880   10.8630 O.co2  67  ASP67      -0.2456
    131  N          8.6980   17.5940   14.1050 N.3    69  ARG69      -0.1231
    132  CA         7.7090   16.5840   14.4720 C.3    69  ARG69       0.1694
    133  C          7.9370   15.2600   13.7270 C.2    69  ARG69       0.2592
    134  O          7.2510   14.2630   13.9890 O.2    69  ARG69      -0.2718
    135  CB         6.3010   17.1040   14.2200 C.3    69  ARG69       0.0321
    136  CG         5.8910   18.1720   15.2030 C.3    69  ARG69       0.0489
    137  CD         4.6690   18.9050   14.7270 C.3    69  ARG69       0.2205
    138  NE         4.9730   19.8080   13.6210 N.pl3  69  ARG69      -0.0865
    139  CZ         4.0440   20.4150   12.8940 C.cat  69  ARG69       0.5346
    140  NH1        2.7590   20.1980   13.1540 N.pl3  69  ARG69       0.1354
    141  NH2        4.3990   21.2200   11.8990 N.pl3  69  ARG69       0.1354
    142  N          8.8950   15.2580   12.8000 N.am   70  HIS70      -0.1976
    143  CA         9.3620   14.0180   12.1780 C.3    70  HIS70       0.1656
    144  C         10.8770   14.0610   11.9900 C.2    70  HIS70       0.2291
    145  O         11.4920   15.1090   12.1440 O.2    70  HIS70      -0.2864
    146  CB         8.6440   13.7460   10.8400 C.3    70  HIS70       0.0771
    147  CG         8.8350   14.8050    9.7890 C.ar   70  HIS70       0.0820
    148  ND1        8.2870   14.6970    8.5260 N.ar   70  HIS70      -0.2267
    149  CD2        9.5000   15.9860    9.8060 C.ar   70  HIS70       0.1154
    150  CE1        8.6070   15.7600    7.8130 C.ar   70  HIS70       0.1986
    151  NE2        9.3350   16.5640    8.5670 N.ar   70  HIS70      -0.2212
@<TRIPOS>BOND
     1    91    90    2
     2    90    89    1
     3    89    88    1
     4    89    92    1
     5    55    54    2
     6    92    93    1
     7    54    53    1
     8    93    94    1
     9    93    95    1
    10    82    81    2
    11     1     2    1
    12   103   101    1
    13    53    56    1
    14    53    52    1
    15    81    80    1
    16    56    57    1
    17   101   100    1
    18    57    59   am
    19    57    58    2
    20    96    97    1
    21   100    97    1
    22   100   102    1
    23     2     5    1
    24     2     3    1
    25    46    45    2
    26    52    45   am
    27     5     6    1
    28    97    98    1
    29    80    79    1
    30    80    83    1
    31    45    44    1
    32    84    83    1
    33    84    85    1
    34     3     4    2
    35     8     6   ar
    36     8    10   ar
    37    60    61    1
    38    98    99    2
    39     6     7   ar
    40    85    87   am
    41    85    86    2
    42    10    11   ar
    43    44    43    1
    44    44    47    1
    45    40    39    2
    46    61    62    1
    47    61    64    1
    48   114   112    1
    49   122   120    1
    50   113   112    1
    51     7     9   ar
    52    62    63    2
    53    48    47    1
    54    48    49    1
    55    39    38    1
    56   112   111    2
    57    11     9   ar
    58    11    12    1
    59    64    65    1
    60   120   119    1
    61   104   105    1
    62   119   121    1
    63   119   116    1
    64   111   110    1
    65    67    65    1
    66    50    49    1
    67    50    51    1
    68    42    41    1
    69    41    38    1
    70    38    37    1
    71   109   110    1
    72   109   108    1
    73    65    66    1
    74    71    70    2
    75   115   116    1
    76   115   106   am
    77   108   105    1
    78    70    69    1
    79   105   106    1
    80    32    31    2
    81   116   117    1
    82    37    31   am
    83   106   107    2
    84    31    30    1
    85   117   118    2
    86    69    72    1
    87    69    68    1
    88    72    73    1
    89   150   148   ar
    90   150   151   ar
    91    24    23    2
    92    30    29    1
    93    30    33    1
    94   148   147   ar
    95    74    73   ar
    96    74    76   ar
    97   151   149   ar
    98    73    75   ar
    99    23    22    1
   100    35    33    1
   101    33    34    1
   102    27    25    1
   103    76    78   ar
   104    75    77   ar
   105   147   149   ar
   106   147   146    1
   107    22    25    1
   108    22    21    1
   109   123   124    1
   110    34    36    1
   111    25    26    1
   112   127   124    1
   113   127   128    1
   114    78    77   ar
   115   146   143    1
   116   130   128   ar
   117   124   125    1
   118   128   129   ar
   119   126   125    2
   120    26    28    1
   121   141   139    1
   122   144   145    2
   123   144   143    1
   124   143   142    1
   125   142   133   am
   126   139   140    1
   127   139   138    2
   128   138   137    1
   129   133   134    2
   130   133   132    1
   131   131   132    1
   132   135   132    1
   133   135   136    1
   134    19    18    1
   135   137   136    1
   136    18    17    1
   137    18    20    1
   138    17    14    1
   139    16    15    2
   140    15    14    1
   141    14    13    1
