@<TRIPOS>MOLECULE
tmp/5x52A00.pdb
 106 100 0 0 0
SMALL
GASTEIGER

@<TRIPOS>ATOM
      1  N         19.6120    2.7140   16.3860 N.3   193  LYS193     -0.1245
      2  CA        21.0230    2.3550   16.4570 C.3   193  LYS193      0.1561
      3  C         21.2190    1.0320   17.1850 C.2   193  LYS193      0.2260
      4  O         22.0140    0.1890   16.7530 O.2   193  LYS193     -0.2867
      5  CB        21.7980    3.4700   17.1510 C.3   193  LYS193      0.0271
      6  CG        23.2680    3.1940   17.3160 C.3   193  LYS193      0.0035
      7  CD        23.8650    4.1290   18.3440 C.3   193  LYS193      0.0206
      8  CE        25.3500    4.2790   18.1200 C.3   193  LYS193      0.1093
      9  NZ        25.6010    4.8700   16.7810 N.3   193  LYS193     -0.1314
     10  N         32.6260   -5.8850   13.7960 N.3   212  TRP212     -0.1241
     11  CA        32.1760   -4.5020   13.9110 C.3   212  TRP212      0.1605
     12  C         32.7800   -3.8320   15.1380 C.2   212  TRP212      0.2264
     13  O         33.1160   -2.6430   15.1040 O.2   212  TRP212     -0.2867
     14  CB        30.6490   -4.4480   13.9690 C.3   212  TRP212      0.0550
     15  CG        30.1040   -3.0680   14.1900 C.ar  212  TRP212      0.0003
     16  CD1       29.6880   -2.1900   13.2340 C.ar  212  TRP212      0.0946
     17  CD2       29.9190   -2.4070   15.4490 C.ar  212  TRP212      0.0152
     18  NE1       29.2560   -1.0230   13.8170 N.ar  212  TRP212     -0.2442
     19  CE2       29.3880   -1.1310   15.1760 C.ar  212  TRP212      0.0810
     20  CE3       30.1510   -2.7710   16.7790 C.ar  212  TRP212      0.0012
     21  CZ2       29.0860   -0.2180   16.1840 C.ar  212  TRP212      0.0191
     22  CZ3       29.8520   -1.8630   17.7780 C.ar  212  TRP212      0.0001
     23  CH2       29.3250   -0.6020   17.4750 C.ar  212  TRP212      0.0015
     24  N         35.2620   -0.2980   15.1210 N.3   216  ARG216     -0.1245
     25  CA        34.8780    0.9750   15.7230 C.3   216  ARG216      0.1563
     26  C         35.7510    1.3100   16.9260 C.2   216  ARG216      0.2260
     27  O         36.0990    2.4770   17.1400 O.2   216  ARG216     -0.2867
     28  CB        33.4030    0.9520   16.1210 C.3   216  ARG216      0.0307
     29  CG        32.8560    2.3240   16.4890 C.3   216  ARG216      0.0489
     30  CD        33.0640    3.3040   15.3440 C.3   216  ARG216      0.2205
     31  NE        32.6700    4.6680   15.6820 N.pl3 216  ARG216     -0.0865
     32  CZ        33.5080    5.5970   16.1320 C.cat 216  ARG216      0.5346
     33  NH1       34.7910    5.3090   16.3050 N.pl3 216  ARG216      0.1354
     34  NH2       33.0650    6.8140   16.4090 N.pl3 216  ARG216      0.1354
     35  N         38.2080    4.4960   17.3790 N.3   220  ARG220     -0.1245
     36  CA        38.0050    5.3800   18.5180 C.3   220  ARG220      0.1563
     37  C         39.1680    5.3290   19.5010 C.2   220  ARG220      0.2260
     38  O         39.4940    6.3490   20.1190 O.2   220  ARG220     -0.2867
     39  CB        36.6940    5.0180   19.2180 C.3   220  ARG220      0.0307
     40  CG        36.2730    5.9760   20.3130 C.3   220  ARG220      0.0489
     41  CD        34.8670    5.6550   20.7930 C.3   220  ARG220      0.2205
     42  NE        33.8540    6.0060   19.8010 N.pl3 220  ARG220     -0.0865
     43  CZ        32.5610    5.7280   19.9280 C.cat 220  ARG220      0.5346
     44  NH1       32.1240    5.0880   21.0030 N.pl3 220  ARG220      0.1354
     45  NH2       31.7060    6.0840   18.9800 N.pl3 220  ARG220      0.1354
     46  N         30.3470    5.7340   24.8870 N.3   289  ALA289     -0.1231
     47  CA        29.7940    5.2260   23.6400 C.3   289  ALA289      0.1694
     48  C         29.7040    6.2950   22.5580 C.2   289  ALA289      0.2592
     49  O         29.3590    5.9680   21.4180 O.2   289  ALA289     -0.2718
     50  CB        28.4110    4.6220   23.8870 C.3   289  ALA289      0.0304
     51  N         30.0020    7.5550   22.8850 N.am  290  GLU290     -0.1966
     52  CA        29.9560    8.6440   21.9160 C.3   290  GLU290      0.1733
     53  C         31.1970    9.5270   21.9650 C.2   290  GLU290      0.2616
     54  O         31.1770   10.6290   21.4030 O.2   290  GLU290     -0.2715
     55  CB        28.7070    9.5080   22.1350 C.3   290  GLU290      0.0429
     56  CG        27.3910    8.7720   21.9590 C.3   290  GLU290      0.1163
     57  CD        26.1950    9.6440   22.2860 C.2   290  GLU290      0.3649
     58  OE1       26.4010   10.7780   22.7680 O.co2 290  GLU290     -0.2457
     59  OE2       25.0510    9.1960   22.0620 O.co2 290  GLU290     -0.2457
     60  N         32.2730    9.0820   22.6190 N.am  291  VAL291     -0.1963
     61  CA        33.4570    9.9240   22.7420 C.3   291  VAL291      0.1727
     62  C         34.1400   10.0680   21.3840 C.2   291  VAL291      0.2616
     63  O         33.9780    9.2440   20.4760 O.2   291  VAL291     -0.2715
     64  CB        34.4220    9.3600   23.8000 C.3   291  VAL291      0.0290
     65  CG1       35.2820    8.2500   23.2160 C.3   291  VAL291      0.0023
     66  CG2       35.2820   10.4680   24.3910 C.3   291  VAL291      0.0023
     67  N         34.9030   11.1490   21.2420 N.am  292  GLU292     -0.1963
     68  CA        35.5770   11.4310   19.9850 C.3   292  GLU292      0.1733
     69  C         36.7080   10.4360   19.7410 C.2   292  GLU292      0.2616
     70  O         37.1680    9.7360   20.6480 O.2   292  GLU292     -0.2715
     71  CB        36.1290   12.8580   19.9730 C.3   292  GLU292      0.0429
     72  CG        35.0680   13.9490   20.0030 C.3   292  GLU292      0.1163
     73  CD        34.5570   14.2350   21.4020 C.2   292  GLU292      0.3649
     74  OE1       35.2770   13.9240   22.3750 O.co2 292  GLU292     -0.2457
     75  OE2       33.4360   14.7700   21.5290 O.co2 292  GLU292     -0.2457
     76  N         37.1550   10.3800   18.4890 N.am  293  ASN293     -0.1972
     77  CA        38.2590    9.5040   18.1200 C.3   293  ASN293      0.1688
     78  C         39.5620   10.0440   18.6930 C.2   293  ASN293      0.2292
     79  O         39.9230   11.2010   18.4530 O.2   293  ASN293     -0.2864
     80  CB        38.3550    9.3780   16.6010 C.3   293  ASN293      0.1181
     81  CG        37.2040    8.5940   16.0060 C.2   293  ASN293      0.2629
     82  OD1       36.6190    7.7320   16.6620 O.2   293  ASN293     -0.2716
     83  ND2       36.8750    8.8860   14.7530 N.am  293  ASN293     -0.0877
     84  N         22.3890   15.4420    8.8300 N.3   434  LYS434     -0.1245
     85  CA        23.2780   14.9510    9.8750 C.3   434  LYS434      0.1561
     86  C         24.7440   15.1560    9.5130 C.2   434  LYS434      0.2260
     87  O         25.5150   15.7010   10.3110 O.2   434  LYS434     -0.2867
     88  CB        22.9960   13.4700   10.1440 C.3   434  LYS434      0.0271
     89  CG        23.9930   12.7940   11.0710 C.3   434  LYS434      0.0035
     90  CD        23.5510   12.8590   12.5220 C.3   434  LYS434      0.0206
     91  CE        24.5950   12.2360   13.4370 C.3   434  LYS434      0.1093
     92  NZ        24.9540   10.8520   13.0170 N.3   434  LYS434     -0.1314
     93  N         30.3460    8.7840    9.0330 N.3   446  CYS446     -0.1235
     94  CA        29.0370    9.0520    9.6140 C.3   446  CYS446      0.1677
     95  C         27.9100    8.7660    8.6290 C.2   446  CYS446      0.2270
     96  O         26.8800    8.2010    9.0120 O.2   446  CYS446     -0.2867
     97  CB        28.9640   10.5000   10.0940 C.3   446  CYS446      0.0956
     98  SG        27.2850   11.0880   10.3620 S.3   446  CYS446     -0.0801
     99  N         27.6350    4.7050    8.0090 N.3   449  ASP449     -0.1239
    100  CA        27.2180    3.9910    9.2120 C.3   449  ASP449      0.1674
    101  C         25.8110    4.3890    9.6410 C.2   449  ASP449      0.2266
    102  O         25.1090    3.5940   10.2760 O.2   449  ASP449     -0.2867
    103  CB        28.2160    4.2340   10.3450 C.3   449  ASP449      0.1410
    104  CG        29.5370    3.5170   10.1230 C.2   449  ASP449      0.3668
    105  OD1       29.5270    2.4250    9.5170 O.co2 449  ASP449     -0.2456
    106  OD2       30.5850    4.0420   10.5560 O.co2 449  ASP449     -0.2456
@<TRIPOS>BOND
     1    99   100    1
     2    95    96    2
     3    95    94    1
     4    84    85    1
     5    93    94    1
     6   100   101    1
     7   100   103    1
     8    86    85    1
     9    86    87    2
    10   105   104   ar
    11    94    97    1
    12   101   102    2
    13    85    88    1
    14    97    98    1
    15   104   103    1
    16   104   106   ar
    17    88    89    1
    18    89    90    1
    19    90    91    1
    20    92    91    1
    21    16    18   ar
    22    16    15   ar
    23    10    11    1
    24    18    19   ar
    25    11    14    1
    26    11    12    1
    27    14    15    1
    28    15    17   ar
    29    83    81   am
    30    13    12    2
    31    24    25    1
    32    19    17   ar
    33    19    21   ar
    34    30    31    1
    35    30    29    1
    36    17    20   ar
    37    31    32    2
    38    25    28    1
    39    25    26    1
    40    81    80    1
    41    81    82    2
    42    28    29    1
    43    32    33    1
    44    32    34    1
    45    21    23   ar
    46     1     2    1
    47     2     5    1
    48     2     3    1
    49    80    77    1
    50     4     3    2
    51    20    22   ar
    52     9     8    1
    53    26    27    2
    54     5     6    1
    55     6     7    1
    56    35    36    1
    57    23    22   ar
    58     8     7    1
    59    77    76    1
    60    77    78    1
    61    79    78    2
    62    76    69   am
    63    36    39    1
    64    36    37    1
    65    45    43    1
    66    39    40    1
    67    37    38    2
    68    69    68    1
    69    69    70    2
    70    42    43    2
    71    42    41    1
    72    43    44    1
    73    71    68    1
    74    71    72    1
    75    68    67    1
    76    72    73    1
    77    40    41    1
    78    63    62    2
    79    67    62   am
    80    62    61    1
    81    73    75   ar
    82    73    74   ar
    83    54    53    2
    84    49    48    2
    85    52    53    1
    86    52    55    1
    87    52    51    1
    88    56    55    1
    89    56    57    1
    90    53    60   am
    91    59    57   ar
    92    57    58   ar
    93    48    51   am
    94    48    47    1
    95    60    61    1
    96    61    64    1
    97    65    64    1
    98    47    50    1
    99    47    46    1
   100    64    66    1
