@<TRIPOS>MOLECULE
tmp/5x52A02.pdb
 154 146 0 0 0
SMALL
GASTEIGER

@<TRIPOS>ATOM
      1  N         18.2190   -0.0110   24.1190 N.3   148  TYR148     -0.1241
      2  CA        19.3520   -0.2270   25.0100 C.3   148  TYR148      0.1605
      3  C         18.9330    0.0900   26.4390 C.2   148  TYR148      0.2264
      4  O         18.8810    1.2610   26.8290 O.2   148  TYR148     -0.2867
      5  CB        20.5450    0.6350   24.5870 C.3   148  TYR148      0.0534
      6  CG        21.8870    0.1200   25.0630 C.ar  148  TYR148     -0.0201
      7  CD1       22.0030   -1.1230   25.6690 C.ar  148  TYR148     -0.0009
      8  CD2       23.0370    0.8810   24.9070 C.ar  148  TYR148     -0.0009
      9  CE1       23.2280   -1.5940   26.1050 C.ar  148  TYR148      0.0417
     10  CE2       24.2650    0.4200   25.3410 C.ar  148  TYR148      0.0417
     11  CZ        24.3540   -0.8180   25.9380 C.ar  148  TYR148      0.1957
     12  OH        25.5750   -1.2810   26.3690 O.3   148  TYR148     -0.2866
     13  N         19.6120    2.7140   16.3860 N.3   193  LYS193     -0.1245
     14  CA        21.0230    2.3550   16.4570 C.3   193  LYS193      0.1561
     15  C         21.2190    1.0320   17.1850 C.2   193  LYS193      0.2260
     16  O         22.0140    0.1890   16.7530 O.2   193  LYS193     -0.2867
     17  CB        21.7980    3.4700   17.1510 C.3   193  LYS193      0.0271
     18  CG        23.2680    3.1940   17.3160 C.3   193  LYS193      0.0035
     19  CD        23.8650    4.1290   18.3440 C.3   193  LYS193      0.0206
     20  CE        25.3500    4.2790   18.1200 C.3   193  LYS193      0.1093
     21  NZ        25.6010    4.8700   16.7810 N.3   193  LYS193     -0.1314
     22  N         22.6010   -3.4510   16.3290 N.3   197  LYS197     -0.1245
     23  CA        23.4820   -4.3280   17.0920 C.3   197  LYS197      0.1561
     24  C         22.7990   -5.6520   17.4100 C.2   197  LYS197      0.2260
     25  O         23.4410   -6.7080   17.4050 O.2   197  LYS197     -0.2867
     26  CB        23.9300   -3.6350   18.3790 C.3   197  LYS197      0.0271
     27  CG        24.5080   -2.2430   18.1790 C.3   197  LYS197      0.0035
     28  CD        24.9120   -1.6290   19.5090 C.3   197  LYS197      0.0206
     29  CE        25.2280   -0.1480   19.3750 C.3   197  LYS197      0.1093
     30  NZ        26.3980    0.1030   18.4930 N.3   197  LYS197     -0.1314
     31  N         32.6260   -5.8850   13.7960 N.3   212  TRP212     -0.1241
     32  CA        32.1760   -4.5020   13.9110 C.3   212  TRP212      0.1605
     33  C         32.7800   -3.8320   15.1380 C.2   212  TRP212      0.2264
     34  O         33.1160   -2.6430   15.1040 O.2   212  TRP212     -0.2867
     35  CB        30.6490   -4.4480   13.9690 C.3   212  TRP212      0.0550
     36  CG        30.1040   -3.0680   14.1900 C.ar  212  TRP212      0.0003
     37  CD1       29.6880   -2.1900   13.2340 C.ar  212  TRP212      0.0946
     38  CD2       29.9190   -2.4070   15.4490 C.ar  212  TRP212      0.0152
     39  NE1       29.2560   -1.0230   13.8170 N.ar  212  TRP212     -0.2442
     40  CE2       29.3880   -1.1310   15.1760 C.ar  212  TRP212      0.0810
     41  CE3       30.1510   -2.7710   16.7790 C.ar  212  TRP212      0.0012
     42  CZ2       29.0860   -0.2180   16.1840 C.ar  212  TRP212      0.0191
     43  CZ3       29.8520   -1.8630   17.7780 C.ar  212  TRP212      0.0001
     44  CH2       29.3250   -0.6020   17.4750 C.ar  212  TRP212      0.0015
     45  N         35.2620   -0.2980   15.1210 N.3   216  ARG216     -0.1231
     46  CA        34.8780    0.9750   15.7230 C.3   216  ARG216      0.1694
     47  C         35.7510    1.3100   16.9260 C.2   216  ARG216      0.2591
     48  O         36.0990    2.4770   17.1400 O.2   216  ARG216     -0.2718
     49  CB        33.4030    0.9520   16.1210 C.3   216  ARG216      0.0321
     50  CG        32.8560    2.3240   16.4890 C.3   216  ARG216      0.0489
     51  CD        33.0640    3.3040   15.3440 C.3   216  ARG216      0.2205
     52  NE        32.6700    4.6680   15.6820 N.pl3 216  ARG216     -0.0865
     53  CZ        33.5080    5.5970   16.1320 C.cat 216  ARG216      0.5346
     54  NH1       34.7910    5.3090   16.3050 N.pl3 216  ARG216      0.1354
     55  NH2       33.0650    6.8140   16.4090 N.pl3 216  ARG216      0.1354
     56  N         36.1100    0.3040   17.7270 N.am  217  LEU217     -0.1980
     57  CA        36.9620    0.5640   18.8820 C.3   217  LEU217      0.1596
     58  C         38.3830    0.9180   18.4630 C.2   217  LEU217      0.2287
     59  O         39.0500    1.7020   19.1480 O.2   217  LEU217     -0.2864
     60  CB        36.9640   -0.6420   19.8220 C.3   217  LEU217      0.0297
     61  CG        35.6520   -0.9130   20.5630 C.3   217  LEU217      0.0022
     62  CD1       35.7920   -2.1090   21.4930 C.3   217  LEU217      0.0001
     63  CD2       35.2080    0.3210   21.3330 C.3   217  LEU217      0.0001
     64  N         38.2080    4.4960   17.3790 N.3   220  ARG220     -0.1231
     65  CA        38.0050    5.3800   18.5180 C.3   220  ARG220      0.1694
     66  C         39.1680    5.3290   19.5010 C.2   220  ARG220      0.2592
     67  O         39.4940    6.3490   20.1190 O.2   220  ARG220     -0.2718
     68  CB        36.6940    5.0180   19.2180 C.3   220  ARG220      0.0321
     69  CG        36.2730    5.9760   20.3130 C.3   220  ARG220      0.0489
     70  CD        34.8670    5.6550   20.7930 C.3   220  ARG220      0.2205
     71  NE        33.8540    6.0060   19.8010 N.pl3 220  ARG220     -0.0865
     72  CZ        32.5610    5.7280   19.9280 C.cat 220  ARG220      0.5346
     73  NH1       32.1240    5.0880   21.0030 N.pl3 220  ARG220      0.1354
     74  NH2       31.7060    6.0840   18.9800 N.pl3 220  ARG220      0.1354
     75  N         39.8050    4.1670   19.6550 N.am  221  PHE221     -0.1976
     76  CA        40.9450    3.9900   20.5530 C.3   221  PHE221      0.1639
     77  C         42.1470    3.5040   19.7470 C.2   221  PHE221      0.2290
     78  O         42.5500    2.3380   19.8560 O.2   221  PHE221     -0.2864
     79  CB        40.6190    3.0050   21.6750 C.3   221  PHE221      0.0560
     80  CG        39.3780    3.3500   22.4520 C.ar  221  PHE221     -0.0200
     81  CD1       39.0680    4.6660   22.7490 C.ar  221  PHE221     -0.0042
     82  CD2       38.5200    2.3520   22.8870 C.ar  221  PHE221     -0.0042
     83  CE1       37.9280    4.9820   23.4630 C.ar  221  PHE221     -0.0003
     84  CE2       37.3780    2.6610   23.6020 C.ar  221  PHE221     -0.0003
     85  CZ        37.0820    3.9780   23.8900 C.ar  221  PHE221     -0.0000
     86  N         32.5020   -5.7790   25.4800 N.3   236  LEU236     -0.1245
     87  CA        31.3940   -5.0670   24.8500 C.3   236  LEU236      0.1561
     88  C         30.4640   -6.0230   24.1150 C.2   236  LEU236      0.2260
     89  O         29.2490   -5.7980   24.0740 O.2   236  LEU236     -0.2867
     90  CB        31.9260   -4.0020   23.8910 C.3   236  LEU236      0.0270
     91  CG        30.8820   -3.1370   23.1820 C.3   236  LEU236      0.0019
     92  CD1       30.1410   -2.2610   24.1820 C.3   236  LEU236      0.0001
     93  CD2       31.5260   -2.2930   22.0940 C.3   236  LEU236      0.0001
     94  N         26.2100   -6.3230   24.8900 N.3   240  HIS240     -0.1241
     95  CA        25.1240   -6.2050   23.9230 C.3   240  HIS240      0.1621
     96  C         24.4810   -7.5520   23.6210 C.2   240  HIS240      0.2264
     97  O         23.3120   -7.6000   23.2230 O.2   240  HIS240     -0.2867
     98  CB        25.6320   -5.5510   22.6390 C.3   240  HIS240      0.0745
     99  CG        25.8910   -4.0830   22.7750 C.ar  240  HIS240      0.0817
    100  ND1       24.8790   -3.1460   22.7790 N.ar  240  HIS240     -0.2268
    101  CD2       27.0450   -3.3890   22.9150 C.ar  240  HIS240      0.1154
    102  CE1       25.4000   -1.9400   22.9140 C.ar  240  HIS240      0.1986
    103  NE2       26.7120   -2.0590   22.9980 N.ar  240  HIS240     -0.2212
    104  N         27.7360   -3.4810   31.7660 N.3   255  ARG255     -0.1245
    105  CA        28.1500   -2.2090   31.1820 C.3   255  ARG255      0.1563
    106  C         28.7770   -1.3060   32.2360 C.2   255  ARG255      0.2260
    107  O         29.7170   -0.5570   31.9420 O.2   255  ARG255     -0.2867
    108  CB        26.9670   -1.5090   30.5130 C.3   255  ARG255      0.0307
    109  CG        27.3920   -0.3380   29.6370 C.3   255  ARG255      0.0489
    110  CD        26.2160    0.4170   29.0360 C.3   255  ARG255      0.2205
    111  NE        25.6180    1.3600   29.9770 N.pl3 255  ARG255     -0.0865
    112  CZ        24.9140    2.4280   29.6150 C.cat 255  ARG255      0.5346
    113  NH1       24.7240    2.6950   28.3310 N.pl3 255  ARG255      0.1354
    114  NH2       24.4040    3.2320   30.5390 N.pl3 255  ARG255      0.1354
    115  N         32.2500   -2.5790   32.5350 N.3   258  LEU258     -0.1231
    116  CA        33.0660   -2.1870   31.3910 C.3   258  LEU258      0.1693
    117  C         33.4480   -0.7150   31.4650 C.2   258  LEU258      0.2591
    118  O         34.6000   -0.3530   31.2000 O.2   258  LEU258     -0.2718
    119  CB        32.3240   -2.4850   30.0880 C.3   258  LEU258      0.0284
    120  CG        33.0400   -2.0900   28.7950 C.3   258  LEU258      0.0019
    121  CD1       34.3600   -2.8340   28.6600 C.3   258  LEU258      0.0001
    122  CD2       32.1520   -2.3400   27.5860 C.3   258  LEU258      0.0001
    123  N         32.4970    0.1490   31.8280 N.am  259  ALA259     -0.1980
    124  CA        32.8060    1.5670   31.9650 C.3   259  ALA259      0.1597
    125  C         33.7760    1.8210   33.1100 C.2   259  ALA259      0.2287
    126  O         34.5460    2.7860   33.0660 O.2   259  ALA259     -0.2864
    127  CB        31.5220    2.3700   32.1710 C.3   259  ALA259      0.0319
    128  N         37.3000    0.6750   31.7360 N.3   262  ILE262     -0.1245
    129  CA        37.8260    1.6210   30.7550 C.3   262  ILE262      0.1561
    130  C         38.3510    2.8740   31.4450 C.2   262  ILE262      0.2260
    131  O         39.4400    3.3670   31.1260 O.2   262  ILE262     -0.2867
    132  CB        36.7460    1.9590   29.7100 C.3   262  ILE262      0.0252
    133  CG1       36.4650    0.7490   28.8170 C.3   262  ILE262      0.0019
    134  CG2       37.1640    3.1570   28.8710 C.3   262  ILE262      0.0019
    135  CD1       35.4040    1.0000   27.7660 C.3   262  ILE262      0.0001
    136  N         28.7690    5.9050   31.1560 N.3   285  SER285     -0.1217
    137  CA        28.7210    4.9490   30.0540 C.3   285  SER285      0.1889
    138  C         28.1300    5.5650   28.7930 C.2   285  SER285      0.2288
    139  O         28.4440    5.1210   27.6830 O.2   285  SER285     -0.2866
    140  CB        27.9160    3.7150   30.4620 C.3   285  SER285      0.2089
    141  OG        28.4740    3.0900   31.6040 O.3   285  SER285     -0.2183
    142  N         31.0820    7.5360   26.8440 N.3   288  ILE288     -0.1231
    143  CA        32.1150    6.6600   26.2960 C.3   288  ILE288      0.1692
    144  C         31.6450    6.0190   24.9980 C.2   288  ILE288      0.2591
    145  O         32.4440    5.7930   24.0800 O.2   288  ILE288     -0.2718
    146  CB        32.5230    5.6020   27.3400 C.3   288  ILE288      0.0266
    147  CG1       32.9920    6.2820   28.6280 C.3   288  ILE288      0.0019
    148  CG2       33.6220    4.7030   26.7940 C.3   288  ILE288      0.0020
    149  CD1       33.3950    5.3150   29.7180 C.3   288  ILE288      0.0001
    150  N         30.3470    5.7340   24.8870 N.am  289  ALA289     -0.1980
    151  CA        29.7940    5.2260   23.6400 C.3   289  ALA289      0.1597
    152  C         29.7040    6.2950   22.5580 C.2   289  ALA289      0.2287
    153  O         29.3590    5.9680   21.4180 O.2   289  ALA289     -0.2864
    154  CB        28.4110    4.6220   23.8870 C.3   289  ALA289      0.0319
@<TRIPOS>BOND
     1    37    39   ar
     2    37    36   ar
     3    31    32    1
     4    39    40   ar
     5    32    35    1
     6    32    33    1
     7    35    36    1
     8    36    38   ar
     9    34    33    2
    10    45    46    1
    11    40    38   ar
    12    40    42   ar
    13    51    52    1
    14    51    50    1
    15    38    41   ar
    16    52    53    2
    17    46    49    1
    18    46    47    1
    19    49    50    1
    20    53    54    1
    21    53    55    1
    22    42    44   ar
    23    22    23    1
    24    13    14    1
    25    14    17    1
    26    14    15    1
    27    16    15    2
    28    41    43   ar
    29    21    20    1
    30    47    48    2
    31    47    56   am
    32    23    24    1
    33    23    26    1
    34    17    18    1
    35    18    19    1
    36    64    65    1
    37    25    24    2
    38    44    43   ar
    39    56    57    1
    40    20    19    1
    41    27    26    1
    42    27    28    1
    43    58    57    1
    44    58    59    2
    45    30    29    1
    46    65    68    1
    47    65    66    1
    48    57    60    1
    49    74    72    1
    50    68    69    1
    51    29    28    1
    52    66    75   am
    53    66    67    2
    54    75    76    1
    55    77    78    2
    56    77    76    1
    57    71    72    2
    58    71    70    1
    59    60    61    1
    60    72    73    1
    61    69    70    1
    62    76    79    1
    63    61    63    1
    64    61    62    1
    65   153   152    2
    66    79    80    1
    67    93    91    1
    68    80    81   ar
    69    80    82   ar
    70   152   151    1
    71    98    99    1
    72    98    95    1
    73    81    83   ar
    74    99   100   ar
    75    99   101   ar
    76   100   102   ar
    77    82    84   ar
    78   102   103   ar
    79   101   103   ar
    80    91    90    1
    81    91    92    1
    82    97    96    2
    83    83    85   ar
    84    84    85   ar
    85    96    95    1
    86   151   154    1
    87   151   150    1
    88    90    87    1
    89    95    94    1
    90    89    88    2
    91   145   144    2
    92    88    87    1
    93     1     2    1
    94     5     2    1
    95     5     6    1
    96    87    86    1
    97   150   144   am
    98     8     6   ar
    99     8    10   ar
   100   144   143    1
   101     2     3    1
   102     6     7   ar
   103    10    11   ar
   104     7     9   ar
   105    11     9   ar
   106    11    12    1
   107   143   142    1
   108   143   146    1
   109     3     4    2
   110   148   146    1
   111   146   147    1
   112   122   120    1
   113   139   138    2
   114   135   133    1
   115   113   112    1
   116   147   149    1
   117   121   120    1
   118   138   137    1
   119   120   119    1
   120   133   132    1
   121   134   132    1
   122   110   109    1
   123   110   111    1
   124   112   111    2
   125   112   114    1
   126   109   108    1
   127   132   129    1
   128   137   140    1
   129   137   136    1
   130   119   116    1
   131   140   141    1
   132   108   105    1
   133   129   130    1
   134   129   128    1
   135   131   130    2
   136   105   104    1
   137   105   106    1
   138   118   117    2
   139   116   117    1
   140   116   115    1
   141   117   123   am
   142   123   124    1
   143   107   106    2
   144   124   127    1
   145   124   125    1
   146   126   125    2
