@<TRIPOS>MOLECULE
tmp/5x52A01.pdb
 136 126 0 0 0
SMALL
GASTEIGER

@<TRIPOS>ATOM
      1  N         28.7520    8.0220   -4.0560 N.3   385  LEU385     -0.1231
      2  CA        27.3580    8.1250   -3.6370 C.3   385  LEU385      0.1693
      3  C         27.1570    9.2810   -2.6670 C.2   385  LEU385      0.2591
      4  O         26.1830   10.0330   -2.7800 O.2   385  LEU385     -0.2718
      5  CB        26.8990    6.8130   -3.0020 C.3   385  LEU385      0.0284
      6  CG        25.4260    6.7580   -2.5880 C.3   385  LEU385      0.0019
      7  CD1       24.5380    6.4430   -3.7840 C.3   385  LEU385      0.0001
      8  CD2       25.2060    5.7580   -1.4650 C.3   385  LEU385      0.0001
      9  N         28.0700    9.4400   -1.7070 N.am  386  ILE386     -0.1980
     10  CA        27.9250   10.5030   -0.7180 C.3   386  ILE386      0.1595
     11  C         28.1590   11.8660   -1.3570 C.2   386  ILE386      0.2287
     12  O         27.4850   12.8470   -1.0210 O.2   386  ILE386     -0.2864
     13  CB        28.8750   10.2580    0.4680 C.3   386  ILE386      0.0276
     14  CG1       28.6130    8.8850    1.0860 C.3   386  ILE386      0.0022
     15  CG2       28.6890   11.3260    1.5220 C.3   386  ILE386      0.0022
     16  CD1       29.6320    8.4810    2.1270 C.3   386  ILE386      0.0001
     17  N         24.9550   12.5910   -3.5470 N.3   389  ASN389     -0.1225
     18  CA        23.7350   12.7840   -2.7700 C.3   389  ASN389      0.1785
     19  C         23.7990   14.0280   -1.8930 C.2   389  ASN389      0.2597
     20  O         22.7730   14.6880   -1.6910 O.2   389  ASN389     -0.2718
     21  CB        23.4550   11.5470   -1.9160 C.3   389  ASN389      0.1169
     22  CG        23.0130   10.3570   -2.7460 C.2   389  ASN389      0.2627
     23  OD1       21.8230   10.0510   -2.8300 O.2   389  ASN389     -0.2716
     24  ND2       23.9700    9.6860   -3.3740 N.am  389  ASN389     -0.0877
     25  N         24.9770   14.3640   -1.3590 N.am  390  CYS390     -0.1970
     26  CA        25.0950   15.6000   -0.5920 C.3   390  CYS390      0.1712
     27  C         24.9250   16.8240   -1.4820 C.2   390  CYS390      0.2296
     28  O         24.3690   17.8350   -1.0390 O.2   390  CYS390     -0.2864
     29  CB        26.4370   15.6520    0.1400 C.3   390  CYS390      0.0983
     30  SG        26.5210   14.6200    1.6240 S.3   390  CYS390     -0.0798
     31  N         14.7500   16.7240   -0.1410 N.3   401  PHE401     -0.1241
     32  CA        15.6690   15.5990   -0.2680 C.3   401  PHE401      0.1605
     33  C         15.0070   14.2910    0.1430 C.2   401  PHE401      0.2264
     34  O         15.3400   13.2310   -0.4000 O.2   401  PHE401     -0.2867
     35  CB        16.9240   15.8530    0.5680 C.3   401  PHE401      0.0534
     36  CG        17.9780   14.7940    0.4280 C.ar  401  PHE401     -0.0203
     37  CD1       18.5000   14.4780   -0.8140 C.ar  401  PHE401     -0.0042
     38  CD2       18.4630   14.1310    1.5430 C.ar  401  PHE401     -0.0042
     39  CE1       19.4750   13.5090   -0.9450 C.ar  401  PHE401     -0.0003
     40  CE2       19.4400   13.1620    1.4190 C.ar  401  PHE401     -0.0003
     41  CZ        19.9460   12.8500    0.1740 C.ar  401  PHE401     -0.0000
     42  N         14.4470   11.0840   -2.4120 N.3   405  LEU405     -0.1245
     43  CA        14.7930    9.7230   -2.0180 C.3   405  LEU405      0.1561
     44  C         13.5530    8.8520   -1.8710 C.2   405  LEU405      0.2260
     45  O         13.6280    7.6320   -2.0600 O.2   405  LEU405     -0.2867
     46  CB        15.5880    9.7400   -0.7130 C.3   405  LEU405      0.0270
     47  CG        17.1110    9.6330   -0.8160 C.3   405  LEU405      0.0019
     48  CD1       17.6620   10.5770   -1.8730 C.3   405  LEU405      0.0001
     49  CD2       17.7450    9.9170    0.5350 C.3   405  LEU405      0.0001
     50  N         12.7070    7.6520   -5.2600 N.3   408  ARG408     -0.1231
     51  CA        13.7760    6.7640   -5.7060 C.3   408  ARG408      0.1694
     52  C         13.5930    5.3570   -5.1500 C.2   408  ARG408      0.2592
     53  O         13.6070    4.3740   -5.8990 O.2   408  ARG408     -0.2718
     54  CB        15.1320    7.3340   -5.2930 C.3   408  ARG408      0.0321
     55  CG        16.3120    6.4950   -5.7400 C.3   408  ARG408      0.0489
     56  CD        17.6070    6.9890   -5.1210 C.3   408  ARG408      0.2205
     57  NE        17.8480    8.3990   -5.4100 N.pl3 408  ARG408     -0.0865
     58  CZ        18.9300    9.0660   -5.0230 C.cat 408  ARG408      0.5346
     59  NH1       19.8780    8.4500   -4.3300 N.pl3 408  ARG408      0.1354
     60  NH2       19.0650   10.3490   -5.3300 N.pl3 408  ARG408      0.1354
     61  N         13.4190    5.2410   -3.8320 N.am  409  TYR409     -0.1976
     62  CA        13.2780    3.9310   -3.2100 C.3   409  TYR409      0.1639
     63  C         11.8970    3.3230   -3.4150 C.2   409  TYR409      0.2290
     64  O         11.7580    2.0990   -3.3250 O.2   409  TYR409     -0.2864
     65  CB        13.5970    4.0210   -1.7160 C.3   409  TYR409      0.0560
     66  CG        15.0710    3.8760   -1.4160 C.ar  409  TYR409     -0.0198
     67  CD1       15.9440    4.9420   -1.5930 C.ar  409  TYR409     -0.0009
     68  CD2       15.5920    2.6700   -0.9670 C.ar  409  TYR409     -0.0009
     69  CE1       17.2950    4.8110   -1.3270 C.ar  409  TYR409      0.0417
     70  CE2       16.9400    2.5300   -0.6980 C.ar  409  TYR409      0.0417
     71  CZ        17.7860    3.6030   -0.8790 C.ar  409  TYR409      0.1957
     72  OH        19.1290    3.4680   -0.6120 O.3   409  TYR409     -0.2866
     73  N         12.4160    1.7400   -6.6580 N.3   412  LYS412     -0.1245
     74  CA        13.2630    0.5750   -6.4260 C.3   412  LYS412      0.1561
     75  C         12.4330   -0.6190   -5.9730 C.2   412  LYS412      0.2260
     76  O         12.4040   -1.6640   -6.6320 O.2   412  LYS412     -0.2867
     77  CB        14.3380    0.8990   -5.3870 C.3   412  LYS412      0.0271
     78  CG        15.5350    1.6730   -5.9120 C.3   412  LYS412      0.0035
     79  CD        16.6810    1.6070   -4.9120 C.3   412  LYS412      0.0206
     80  CE        17.9490    2.2390   -5.4590 C.3   412  LYS412      0.1093
     81  NZ        17.9290    3.7200   -5.3690 N.3   412  LYS412     -0.1314
     82  N         16.0740    8.4280    5.7070 N.3   428  LEU428     -0.1245
     83  CA        17.1300    8.4770    4.7020 C.3   428  LEU428      0.1561
     84  C         17.4630    9.9030    4.2880 C.2   428  LEU428      0.2260
     85  O         18.5340   10.1350    3.7190 O.2   428  LEU428     -0.2867
     86  CB        16.7350    7.6670    3.4660 C.3   428  LEU428      0.0270
     87  CG        16.8750    6.1460    3.5360 C.3   428  LEU428      0.0019
     88  CD1       16.5020    5.5180    2.2020 C.3   428  LEU428      0.0001
     89  CD2       18.2860    5.7540    3.9370 C.3   428  LEU428      0.0001
     90  N         20.0670   11.9150    7.0000 N.3   431  VAL431     -0.1231
     91  CA        21.5170   11.7560    6.9460 C.3   431  VAL431      0.1692
     92  C         22.1580   12.9520    6.2550 C.2   431  VAL431      0.2592
     93  O         23.3070   13.3070    6.5490 O.2   431  VAL431     -0.2718
     94  CB        21.8910   10.4280    6.2580 C.3   431  VAL431      0.0266
     95  CG1       21.4690   10.4330    4.7980 C.3   431  VAL431      0.0020
     96  CG2       23.3840   10.1550    6.3840 C.3   431  VAL431      0.0020
     97  N         21.4360   13.5980    5.3370 N.am  432  GLY432     -0.1957
     98  CA        21.9560   14.8080    4.7220 C.3   432  GLY432      0.1869
     99  C         22.0970   15.9420    5.7200 C.2   432  GLY432      0.2309
    100  O         23.1180   16.6330    5.7570 O.2   432  GLY432     -0.2863
    101  N         26.1020   15.7780    5.8300 N.3   436  CYS436     -0.1235
    102  CA        26.5740   16.4110    4.6040 C.3   436  CYS436      0.1677
    103  C         27.2750   17.7310    4.8870 C.2   436  CYS436      0.2270
    104  O         27.9690   18.2550    4.0080 O.2   436  CYS436     -0.2867
    105  CB        25.4210   16.6390    3.6250 C.3   436  CYS436      0.0956
    106  SG        24.8930   15.1710    2.7090 S.3   436  CYS436     -0.0801
    107  N         28.0870    9.1420    7.3600 N.3   447  ALA447     -0.1245
    108  CA        27.0100    8.9890    6.3860 C.3   447  ALA447      0.1562
    109  C         26.6810    7.5200    6.1510 C.2   447  ALA447      0.2260
    110  O         25.5080    7.1300    6.1410 O.2   447  ALA447     -0.2867
    111  CB        27.3870    9.6740    5.0730 C.3   447  ALA447      0.0290
    112  N         23.4840    5.1070    7.3100 N.3   451  LEU451     -0.1245
    113  CA        22.6590    4.4010    6.3350 C.3   451  LEU451      0.1561
    114  C         22.4590    2.9440    6.7310 C.2   451  LEU451      0.2260
    115  O         21.3780    2.3810    6.5210 O.2   451  LEU451     -0.2867
    116  CB        23.2890    4.4990    4.9450 C.3   451  LEU451      0.0270
    117  CG        23.2900    5.8800    4.2850 C.3   451  LEU451      0.0019
    118  CD1       24.1110    5.8640    3.0060 C.3   451  LEU451      0.0001
    119  CD2       21.8720    6.3470    4.0080 C.3   451  LEU451      0.0001
    120  N         24.1050   -1.6120    2.0420 N.3   483  ARG483     -0.1245
    121  CA        24.0190   -0.3350    1.3340 C.3   483  ARG483      0.1563
    122  C         24.3760   -0.4710   -0.1420 C.2   483  ARG483      0.2260
    123  O         23.6290    0.0570   -0.9840 O.2   483  ARG483     -0.2867
    124  CB        24.8840    0.7180    2.0330 C.3   483  ARG483      0.0307
    125  CG        24.7400    2.1070    1.4310 C.3   483  ARG483      0.0489
    126  CD        25.9850    2.9470    1.6490 C.3   483  ARG483      0.2205
    127  NE        27.1800    2.2930    1.1220 N.pl3 483  ARG483     -0.0865
    128  CZ        27.5270    2.2850   -0.1610 C.cat 483  ARG483      0.5346
    129  NH1       26.7680    2.8920   -1.0620 N.pl3 483  ARG483      0.1354
    130  NH2       28.6340    1.6650   -0.5450 N.pl3 483  ARG483      0.1354
    131  N         21.7330    0.3360   -2.9830 N.3   487  SER487     -0.1217
    132  CA        22.0810    1.4240   -3.8910 C.3   487  SER487      0.1889
    133  C         22.1950    0.9430   -5.3320 C.2   487  SER487      0.2288
    134  O         21.9120    1.7070   -6.2620 O.2   487  SER487     -0.2866
    135  CB        23.3860    2.0860   -3.4480 C.3   487  SER487      0.2089
    136  OG        23.2460    2.6830   -2.1700 O.3   487  SER487     -0.2183
@<TRIPOS>BOND
     1    73    74    1
     2    76    75    2
     3    74    75    1
     4    74    77    1
     5   134   133    2
     6    78    77    1
     7    78    79    1
     8    53    52    2
     9    55    54    1
    10    55    56    1
    11    51    54    1
    12    51    50    1
    13    51    52    1
    14    80    81    1
    15    80    79    1
    16    57    56    1
    17    57    58    2
    18   133   132    1
    19    60    58    1
    20    52    61   am
    21    58    59    1
    22     1     2    1
    23   132   135    1
    24   132   131    1
    25    61    62    1
    26     7     6    1
    27     2     5    1
    28     2     3    1
    29    17    18    1
    30   135   136    1
    31    63    64    2
    32    63    62    1
    33    24    22   am
    34    62    65    1
    35     5     6    1
    36    23    22    2
    37     4     3    2
    38    18    21    1
    39    18    19    1
    40    22    21    1
    41     3     9   am
    42     6     8    1
    43    42    43    1
    44    45    44    2
    45    43    44    1
    46    43    46    1
    47    19    20    2
    48    19    25   am
    49    48    47    1
    50    65    66    1
    51     9    10    1
    52    67    66   ar
    53    67    69   ar
    54    27    28    2
    55    27    26    1
    56    66    68   ar
    57    25    26    1
    58    11    12    2
    59    11    10    1
    60    69    71   ar
    61   129   128    1
    62   123   122    2
    63    68    70   ar
    64    39    37   ar
    65    39    41   ar
    66    71    70   ar
    67    71    72    1
    68    47    46    1
    69    47    49    1
    70    37    36   ar
    71    10    13    1
    72    26    29    1
    73   130   128    1
    74    34    33    2
    75    32    31    1
    76    32    33    1
    77    32    35    1
    78   128   127    2
    79   122   121    1
    80    29    30    1
    81    41    40   ar
    82    36    35    1
    83    36    38   ar
    84    13    14    1
    85    13    15    1
    86    14    16    1
    87   127   126    1
    88   121   124    1
    89   121   120    1
    90    40    38   ar
    91   125   126    1
    92   125   124    1
    93    30   106    1
    94    88    87    1
    95   106   105    1
    96   118   117    1
    97    86    87    1
    98    86    83    1
    99    87    89    1
   100   105   102    1
   101    85    84    2
   102   104   103    2
   103   119   117    1
   104   117   116    1
   105    84    83    1
   106   102   103    1
   107   102   101    1
   108    83    82    1
   109    98    97    1
   110    98    99    1
   111    95    94    1
   112   116   113    1
   113   111   108    1
   114    97    92   am
   115    99   100    2
   116   110   109    2
   117   109   108    1
   118    92    93    2
   119    92    91    1
   120    94    96    1
   121    94    91    1
   122   113   114    1
   123   113   112    1
   124   108   107    1
   125   115   114    2
   126    91    90    1
