@<TRIPOS>MOLECULE
tmp/5x54A00.pdb
 169 159 0 0 0
SMALL
GASTEIGER

@<TRIPOS>ATOM
      1  N         -9.9340   25.3890   -6.3890 N.3    10  TYR10      -0.1241
      2  CA       -10.9740   25.1450   -5.4060 C.3    10  TYR10       0.1605
      3  C        -10.8570   26.1280   -4.2730 C.2    10  TYR10       0.2264
      4  O         -9.7640   26.3410   -3.7450 O.2    10  TYR10      -0.2867
      5  CB       -10.8620   23.7470   -4.8130 C.3    10  TYR10       0.0534
      6  CG       -12.1550   23.2060   -4.2460 C.ar   10  TYR10      -0.0201
      7  CD1      -13.1040   22.6800   -5.0970 C.ar   10  TYR10      -0.0009
      8  CD2      -12.4180   23.1750   -2.8650 C.ar   10  TYR10      -0.0009
      9  CE1      -14.2910   22.1620   -4.6300 C.ar   10  TYR10       0.0417
     10  CE2      -13.6190   22.6460   -2.3780 C.ar   10  TYR10       0.0417
     11  CZ       -14.5620   22.1360   -3.2810 C.ar   10  TYR10       0.1957
     12  OH       -15.7960   21.5710   -2.9160 O.3    10  TYR10      -0.2866
     13  N        -11.6130   21.8650  -10.6130 N.3    39  SER39      -0.1202
     14  CA       -10.4690   21.6950   -9.7280 C.3    39  SER39       0.2020
     15  C         -9.9560   20.2810   -9.8860 C.2    39  SER39       0.2619
     16  O        -10.6840   19.3960  -10.3010 O.2    39  SER39      -0.2717
     17  CB       -10.8640   21.9090   -8.2570 C.3    39  SER39       0.2103
     18  OG       -11.9670   21.0900   -7.9220 O.3    39  SER39      -0.2182
     19  N         -8.7080   20.0520   -9.5140 N.am   40  GLY40      -0.1942
     20  CA        -8.1230   18.7210   -9.6820 C.3    40  GLY40       0.2014
     21  C         -7.7720   18.4160  -11.1250 C.2    40  GLY40       0.2638
     22  O         -7.6450   17.2680  -11.5060 O.2    40  GLY40      -0.2714
     23  N         -7.6050   19.4680  -11.9030 N.am   41  LEU41      -0.1977
     24  CA        -7.2190   19.3890  -13.2820 C.3    41  LEU41       0.1596
     25  C         -5.7150   19.6060  -13.3950 C.2    41  LEU41       0.2287
     26  O         -5.0370   19.9700  -12.4270 O.2    41  LEU41      -0.2864
     27  CB        -7.9370   20.4840  -14.0790 C.3    41  LEU41       0.0297
     28  CG        -7.4220   21.9470  -14.0280 C.3    41  LEU41       0.0022
     29  CD1       -8.0940   22.7170  -15.1430 C.3    41  LEU41       0.0001
     30  CD2       -7.6890   22.6500  -12.6950 C.3    41  LEU41       0.0001
     31  N        -12.6730   18.1210  -11.8190 N.3    56  ARG56      -0.1245
     32  CA       -14.0970   18.0170  -11.5200 C.3    56  ARG56       0.1563
     33  C        -14.7050   19.3580  -11.1620 C.2    56  ARG56       0.2260
     34  O        -13.9970   20.2850  -10.7730 O.2    56  ARG56      -0.2867
     35  CB       -14.3770   17.0230  -10.3910 C.3    56  ARG56       0.0307
     36  CG       -13.6500   17.2480   -9.0730 C.3    56  ARG56       0.0489
     37  CD       -14.2080   18.3320   -8.2090 C.3    56  ARG56       0.2205
     38  NE       -13.7780   18.1170   -6.8280 N.pl3  56  ARG56      -0.0865
     39  CZ       -14.4380   17.4100   -5.9180 C.cat  56  ARG56       0.5346
     40  NH1      -13.9570   17.3180   -4.7030 N.pl3  56  ARG56       0.1354
     41  NH2      -15.5900   16.8140   -6.1970 N.pl3  56  ARG56       0.1354
     42  N        -17.2480   20.5510   -8.4770 N.3    58  ASN58      -0.1240
     43  CA       -18.0830   20.3970   -7.2640 C.3    58  ASN58       0.1653
     44  C        -18.7350   21.7460   -7.0080 C.2    58  ASN58       0.2266
     45  O        -18.0390   22.7280   -6.7630 O.2    58  ASN58      -0.2867
     46  CB       -17.2630   19.9350   -6.0480 C.3    58  ASN58       0.1155
     47  CG       -18.0960   19.1920   -5.0150 C.2    58  ASN58       0.2627
     48  OD1      -19.1300   18.5810   -5.3340 O.2    58  ASN58      -0.2716
     49  ND2      -17.6300   19.2010   -3.7710 N.am   58  ASN58      -0.0877
     50  N        -10.6040   12.9220  -12.7200 N.3    90  ASN90      -0.1225
     51  CA       -10.3810   13.8850  -11.6540 C.3    90  ASN90       0.1785
     52  C         -9.0380   13.5850  -11.0150 C.2    90  ASN90       0.2597
     53  O         -8.7060   12.4330  -10.8020 O.2    90  ASN90      -0.2718
     54  CB       -11.4590   13.7560  -10.5930 C.3    90  ASN90       0.1169
     55  CG       -11.3400   14.8130   -9.5110 C.2    90  ASN90       0.2627
     56  OD1      -10.8640   15.9050   -9.7630 O.2    90  ASN90      -0.2716
     57  ND2      -11.7580   14.4840   -8.3070 N.am   90  ASN90      -0.0877
     58  N         -8.2960   14.6210  -10.6580 N.am   91  ARG91      -0.1979
     59  CA        -6.9970   14.4680   -9.9940 C.3    91  ARG91       0.1597
     60  C         -6.0180   13.6970  -10.8880 C.2    91  ARG91       0.2287
     61  O         -5.3150   12.7770  -10.4990 O.2    91  ARG91      -0.2864
     62  CB        -7.1650   13.8990   -8.5880 C.3    91  ARG91       0.0334
     63  CG        -7.9540   14.8450   -7.7030 C.3    91  ARG91       0.0492
     64  CD        -8.3010   14.2060   -6.3800 C.3    91  ARG91       0.2205
     65  NE        -9.2580   15.0270   -5.6510 N.pl3  91  ARG91      -0.0865
     66  CZ        -9.7140   14.7740   -4.4260 C.cat  91  ARG91       0.5346
     67  NH1      -10.6030   15.5920   -3.8760 N.pl3  91  ARG91       0.1354
     68  NH2       -9.2930   13.7170   -3.7480 N.pl3  91  ARG91       0.1354
     69  N         -4.4170   11.8110   -7.9260 N.3   138  GLY138     -0.1225
     70  CA        -3.6200   12.7950   -7.2190 C.3   138  GLY138      0.1811
     71  C         -2.1630   12.5010   -7.4960 C.2   138  GLY138      0.2280
     72  O         -1.3170   12.6710   -6.6270 O.2   138  GLY138     -0.2866
     73  N         -2.8100    8.0990   -4.9480 N.3   154  PHE154     -0.1241
     74  CA        -3.7430    7.3390   -4.0980 C.3   154  PHE154      0.1605
     75  C         -4.3680    6.2350   -4.9630 C.2   154  PHE154      0.2264
     76  O         -4.9080    6.5220   -6.0250 O.2   154  PHE154     -0.2867
     77  CB        -4.8150    8.3100   -3.5420 C.3   154  PHE154      0.0534
     78  CG        -5.8930    7.6430   -2.7440 C.ar  154  PHE154     -0.0203
     79  CD1       -5.5820    6.9360   -1.5960 C.ar  154  PHE154     -0.0042
     80  CD2       -7.2310    7.7210   -3.1420 C.ar  154  PHE154     -0.0042
     81  CE1       -6.5780    6.2990   -0.8490 C.ar  154  PHE154     -0.0003
     82  CE2       -8.2400    7.0910   -2.4050 C.ar  154  PHE154     -0.0003
     83  CZ        -7.9130    6.3700   -1.2560 C.ar  154  PHE154     -0.0000
     84  N         -2.4170    5.7370    0.0910 N.3   159  ARG159     -0.1245
     85  CA        -1.5890    6.7690   -0.5250 C.3   159  ARG159      0.1563
     86  C         -0.2300    6.1370   -0.8140 C.2   159  ARG159      0.2260
     87  O          0.1350    5.1520   -0.1940 O.2   159  ARG159     -0.2867
     88  CB        -1.5510    8.0270    0.3530 C.3   159  ARG159      0.0307
     89  CG        -2.9430    8.6320    0.4010 C.3   159  ARG159      0.0489
     90  CD        -3.1480    9.9210    1.1700 C.3   159  ARG159      0.2205
     91  NE        -4.5480   10.3360    0.9440 N.pl3 159  ARG159     -0.0865
     92  CZ        -5.6190    9.8200    1.5620 C.cat 159  ARG159      0.5346
     93  NH1       -5.4820    8.8820    2.5080 N.pl3 159  ARG159      0.1354
     94  NH2       -6.8530   10.2430    1.2450 N.pl3 159  ARG159      0.1354
     95  N          0.1890   12.1000   -1.7300 N.3   184  SER184     -0.1202
     96  CA        -0.9550   12.2950   -2.6010 C.3   184  SER184      0.2020
     97  C         -1.1710   13.8090   -2.8490 C.2   184  SER184      0.2619
     98  O         -1.1480   14.6260   -1.9080 O.2   184  SER184     -0.2717
     99  CB        -2.1970   11.6790   -1.9570 C.3   184  SER184      0.2103
    100  OG        -3.3480   12.0590   -2.6720 O.3   184  SER184     -0.2182
    101  N         -1.3950   14.1840   -4.1050 N.am  185  GLY185     -0.1956
    102  CA        -1.5900   15.5880   -4.4650 C.3   185  GLY185      0.1869
    103  C         -0.3600   16.4540   -4.2460 C.2   185  GLY185      0.2309
    104  O         -0.4510   17.6210   -3.8420 O.2   185  GLY185     -0.2863
    105  N          0.0570   15.1560    0.6200 N.3   201  TYR201     -0.1241
    106  CA        -0.6190   14.6750    1.8160 C.3   201  TYR201      0.1605
    107  C         -0.1670   13.2390    2.0100 C.2   201  TYR201      0.2264
    108  O         -0.1670   12.4710    1.0380 O.2   201  TYR201     -0.2867
    109  CB        -2.1300   14.7240    1.5840 C.3   201  TYR201      0.0534
    110  CG        -2.9840   14.3350    2.7640 C.ar  201  TYR201     -0.0201
    111  CD1       -2.8530   14.9860    3.9720 C.ar  201  TYR201     -0.0009
    112  CD2       -3.9700   13.3530    2.6510 C.ar  201  TYR201     -0.0009
    113  CE1       -3.6620   14.6690    5.0670 C.ar  201  TYR201      0.0417
    114  CE2       -4.7890   13.0240    3.7310 C.ar  201  TYR201      0.0417
    115  CZ        -4.6360   13.6910    4.9410 C.ar  201  TYR201      0.1957
    116  OH        -5.4350   13.3790    6.0290 O.3   201  TYR201     -0.2866
    117  N         -0.4800   17.5260    5.8380 N.3   206  GLN206     -0.1245
    118  CA         0.0210   18.1640    4.6410 C.3   206  GLN206      0.1566
    119  C          1.5510   18.3630    4.8340 C.2   206  GLN206      0.2260
    120  O          2.0220   18.5030    5.9580 O.2   206  GLN206     -0.2867
    121  CB        -0.7390   19.4660    4.3580 C.3   206  GLN206      0.0367
    122  CG        -2.1810   19.2580    3.8640 C.3   206  GLN206      0.0905
    123  CD        -3.1700   18.8940    4.9530 C.2   206  GLN206      0.2608
    124  OE1       -2.9000   19.0960    6.1440 O.2   206  GLN206     -0.2717
    125  NE2       -4.3320   18.3530    4.5600 N.am  206  GLN206     -0.0878
    126  N         -0.8540   20.6910    0.1260 N.3   231  SER231     -0.1202
    127  CA        -1.3040   19.6690   -0.8150 C.3   231  SER231      0.2020
    128  C         -2.2010   20.3190   -1.8270 C.2   231  SER231      0.2618
    129  O         -2.7090   21.4100   -1.5980 O.2   231  SER231     -0.2717
    130  CB        -1.9760   18.5070   -0.0900 C.3   231  SER231      0.2103
    131  OG        -3.3640   18.6610    0.0280 O.3   231  SER231     -0.2182
    132  N         -2.3410   19.6480   -2.9620 N.am  232  ALA232     -0.1979
    133  CA        -3.0970   20.1130   -4.1190 C.3   232  ALA232      0.1597
    134  C         -2.6210   21.4660   -4.6020 C.2   232  ALA232      0.2287
    135  O         -3.3930   22.3680   -4.8550 O.2   232  ALA232     -0.2864
    136  CB        -4.5940   20.1200   -3.8030 C.3   232  ALA232      0.0319
    137  N         -3.6580   23.6150   -0.0640 N.3   248  TYR248     -0.1241
    138  CA        -4.2670   23.6230    1.2540 C.3   248  TYR248      0.1605
    139  C         -3.2120   23.1890    2.2600 C.2   248  TYR248      0.2264
    140  O         -2.5670   22.1840    2.0420 O.2   248  TYR248     -0.2867
    141  CB        -5.4370   22.6580    1.2420 C.3   248  TYR248      0.0534
    142  CG        -6.1850   22.5590    2.5350 C.ar  248  TYR248     -0.0201
    143  CD1       -6.9510   23.6310    3.0040 C.ar  248  TYR248     -0.0009
    144  CD2       -6.1750   21.3840    3.2770 C.ar  248  TYR248     -0.0009
    145  CE1       -7.6740   23.5300    4.1850 C.ar  248  TYR248      0.0417
    146  CE2       -6.8930   21.2750    4.4750 C.ar  248  TYR248      0.0417
    147  CZ        -7.6380   22.3450    4.9280 C.ar  248  TYR248      0.1957
    148  OH        -8.3490   22.2450    6.1180 O.3   248  TYR248     -0.2866
    149  N         -6.6510   27.7710    2.6980 N.3   253  PHE253     -0.1241
    150  CA        -6.3410   27.7120    1.2840 C.3   253  PHE253      0.1605
    151  C         -5.3740   28.8520    0.9650 C.2   253  PHE253      0.2264
    152  O         -5.6910   30.0220    1.1300 O.2   253  PHE253     -0.2867
    153  CB        -7.6050   27.8380    0.4680 C.3   253  PHE253      0.0534
    154  CG        -8.4590   26.6290    0.5350 C.ar  253  PHE253     -0.0203
    155  CD1       -9.2650   26.3950    1.6600 C.ar  253  PHE253     -0.0042
    156  CD2       -8.4710   25.7190   -0.5130 C.ar  253  PHE253     -0.0042
    157  CE1      -10.0510   25.2690    1.7380 C.ar  253  PHE253     -0.0003
    158  CE2       -9.2610   24.5940   -0.4410 C.ar  253  PHE253     -0.0003
    159  CZ       -10.0510   24.3650    0.6850 C.ar  253  PHE253     -0.0000
    160  N         -6.7140   25.9350   -4.0180 N.3   278  SER278     -0.1202
    161  CA        -5.9890   24.6820   -4.2080 C.3   278  SER278      0.2020
    162  C         -6.3970   24.0870   -5.5460 C.2   278  SER278      0.2619
    163  O         -7.2760   24.6170   -6.2090 O.2   278  SER278     -0.2717
    164  CB        -6.4010   23.7160   -3.1120 C.3   278  SER278      0.2103
    165  OG        -7.7930   23.4640   -3.2330 O.3   278  SER278     -0.2182
    166  N         -5.7850   22.9690   -5.9260 N.am  279  GLY279     -0.1956
    167  CA        -6.2430   22.1670   -7.0820 C.3   279  GLY279      0.1869
    168  C         -6.2070   22.8390   -8.4430 C.2   279  GLY279      0.2309
    169  O         -7.0010   22.5150   -9.3160 O.2   279  GLY279     -0.2863
@<TRIPOS>BOND
     1    29    28    1
     2    27    28    1
     3    27    24    1
     4    28    30    1
     5    25    24    1
     6    25    26    2
     7    24    23    1
     8    50    51    1
     9    23    21   am
    10    31    32    1
    11    51    52    1
    12    51    54    1
    13    32    33    1
    14    32    35    1
    15    22    21    2
    16    33    34    2
    17    21    20    1
    18    52    53    2
    19    52    58   am
    20    60    61    2
    21    60    59    1
    22    58    59    1
    23    13    14    1
    24    54    55    1
    25    35    36    1
    26    16    15    2
    27    59    62    1
    28    15    14    1
    29    15    19   am
    30    56    55    2
    31    14    17    1
    32    20    19    1
    33    55    57   am
    34   169   168    2
    35    36    37    1
    36    62    63    1
    37    42    43    1
    38   168   167    1
    39    17    18    1
    40    37    38    1
    41    69    70    1
    42    63    64    1
    43    71    70    1
    44    71    72    2
    45    43    44    1
    46    43    46    1
    47   167   166    1
    48    44    45    2
    49    38    39    2
    50     1     2    1
    51    64    65    1
    52   163   162    2
    53    41    39    1
    54    46    47    1
    55    76    75    2
    56   166   162   am
    57    39    40    1
    58    65    66    2
    59   162   161    1
    60     2     5    1
    61     2     3    1
    62    48    47    2
    63     7     9   ar
    64     7     6   ar
    65    47    49   am
    66    75    74    1
    67    73    74    1
    68   135   134    2
    69     5     6    1
    70     9    11   ar
    71   134   133    1
    72   102   103    1
    73   102   101    1
    74    66    67    1
    75    66    68    1
    76     3     4    2
    77     6     8   ar
    78   103   104    2
    79   161   160    1
    80   161   164    1
    81   133   136    1
    82   133   132    1
    83   101    97   am
    84    74    77    1
    85    77    78    1
    86    11    12    1
    87    11    10   ar
    88   165   164    1
    89    80    78   ar
    90    80    82   ar
    91   132   128   am
    92     8    10   ar
    93    97    96    1
    94    97    98    2
    95    78    79   ar
    96   100    99    1
    97    96    99    1
    98    96    95    1
    99    82    83   ar
   100   128   129    2
   101   128   127    1
   102    79    81   ar
   103    83    81   ar
   104   127   130    1
   105   127   126    1
   106    86    85    1
   107    86    87    2
   108    85    84    1
   109    85    88    1
   110   156   158   ar
   111   156   154   ar
   112   158   159   ar
   113   130   131    1
   114   137   138    1
   115    88    89    1
   116    89    90    1
   117   153   154    1
   118   153   150    1
   119   154   155   ar
   120   105   106    1
   121   159   157   ar
   122    91    90    1
   123    91    92    2
   124   151   152    2
   125   151   150    1
   126   108   107    2
   127   141   138    1
   128   141   142    1
   129    94    92    1
   130   138   139    1
   131   150   149    1
   132    92    93    1
   133   109   106    1
   134   109   110    1
   135   155   157   ar
   136   106   107    1
   137   140   139    2
   138   142   143   ar
   139   142   144   ar
   140   112   110   ar
   141   112   114   ar
   142   110   111   ar
   143   143   145   ar
   144   144   146   ar
   145   114   115   ar
   146   122   121    1
   147   122   123    1
   148   111   113   ar
   149   145   147   ar
   150   121   118    1
   151   146   147   ar
   152   125   123   am
   153   118   119    1
   154   118   117    1
   155   119   120    2
   156   147   148    1
   157   115   113   ar
   158   115   116    1
   159   123   124    2
