@<TRIPOS>MOLECULE
tmp/5x5gA00.pdb
 132 125 0 0 0
SMALL
GASTEIGER

@<TRIPOS>ATOM
      1  N         11.3490   -6.6730   20.0970 N.3    44  GLN44      -0.1231
      2  CA        10.1040   -5.9070   20.0970 C.3    44  GLN44       0.1698
      3  C         10.2930   -4.5620   19.3980 C.2    44  GLN44       0.2592
      4  O         10.7900   -4.5430   18.2680 O.2    44  GLN44      -0.2718
      5  CB         9.5070   -5.8090   21.5120 C.3    44  GLN44       0.0381
      6  CG         8.7780   -7.0650   21.9440 C.3    44  GLN44       0.0905
      7  CD         7.4830   -7.3250   21.1800 C.2    44  GLN44       0.2608
      8  OE1        6.9450   -6.4220   20.5000 O.2    44  GLN44      -0.2717
      9  NE2        6.9010   -8.5040   21.4010 N.am   44  GLN44      -0.0878
     10  N          9.8990   -3.4620   20.0290 N.am   45  SER45      -0.1952
     11  CA         9.9110   -2.1830   19.3390 C.3    45  SER45       0.1924
     12  C         11.3070   -1.6550   19.0330 C.2    45  SER45       0.2314
     13  O         11.4270   -0.6920   18.2820 O.2    45  SER45      -0.2863
     14  CB         9.1650   -1.1030   20.1160 C.3    45  SER45       0.2116
     15  OG         7.7870   -1.3460   20.0910 O.3    45  SER45      -0.2180
     16  N         12.2890   -0.7840   15.4330 N.3    48  LYS48      -0.1245
     17  CA        11.8790    0.4470   14.7560 C.3    48  LYS48       0.1561
     18  C         13.0660    1.3630   14.4680 C.2    48  LYS48       0.2260
     19  O         13.0460    2.0960   13.5020 O.2    48  LYS48      -0.2867
     20  CB        10.7650    1.1680   15.5430 C.3    48  LYS48       0.0271
     21  CG         9.4570    0.3230   15.5980 C.3    48  LYS48       0.0035
     22  CD         8.5140    0.7280   16.7000 C.3    48  LYS48       0.0206
     23  CE         7.3110   -0.2090   16.7570 C.3    48  LYS48       0.1093
     24  NZ         6.3860    0.3080   17.7930 N.3    48  LYS48      -0.1314
     25  N         -0.8150   -0.2650   20.4700 N.3    82  TRP82      -0.1241
     26  CA        -0.2780    1.0100   20.9140 C.3    82  TRP82       0.1605
     27  C         -0.0600    1.9240   19.7180 C.2    82  TRP82       0.2264
     28  O          0.7540    1.6070   18.8510 O.2    82  TRP82      -0.2867
     29  CB         1.0370    0.8250   21.6710 C.3    82  TRP82       0.0550
     30  CG         1.8220    2.0580   21.9160 C.ar   82  TRP82       0.0003
     31  CD1        2.7560    2.6120   21.0760 C.ar   82  TRP82       0.0946
     32  CD2        1.7990    2.9010   23.0890 C.ar   82  TRP82       0.0152
     33  NE1        3.3270    3.7070   21.6670 N.ar   82  TRP82      -0.2442
     34  CE2        2.7110    3.9500   22.8640 C.ar   82  TRP82       0.0810
     35  CE3        1.0110    2.9320   24.2500 C.ar   82  TRP82       0.0012
     36  CZ2        2.9100    4.9810   23.7790 C.ar   82  TRP82       0.0191
     37  CZ3        1.1830    3.9610   25.1290 C.ar   82  TRP82       0.0001
     38  CH2        2.1460    4.9620   24.9070 C.ar   82  TRP82       0.0015
     39  N          7.0600    5.2090   19.7510 N.3   109  SER109     -0.1217
     40  CA         6.8920    3.7630   19.4890 C.3   109  SER109      0.1889
     41  C          5.5890    3.3750   18.8050 C.2   109  SER109      0.2288
     42  O          4.9800    2.3520   19.1530 O.2   109  SER109     -0.2866
     43  CB         7.0660    2.9650   20.7990 C.3   109  SER109      0.2089
     44  OG         7.7350    1.7530   20.5430 O.3   109  SER109     -0.2183
     45  N          2.9610    1.6600   16.7930 N.3   111  ASN111     -0.1240
     46  CA         2.8880    0.3510   16.0910 C.3   111  ASN111      0.1653
     47  C          2.3240    0.4370   14.6880 C.2   111  ASN111      0.2266
     48  O          2.8130   -0.2440   13.7490 O.2   111  ASN111     -0.2867
     49  CB         2.0840   -0.7000   16.8940 C.3   111  ASN111      0.1155
     50  CG         2.8840   -1.2980   18.0540 C.2   111  ASN111      0.2627
     51  OD1        4.1160   -1.1860   18.0840 O.2   111  ASN111     -0.2716
     52  ND2        2.1820   -1.9040   19.0460 N.am  111  ASN111     -0.0877
     53  N          4.5310   -5.4600   13.1340 N.3   145  GLU145     -0.1245
     54  CA         3.8180   -5.3730   14.3850 C.3   145  GLU145      0.1567
     55  C          2.4890   -6.1430   14.2940 C.2   145  GLU145      0.2260
     56  O          2.1400   -6.8450   15.2070 O.2   145  GLU145     -0.2867
     57  CB         3.5820   -3.9170   14.8310 C.3   145  GLU145      0.0388
     58  CG         4.8480   -3.2550   15.3730 C.3   145  GLU145      0.1160
     59  CD         5.2320   -3.7450   16.7570 C.2   145  GLU145      0.3649
     60  OE1        4.3910   -4.3890   17.4740 O.co2 145  GLU145     -0.2457
     61  OE2        6.4070   -3.5060   17.1120 O.co2 145  GLU145     -0.2457
     62  N          3.2060   -9.8380   14.7660 N.3   148  MET148     -0.1230
     63  CA         3.5490  -10.1590   16.1210 C.3   148  MET148      0.1702
     64  C          2.3280  -10.1850   17.0280 C.2   148  MET148      0.2592
     65  O          2.2900  -10.9490   18.0060 O.2   148  MET148     -0.2718
     66  CB         4.5770   -9.1540   16.6890 C.3   148  MET148      0.0401
     67  CG         6.0220   -9.3920   16.2440 C.3   148  MET148      0.0596
     68  SD         7.2740   -8.5070   17.2250 S.3   148  MET148     -0.1393
     69  CE         6.9280   -6.7890   16.8770 C.3   148  MET148      0.0692
     70  N          1.3470   -9.3130   16.7580 N.am  149  HIS149     -0.1976
     71  CA         0.1730   -9.2480   17.6140 C.3   149  HIS149      0.1656
     72  C         -0.7530  -10.4730   17.4470 C.2   149  HIS149      0.2291
     73  O         -1.6030  -10.7040   18.2800 O.2   149  HIS149     -0.2864
     74  CB        -0.6110   -7.9430   17.3900 C.3   149  HIS149      0.0771
     75  CG         0.0590   -6.7420   17.9640 C.ar  149  HIS149      0.0820
     76  ND1       -0.5370   -5.9490   18.9280 N.ar  149  HIS149     -0.2267
     77  CD2        1.2930   -6.2280   17.7590 C.ar  149  HIS149      0.1154
     78  CE1        0.2880   -4.9700   19.2510 C.ar  149  HIS149      0.1986
     79  NE2        1.4150   -5.1310   18.5760 N.ar  149  HIS149     -0.2212
     80  N          9.4220    7.4280   25.5630 N.3   195  THR195     -0.1203
     81  CA         9.1690    6.1430   26.2080 C.3   195  THR195      0.1994
     82  C         10.3380    5.7460   27.1010 C.2   195  THR195      0.2618
     83  O         11.4170    6.3350   27.0460 O.2   195  THR195     -0.2717
     84  CB         8.9220    5.0230   25.1840 C.3   195  THR195      0.1784
     85  OG1       10.0560    4.9230   24.3190 O.3   195  THR195     -0.2211
     86  CG2        7.6750    5.2880   24.3740 C.3   195  THR195      0.0376
     87  N         10.0450    4.8280   28.0190 N.am  196  GLY196     -0.1956
     88  CA        11.0000    4.2750   28.9490 C.3   196  GLY196      0.1869
     89  C         11.9430    5.1910   29.6580 C.2   196  GLY196      0.2309
     90  O         13.1450    4.9670   29.6550 O.2   196  GLY196     -0.2863
     91  N         14.3150    3.4760   32.0900 N.3   199  ARG199     -0.1245
     92  CA        15.1460    2.3910   31.6110 C.3   199  ARG199      0.1563
     93  C         16.5890    2.8480   31.5390 C.2   199  ARG199      0.2260
     94  O         17.1570    3.1820   32.5830 O.2   199  ARG199     -0.2867
     95  CB        14.5570    1.8070   30.3250 C.3   199  ARG199      0.0307
     96  CG        13.2120    1.1360   30.5630 C.3   199  ARG199      0.0489
     97  CD        12.6270    0.5700   29.2820 C.3   199  ARG199      0.2205
     98  NE        11.2490    0.1500   29.4680 N.pl3 199  ARG199     -0.0865
     99  CZ        10.5730   -0.6600   28.6460 C.cat 199  ARG199      0.5346
    100  NH1       11.1520   -1.1910   27.5890 N.pl3 199  ARG199      0.1354
    101  NH2        9.3270   -0.9670   28.9160 N.pl3 199  ARG199      0.1354
    102  N         13.1190    2.0650   22.9080 N.3   214  THR214     -0.1203
    103  CA        12.6440    1.0540   23.8060 C.3   214  THR214      0.1994
    104  C         12.0150   -0.1030   23.0520 C.2   214  THR214      0.2618
    105  O         11.6530    0.0060   21.8700 O.2   214  THR214     -0.2717
    106  CB        11.5950    1.6340   24.7700 C.3   214  THR214      0.1784
    107  OG1       10.6040    2.3360   24.0370 O.3   214  THR214     -0.2211
    108  CG2       12.2420    2.5860   25.7390 C.3   214  THR214      0.0376
    109  N         11.7330   -1.1630   23.7850 N.am  215  GLY215     -0.1942
    110  CA        10.7490   -2.1610   23.3280 C.3   215  GLY215      0.2014
    111  C         10.2380   -2.9350   24.5220 C.2   215  GLY215      0.2640
    112  O         11.0020   -3.1960   25.4700 O.2   215  GLY215     -0.2714
    113  N          9.0040   -3.4400   24.3890 N.am  216  SER216     -0.1935
    114  CA         8.3270   -4.1660   25.4610 C.3   216  SER216      0.2055
    115  C          7.3890   -5.1730   24.8150 C.2   216  SER216      0.2644
    116  O          6.7720   -4.8670   23.7860 O.2   216  SER216     -0.2714
    117  CB         7.4550   -3.2180   26.3220 C.3   216  SER216      0.2130
    118  OG         8.1640   -2.1190   26.8090 O.3   216  SER216     -0.2179
    119  N          7.2910   -6.3510   25.4330 N.am  217  SER217     -0.1935
    120  CA         6.3590   -7.3820   25.1000 C.3   217  SER217      0.2055
    121  C          5.2010   -7.4020   26.0960 C.2   217  SER217      0.2643
    122  O          5.2360   -6.7410   27.1210 O.2   217  SER217     -0.2714
    123  CB         7.0500   -8.7380   25.1270 C.3   217  SER217      0.2130
    124  OG         7.1920   -9.1840   26.4630 O.3   217  SER217     -0.2179
    125  N          4.1780   -8.1600   25.7650 N.am  218  ASP218     -0.1971
    126  CA         3.1970   -8.5740   26.7300 C.3   218  ASP218      0.1709
    127  C          3.7640   -9.6180   27.7000 C.2   218  ASP218      0.2293
    128  O          4.9130  -10.0220   27.5930 O.2   218  ASP218     -0.2864
    129  CB         2.0180   -9.2320   26.0090 C.3   218  ASP218      0.1436
    130  CG         1.1260   -8.2340   25.3270 C.2   218  ASP218      0.3671
    131  OD1        0.9020   -7.1350   25.9160 O.co2 218  ASP218     -0.2456
    132  OD2        0.5770   -8.6040   24.2500 O.co2 218  ASP218     -0.2456
@<TRIPOS>BOND
     1    53    54    1
     2    19    18    2
     3    48    47    2
     4    55    54    1
     5    55    56    2
     6    54    57    1
     7    18    17    1
     8    47    46    1
     9    17    16    1
    10    17    20    1
    11    62    63    1
    12    57    58    1
    13    58    59    1
    14    20    21    1
    15    21    22    1
    16    46    45    1
    17    46    49    1
    18    63    66    1
    19    63    64    1
    20    67    66    1
    21    67    68    1
    22    22    23    1
    23    59    61   ar
    24    59    60   ar
    25    23    24    1
    26    70    64   am
    27    70    71    1
    28    69    68    1
    29    49    50    1
    30    64    65    2
    31    74    71    1
    32    74    75    1
    33    72    71    1
    34    72    73    2
    35    77    75   ar
    36    77    79   ar
    37    75    76   ar
    38    50    51    2
    39    50    52   am
    40     4     3    2
    41    13    12    2
    42    79    78   ar
    43    41    42    2
    44    41    40    1
    45    28    27    2
    46    76    78   ar
    47    12    11    1
    48    11    10    1
    49    11    14    1
    50     3    10   am
    51     3     2    1
    52    40    39    1
    53    40    43    1
    54    27    26    1
    55    15    14    1
    56     1     2    1
    57     2     5    1
    58    25    26    1
    59     8     7    2
    60    44    43    1
    61    26    29    1
    62    31    33   ar
    63    31    30   ar
    64     7     9   am
    65     7     6    1
    66     5     6    1
    67    33    34   ar
    68    29    30    1
    69   105   104    2
    70    30    32   ar
    71    34    32   ar
    72    34    36   ar
    73   102   103    1
    74   104   109   am
    75   104   103    1
    76    32    35   ar
    77   110   109    1
    78   110   111    1
    79    36    38   ar
    80   116   115    2
    81   103   106    1
    82   107   106    1
    83   132   130   ar
    84    35    37   ar
    85    85    84    1
    86    86    84    1
    87   113   111   am
    88   113   114    1
    89   111   112    2
    90   106   108    1
    91   115   119   am
    92   115   114    1
    93    38    37   ar
    94   120   123    1
    95   120   119    1
    96   120   121    1
    97   123   124    1
    98    84    81    1
    99   130   131   ar
   100   130   129    1
   101   114   117    1
   102    80    81    1
   103   125   121   am
   104   125   126    1
   105   129   126    1
   106   121   122    2
   107    81    82    1
   108   117   118    1
   109   126   127    1
   110    83    82    2
   111    82    87   am
   112   100    99    1
   113   128   127    2
   114    87    88    1
   115    99   101    1
   116    99    98    2
   117    88    89    1
   118    97    98    1
   119    97    96    1
   120    90    89    2
   121    95    96    1
   122    95    92    1
   123    93    92    1
   124    93    94    2
   125    92    91    1
