@<TRIPOS>MOLECULE
tmp/5x5hA00.pdb
 139 128 0 0 0
SMALL
GASTEIGER

@<TRIPOS>ATOM
      1  N         15.5040   20.1260   35.1370 N.3    79  SER79      -0.1202
      2  CA        16.5720   20.0210   34.1270 C.3    79  SER79       0.2020
      3  C         16.0570   19.0510   33.1020 C.2    79  SER79       0.2619
      4  O         15.1340   18.2700   33.2980 O.2    79  SER79      -0.2717
      5  CB        17.9220   19.6150   34.7420 C.3    79  SER79       0.2103
      6  OG        17.7760   18.2370   35.2230 O.3    79  SER79      -0.2182
      7  N         16.7200   19.0650   31.9510 N.am   80  GLY80      -0.1942
      8  CA        16.5270   18.0320   30.9090 C.3    80  GLY80       0.2014
      9  C         16.8010   16.6350   31.4520 C.2    80  GLY80       0.2638
     10  O         16.0020   15.6800   31.2070 O.2    80  GLY80      -0.2714
     11  N         17.8790   16.4790   32.2020 N.am   81  MET81      -0.1976
     12  CA        18.1450   15.2190   32.8290 C.3    81  MET81       0.1605
     13  C         17.1140   14.7560   33.7610 C.2    81  MET81       0.2287
     14  O         16.7420   13.5770   33.8180 O.2    81  MET81      -0.2864
     15  CB        19.4770   15.2390   33.5460 C.3    81  MET81       0.0413
     16  CG        20.6990   15.2290   32.6310 C.3    81  MET81       0.0598
     17  SD        20.7460   13.9340   31.3560 S.3    81  MET81      -0.1393
     18  CE        20.1890   12.5280   32.2910 C.3    81  MET81       0.0692
     19  N         14.1990   13.4920   31.8450 N.3    84  THR84      -0.1218
     20  CA        14.5400   12.1650   31.2440 C.3    84  THR84       0.1862
     21  C         14.3650   11.1130   32.3370 C.2    84  THR84       0.2287
     22  O         13.7510   10.0550   32.0880 O.2    84  THR84      -0.2866
     23  CB        15.9760   12.1860   30.7200 C.3    84  THR84       0.1770
     24  OG1       16.0920   13.1720   29.6490 O.3    84  THR84      -0.2211
     25  CG2       16.4210   10.8450   30.1520 C.3    84  THR84       0.0375
     26  N         23.4600   12.2980   23.8670 N.3   105  TYR105     -0.1241
     27  CA        23.9610   13.0590   24.8860 C.3   105  TYR105      0.1605
     28  C         24.5170   12.0410   25.9470 C.2   105  TYR105      0.2264
     29  O         23.8680   11.0490   26.3890 O.2   105  TYR105     -0.2867
     30  CB        22.8540   14.0350   25.4830 C.3   105  TYR105      0.0534
     31  CG        23.3490   14.7690   26.5870 C.ar  105  TYR105     -0.0201
     32  CD1       24.5290   15.5790   26.5200 C.ar  105  TYR105     -0.0009
     33  CD2       22.7490   14.7530   27.8480 C.ar  105  TYR105     -0.0009
     34  CE1       25.1050   16.2590   27.6000 C.ar  105  TYR105      0.0417
     35  CE2       23.2730   15.4230   28.8730 C.ar  105  TYR105      0.0417
     36  CZ        24.4270   16.2320   28.8410 C.ar  105  TYR105      0.1957
     37  OH        25.0070   16.8420   29.9480 O.3   105  TYR105     -0.2866
     38  N         22.3750   11.1860   29.0190 N.3   108  THR108     -0.1218
     39  CA        21.3610   10.2170   28.7870 C.3   108  THR108      0.1862
     40  C         21.9190    8.7550   28.9290 C.2   108  THR108      0.2287
     41  O         21.3700    7.8800   29.5990 O.2   108  THR108     -0.2866
     42  CB        20.6260   10.3800   27.4620 C.3   108  THR108      0.1770
     43  OG1       20.1910   11.7510   27.3630 O.3   108  THR108     -0.2211
     44  CG2       19.5220    9.4350   27.3470 C.3   108  THR108      0.0375
     45  N         17.2680   10.6780   19.6020 N.3   148  GLU148     -0.1245
     46  CA        17.6300   12.0750   19.5030 C.3   148  GLU148      0.1567
     47  C         17.8140   12.3600   18.0620 C.2   148  GLU148      0.2260
     48  O         18.5560   11.6260   17.3870 O.2   148  GLU148     -0.2867
     49  CB        18.9610   12.4120   20.0840 C.3   148  GLU148      0.0388
     50  CG        19.0550   12.5340   21.4570 C.3   148  GLU148      0.1160
     51  CD        20.4650   12.8590   21.9180 C.2   148  GLU148      0.3649
     52  OE1       21.3200   13.4840   21.2470 O.co2 148  GLU148     -0.2457
     53  OE2       20.6970   12.5480   23.0690 O.co2 148  GLU148     -0.2457
     54  N         18.4370   15.9650   15.4220 N.3   150  PRO150     -0.2116
     55  CA        19.7900   15.4970   15.2090 C.3   150  PRO150      0.1372
     56  C         20.4410   15.0990   16.4890 C.2   150  PRO150      0.2244
     57  O         20.1530   15.6940   17.5660 O.2   150  PRO150     -0.2868
     58  CB        20.5050   16.7190   14.6040 C.3   150  PRO150      0.0268
     59  CG        19.3880   17.6240   14.0590 C.3   150  PRO150      0.0207
     60  CD        18.2500   17.3970   15.0740 C.3   150  PRO150      0.0892
     61  N         23.4510   14.5800   19.4590 N.3   152  ASN152     -0.1240
     62  CA        24.4590   15.4300   20.0480 C.3   152  ASN152      0.1653
     63  C         25.6370   14.5330   20.2780 C.2   152  ASN152      0.2266
     64  O         25.4800   13.5800   21.1060 O.2   152  ASN152     -0.2867
     65  CB        23.8990   15.8440   21.4550 C.3   152  ASN152      0.1155
     66  CG        24.8200   16.6980   22.2390 C.2   152  ASN152      0.2627
     67  OD1       25.9720   16.9680   21.8510 O.2   152  ASN152     -0.2716
     68  ND2       24.2830   17.2760   23.3730 N.am  152  ASN152     -0.0877
     69  N         13.9270   13.0430   21.9040 N.3   177  ASP177     -0.1239
     70  CA        14.5950   14.1990   22.5350 C.3   177  ASP177      0.1674
     71  C         14.7810   15.2210   21.4200 C.2   177  ASP177      0.2266
     72  O         15.5990   15.0250   20.5130 O.2   177  ASP177     -0.2867
     73  CB        15.8520   13.7560   23.2010 C.3   177  ASP177      0.1410
     74  CG        16.6740   14.9010   23.8040 C.2   177  ASP177      0.3668
     75  OD1       16.4310   16.0930   23.4580 O.co2 177  ASP177     -0.2456
     76  OD2       17.6490   14.5650   24.5760 O.co2 177  ASP177     -0.2456
     77  N         15.5560   18.4740   21.6840 N.3   179  THR179     -0.1203
     78  CA        16.2980   19.6190   22.1800 C.3   179  THR179      0.1994
     79  C         16.9290   20.3980   21.0450 C.2   179  THR179      0.2617
     80  O         16.8140   21.6320   20.9980 O.2   179  THR179     -0.2717
     81  CB        17.3290   19.2010   23.2130 C.3   179  THR179      0.1784
     82  OG1       16.6900   18.5900   24.3660 O.3   179  THR179     -0.2211
     83  CG2       18.1970   20.2940   23.6670 C.3   179  THR179      0.0376
     84  N         17.7490   19.7420   20.2070 N.am  180  PHE180     -0.1975
     85  CA        18.5260   20.4510   19.1550 C.3   180  PHE180      0.1639
     86  C         17.6660   21.0660   18.1020 C.2   180  PHE180      0.2290
     87  O         17.9220   22.2550   17.7370 O.2   180  PHE180     -0.2864
     88  CB        19.4900   19.4600   18.5110 C.3   180  PHE180      0.0560
     89  CG        20.7600   19.3260   19.1780 C.ar  180  PHE180     -0.0200
     90  CD1       20.9450   19.3530   20.5850 C.ar  180  PHE180     -0.0042
     91  CD2       21.9070   19.0060   18.4140 C.ar  180  PHE180     -0.0042
     92  CE1       22.2100   19.2490   21.1540 C.ar  180  PHE180     -0.0003
     93  CE2       23.1380   18.8760   18.9830 C.ar  180  PHE180     -0.0003
     94  CZ        23.3340   19.0040   20.3270 C.ar  180  PHE180     -0.0000
     95  N         10.7560   15.0880   24.6270 N.3   197  LEU197     -0.1245
     96  CA        11.5550   15.6590   25.6970 C.3   197  LEU197      0.1561
     97  C         12.3270   16.8480   25.1860 C.2   197  LEU197      0.2260
     98  O         12.9620   16.7690   24.1290 O.2   197  LEU197     -0.2867
     99  CB        12.4760   14.5910   26.2210 C.3   197  LEU197      0.0270
    100  CG        13.5290   14.7320   27.3530 C.3   197  LEU197      0.0019
    101  CD1       14.6730   15.6230   27.0010 C.3   197  LEU197      0.0001
    102  CD2       13.0290   15.1180   28.6440 C.3   197  LEU197      0.0001
    103  N         15.4730   19.5910   26.8240 N.3   199  SER199     -0.1217
    104  CA        16.2780   20.4130   27.7540 C.3   199  SER199      0.1889
    105  C         15.9580   21.8880   27.4010 C.2   199  SER199      0.2288
    106  O         16.4280   22.3360   26.3780 O.2   199  SER199     -0.2866
    107  CB        17.7080   20.1500   27.5870 C.3   199  SER199      0.2089
    108  OG        18.4290   21.1670   28.3370 O.3   199  SER199     -0.2183
    109  N         17.0590   24.3020   28.9410 N.3   201  THR201     -0.1203
    110  CA        18.3500   24.9540   29.1380 C.3   201  THR201      0.1994
    111  C         18.9340   25.5410   27.8870 C.2   201  THR201      0.2617
    112  O         19.7320   26.4830   27.9560 O.2   201  THR201     -0.2717
    113  CB        19.2940   23.8740   29.7120 C.3   201  THR201      0.1784
    114  OG1       18.6520   23.2380   30.8250 O.3   201  THR201     -0.2211
    115  CG2       20.5830   24.5120   30.2040 C.3   201  THR201      0.0376
    116  N         18.6430   24.8900   26.7790 N.am  202  LYS202     -0.1979
    117  CA        19.2480   25.1910   25.4890 C.3   202  LYS202      0.1596
    118  C         18.4140   26.2110   24.6950 C.2   202  LYS202      0.2287
    119  O         18.3080   27.3180   25.1720 O.2   202  LYS202     -0.2864
    120  CB        19.5320   23.8740   24.7630 C.3   202  LYS202      0.0298
    121  CG        20.1720   22.7410   25.4840 C.3   202  LYS202      0.0038
    122  CD        21.3110   23.1190   26.2520 C.3   202  LYS202      0.0206
    123  CE        22.0280   21.8810   27.0160 C.3   202  LYS202      0.1093
    124  NZ        22.0740   20.4300   26.5650 N.3   202  LYS202     -0.1314
    125  N         18.4700   26.4650   33.8090 N.3   211  VAL211     -0.1245
    126  CA        18.4800   25.0130   33.5930 C.3   211  VAL211      0.1561
    127  C         17.0240   24.5690   33.7090 C.2   211  VAL211      0.2260
    128  O         16.3390   24.9490   34.6590 O.2   211  VAL211     -0.2867
    129  CB        19.3800   24.3170   34.5690 C.3   211  VAL211      0.0252
    130  CG1       19.3100   22.8300   34.3920 C.3   211  VAL211      0.0019
    131  CG2       20.8160   24.7980   34.4210 C.3   211  VAL211      0.0019
    132  N         24.8260   24.8850   24.8370 N.3   331  LEU331     -0.1245
    133  CA        24.4220   25.2260   23.4900 C.3   331  LEU331      0.1561
    134  C         23.0920   25.8980   23.4840 C.2   331  LEU331      0.2260
    135  O         22.3630   25.8810   24.5190 O.2   331  LEU331     -0.2867
    136  CB        24.4270   23.9440   22.5840 C.3   331  LEU331      0.0270
    137  CG        23.4090   22.9080   22.9850 C.3   331  LEU331      0.0019
    138  CD1       22.1990   22.8820   22.1010 C.3   331  LEU331      0.0001
    139  CD2       24.0070   21.5310   23.1470 C.3   331  LEU331      0.0001
@<TRIPOS>BOND
     1    59    58    1
     2    59    60    1
     3    58    55    1
     4    60    54    1
     5    55    54    1
     6    55    56    1
     7    56    57    2
     8    48    47    2
     9    87    86    2
    10    47    46    1
    11    86    85    1
    12    91    93   ar
    13    91    89   ar
    14    88    85    1
    15    88    89    1
    16    93    94   ar
    17    85    84    1
    18    89    90   ar
    19    61    62    1
    20    46    45    1
    21    46    49    1
    22    62    63    1
    23    62    65    1
    24    49    50    1
    25    84    79   am
    26    63    64    2
    27    94    92   ar
    28    72    71    2
    29    90    92   ar
    30    80    79    2
    31    79    78    1
    32    52    51   ar
    33    71    70    1
    34    65    66    1
    35    50    51    1
    36    77    78    1
    37    67    66    2
    38    69    70    1
    39    51    53   ar
    40   138   137    1
    41    78    81    1
    42    66    68   am
    43    70    73    1
    44   136   137    1
    45   136   133    1
    46   137   139    1
    47    73    74    1
    48    81    83    1
    49    81    82    1
    50    75    74   ar
    51   134   133    1
    52   134   135    2
    53   133   132    1
    54    74    76   ar
    55    26    27    1
    56    98    97    2
    57    95    96    1
    58   118   119    2
    59   118   117    1
    60   120   121    1
    61   120   117    1
    62    27    30    1
    63    27    28    1
    64    97    96    1
    65    30    31    1
    66   121   122    1
    67   117   116    1
    68    96    99    1
    69    28    29    2
    70    99   100    1
    71   122   123    1
    72   106   105    2
    73    32    31   ar
    74    32    34   ar
    75   124   123    1
    76    31    33   ar
    77   116   111   am
    78   103   104    1
    79   101   100    1
    80    44    42    1
    81   100   102    1
    82    43    42    1
    83   105   104    1
    84    42    39    1
    85   107   104    1
    86   107   108    1
    87    34    36   ar
    88    33    35   ar
    89   111   112    2
    90   111   110    1
    91    39    40    1
    92    39    38    1
    93    36    35   ar
    94    36    37    1
    95    40    41    2
    96   109   110    1
    97   110   113    1
    98    24    23    1
    99   113   115    1
   100   113   114    1
   101    25    23    1
   102    23    20    1
   103     8     9    1
   104     8     7    1
   105    10     9    2
   106    20    19    1
   107    20    21    1
   108    17    18    1
   109    17    16    1
   110     9    11   am
   111     7     3   am
   112    22    21    2
   113    11    12    1
   114    16    15    1
   115    12    15    1
   116    12    13    1
   117     3     4    2
   118     3     2    1
   119   126   127    1
   120   126   125    1
   121   126   129    1
   122   127   128    2
   123    13    14    2
   124     2     5    1
   125     2     1    1
   126   130   129    1
   127   131   129    1
   128     5     6    1
