@<TRIPOS>MOLECULE
tmp/5x5mB00.pdb
 219 214 0 0 0
SMALL
GASTEIGER

@<TRIPOS>ATOM
      1  N         91.8500    1.9630  247.1910 N.3    38  PRO38      -0.2102
      2  CA        93.1800    2.5000  246.8550 C.3    38  PRO38       0.1504
      3  C         93.7040    3.5210  247.8540 C.2    38  PRO38       0.2575
      4  O         94.9280    3.6810  247.9770 O.2    38  PRO38      -0.2718
      5  CB        92.9770    3.1180  245.4630 C.3    38  PRO38       0.0282
      6  CG        91.8010    2.4120  244.9000 C.3    38  PRO38       0.0208
      7  CD        90.9020    2.0870  246.0710 C.3    38  PRO38       0.0893
      8  N         92.8250    4.2350  248.5610 N.am   39  ASP39      -0.1974
      9  CA        93.2620    5.1280  249.6290 C.3    39  ASP39       0.1708
     10  C         93.5770    4.4130  250.9340 C.2    39  ASP39       0.2293
     11  O         94.0440    5.0580  251.8820 O.2    39  ASP39      -0.2864
     12  CB        92.3120    6.3100  249.8160 C.3    39  ASP39       0.1436
     13  CG        92.5130    7.3610  248.7530 C.2    39  ASP39       0.3671
     14  OD1       93.5580    8.0420  248.8020 O.co2  39  ASP39      -0.2456
     15  OD2       91.6480    7.5000  247.8710 O.co2  39  ASP39      -0.2456
     16  N         96.5610   -0.9790  250.0490 N.3    43  TYR43      -0.1227
     17  CA        96.9430   -0.6680  248.6780 C.3    43  TYR43       0.1736
     18  C         98.1360    0.2790  248.6410 C.2    43  TYR43       0.2595
     19  O         99.0560    0.1060  247.8250 O.2    43  TYR43      -0.2718
     20  CB        95.7580   -0.0910  247.9040 C.3    43  TYR43       0.0548
     21  CG        96.0860    0.1110  246.4420 C.ar   43  TYR43      -0.0200
     22  CD1       96.1350   -0.9720  245.5770 C.ar   43  TYR43      -0.0009
     23  CD2       96.3740    1.3700  245.9320 C.ar   43  TYR43      -0.0009
     24  CE1       96.4610   -0.8070  244.2250 C.ar   43  TYR43       0.0417
     25  CE2       96.6880    1.5510  244.5860 C.ar   43  TYR43       0.0417
     26  CZ        96.7340    0.4550  243.7440 C.ar   43  TYR43       0.1957
     27  OH        97.0520    0.6470  242.4140 O.3    43  TYR43      -0.2866
     28  N         98.1530    1.2790  249.5250 N.am   44  GLN44      -0.1979
     29  CA        99.2750    2.2100  249.5490 C.3    44  GLN44       0.1601
     30  C        100.5810    1.5010  249.8790 C.2    44  GLN44       0.2287
     31  O        101.6070    1.7530  249.2360 O.2    44  GLN44      -0.2864
     32  CB        98.9890    3.3370  250.5350 C.3    44  GLN44       0.0394
     33  CG        97.8740    4.2450  250.0680 C.3    44  GLN44       0.0908
     34  CD        97.5530    5.3270  251.0740 C.2    44  GLN44       0.2608
     35  OE1       97.9150    5.2340  252.2460 O.2    44  GLN44      -0.2717
     36  NE2       96.8500    6.3530  250.6250 N.am   44  GLN44      -0.0878
     37  N        101.6720   -0.6450  246.6490 N.3    47  VAL47      -0.1231
     38  CA       102.2890    0.1080  245.5630 C.3    47  VAL47       0.1692
     39  C        103.6200    0.6950  246.0000 C.2    47  VAL47       0.2591
     40  O        104.5890    0.7140  245.2310 O.2    47  VAL47      -0.2718
     41  CB       101.3180    1.1680  245.0170 C.3    47  VAL47       0.0266
     42  CG1      101.9940    2.0330  243.9780 C.3    47  VAL47       0.0020
     43  CG2      100.0700    0.4980  244.4560 C.3    47  VAL47       0.0020
     44  N        103.6910    1.2120  247.2220 N.am   48  GLN48      -0.1979
     45  CA       104.9630    1.7420  247.6940 C.3    48  GLN48       0.1601
     46  C        106.0400    0.6650  247.6880 C.2    48  GLN48       0.2287
     47  O        107.1950    0.9310  247.3410 O.2    48  GLN48      -0.2864
     48  CB       104.7740    2.4010  249.0560 C.3    48  GLN48       0.0394
     49  CG       103.9780    3.6950  248.8810 C.3    48  GLN48       0.0908
     50  CD       103.6480    4.3890  250.1780 C.2    48  GLN48       0.2608
     51  OE1      104.3740    4.2560  251.1660 O.2    48  GLN48      -0.2717
     52  NE2      102.5510    5.1410  250.1860 N.am   48  GLN48      -0.0878
     53  N        107.3240   -0.0000  244.0070 N.3    51  TYR51      -0.1227
     54  CA       108.2330    1.0300  243.5150 C.3    51  TYR51       0.1736
     55  C        109.5490    1.0220  244.2820 C.2    51  TYR51       0.2595
     56  O        110.6110    1.2840  243.7060 O.2    51  TYR51      -0.2718
     57  CB       107.5650    2.4100  243.5700 C.3    51  TYR51       0.0548
     58  CG       106.6460    2.6510  242.3870 C.ar   51  TYR51      -0.0200
     59  CD1      105.3430    2.2010  242.3950 C.ar   51  TYR51      -0.0009
     60  CD2      107.1080    3.2930  241.2500 C.ar   51  TYR51      -0.0009
     61  CE1      104.5100    2.4060  241.3030 C.ar   51  TYR51       0.0417
     62  CE2      106.2810    3.4980  240.1450 C.ar   51  TYR51       0.0417
     63  CZ       104.9870    3.0530  240.1810 C.ar   51  TYR51       0.1957
     64  OH       104.1530    3.2620  239.1030 O.3    51  TYR51      -0.2866
     65  N        109.5010    0.7380  245.5840 N.am   52  ALA52      -0.1980
     66  CA       110.7380    0.6680  246.3520 C.3    52  ALA52       0.1597
     67  C        111.6600   -0.4040  245.7960 C.2    52  ALA52       0.2287
     68  O        112.8580   -0.1800  245.6230 O.2    52  ALA52      -0.2864
     69  CB       110.4300    0.3840  247.8210 C.3    52  ALA52       0.0319
     70  N        112.8850    0.4960  242.0480 N.3    55  TYR55      -0.1241
     71  CA       113.9450    1.5050  242.0420 C.3    55  TYR55       0.1605
     72  C        115.2300    1.0030  242.6880 C.2    55  TYR55       0.2264
     73  O        116.3200    1.3910  242.2550 O.2    55  TYR55      -0.2867
     74  CB       113.4770    2.8340  242.6570 C.3    55  TYR55       0.0534
     75  CG       112.8030    3.6930  241.6070 C.ar   55  TYR55      -0.0201
     76  CD1      113.5700    4.3910  240.6790 C.ar   55  TYR55      -0.0009
     77  CD2      111.4270    3.7550  241.4900 C.ar   55  TYR55      -0.0009
     78  CE1      112.9870    5.1410  239.6710 C.ar   55  TYR55       0.0417
     79  CE2      110.8310    4.5050  240.4840 C.ar   55  TYR55       0.0417
     80  CZ       111.6210    5.1940  239.5830 C.ar   55  TYR55       0.1957
     81  OH       111.0410    5.9320  238.5710 O.3    55  TYR55      -0.2866
     82  N        102.2570    1.4230  236.3700 N.3    78  LEU78      -0.1245
     83  CA       101.5860    0.5540  237.3220 C.3    78  LEU78       0.1561
     84  C        100.4200   -0.1580  236.6510 C.2    78  LEU78       0.2260
     85  O         99.7110    0.4240  235.8290 O.2    78  LEU78      -0.2867
     86  CB       101.0510    1.4190  238.4580 C.3    78  LEU78       0.0270
     87  CG       100.3080    0.7190  239.5950 C.3    78  LEU78       0.0019
     88  CD1      101.2380   -0.2140  240.3520 C.3    78  LEU78       0.0001
     89  CD2       99.7340    1.7680  240.5340 C.3    78  LEU78       0.0001
     90  N         91.9870   -6.8860  238.9840 N.3    82  TRP82      -0.1241
     91  CA        90.8570   -6.5230  239.8320 C.3    82  TRP82       0.1605
     92  C         89.9610   -7.7480  239.7600 C.2    82  TRP82       0.2264
     93  O         89.4040   -8.0560  238.6990 O.2    82  TRP82      -0.2867
     94  CB        90.1880   -5.2890  239.2340 C.3    82  TRP82       0.0550
     95  CG        89.1130   -4.6470  240.0300 C.ar   82  TRP82       0.0003
     96  CD1       88.9020   -4.7430  241.3720 C.ar   82  TRP82       0.0946
     97  CD2       88.0930   -3.7850  239.5210 C.ar   82  TRP82       0.0152
     98  NE1       87.7990   -3.9960  241.7330 N.ar   82  TRP82      -0.2442
     99  CE2       87.2850   -3.4010  240.6120 C.ar   82  TRP82       0.0810
    100  CE3       87.7720   -3.3160  238.2430 C.ar   82  TRP82       0.0012
    101  CZ2       86.1880   -2.5570  240.4650 C.ar   82  TRP82       0.0191
    102  CZ3       86.6760   -2.4920  238.0950 C.ar   82  TRP82       0.0001
    103  CH2       85.8970   -2.1160  239.2000 C.ar   82  TRP82       0.0015
    104  N         82.1310    0.2600  241.8840 N.3    90  LEU90      -0.1245
    105  CA        82.8610    1.4910  242.1650 C.3    90  LEU90       0.1561
    106  C         82.3830    2.1880  243.4320 C.2    90  LEU90       0.2260
    107  O         83.0470    3.1270  243.8880 O.2    90  LEU90      -0.2867
    108  CB        82.7630    2.4530  240.9800 C.3    90  LEU90       0.0270
    109  CG        83.4310    2.0070  239.6790 C.3    90  LEU90       0.0019
    110  CD1       83.2980    3.0950  238.6300 C.3    90  LEU90       0.0001
    111  CD2       84.8920    1.6670  239.9230 C.3    90  LEU90       0.0001
    112  N         84.4720    0.1380  247.3800 N.3    93  ARG93      -0.1245
    113  CA        85.8880   -0.1110  247.1430 C.3    93  ARG93       0.1563
    114  C         86.5610   -0.8810  248.2740 C.2    93  ARG93       0.2260
    115  O         87.6000   -1.5090  248.0450 O.2    93  ARG93      -0.2867
    116  CB        86.6060    1.1870  246.7830 C.3    93  ARG93       0.0307
    117  CG        85.9330    1.8990  245.6190 C.3    93  ARG93       0.0489
    118  CD        86.6080    3.2040  245.2580 C.3    93  ARG93       0.2205
    119  NE        86.6280    4.1570  246.3550 N.pl3  93  ARG93      -0.0865
    120  CZ        85.5950    4.9260  246.6900 C.cat  93  ARG93       0.5346
    121  NH1       85.7030    5.7720  247.7030 N.pl3  93  ARG93       0.1354
    122  NH2       84.4530    4.8390  246.0180 N.pl3  93  ARG93       0.1354
    123  N         87.0950   -4.5100  247.3420 N.3    96  TRP96      -0.1241
    124  CA        87.8900   -4.8770  246.1760 C.3    96  TRP96       0.1605
    125  C         89.0100   -5.8360  246.5350 C.2    96  TRP96       0.2264
    126  O         89.6860   -5.6830  247.5530 O.2    96  TRP96      -0.2867
    127  CB        88.5090   -3.6340  245.5600 C.3    96  TRP96       0.0550
    128  CG        87.5680   -2.7690  244.8320 C.ar   96  TRP96       0.0003
    129  CD1       86.2170   -2.9490  244.6480 C.ar   96  TRP96       0.0946
    130  CD2       87.9040   -1.5520  244.1840 C.ar   96  TRP96       0.0152
    131  NE1       85.7120   -1.9170  243.9000 N.ar   96  TRP96      -0.2442
    132  CE2       86.7260   -1.0400  243.6110 C.ar   96  TRP96       0.0810
    133  CE3       89.0990   -0.8470  244.0170 C.ar   96  TRP96       0.0012
    134  CZ2       86.7110    0.1460  242.8830 C.ar   96  TRP96       0.0191
    135  CZ3       89.0820    0.3300  243.3080 C.ar   96  TRP96       0.0001
    136  CH2       87.8980    0.8160  242.7460 C.ar   96  TRP96       0.0015
    137  N        115.5220    1.7720  252.9480 N.3   124  LYS124     -0.1245
    138  CA       114.1400    2.2470  252.9890 C.3   124  LYS124      0.1561
    139  C        113.4210    1.4990  254.1060 C.2   124  LYS124      0.2260
    140  O        112.4560    0.7620  253.8650 O.2   124  LYS124     -0.2867
    141  CB       113.4510    2.0300  251.6420 C.3   124  LYS124      0.0271
    142  CG       114.1600    2.7030  250.4610 C.3   124  LYS124      0.0035
    143  CD       113.6490    2.2210  249.0990 C.3   124  LYS124      0.0206
    144  CE       114.3640    2.9440  247.9570 C.3   124  LYS124      0.1093
    145  NZ       114.0110    2.4230  246.6080 N.3   124  LYS124     -0.1314
    146  N         86.8010    6.7170  235.7130 N.3   151  PHE151     -0.1241
    147  CA        86.4850    5.3060  235.9180 C.3   151  PHE151      0.1605
    148  C         84.9830    5.0540  235.8720 C.2   151  PHE151      0.2264
    149  O         84.5490    3.9790  235.4450 O.2   151  PHE151     -0.2867
    150  CB        87.0830    4.8080  237.2360 C.3   151  PHE151      0.0534
    151  CG        88.5920    4.7980  237.2610 C.ar  151  PHE151     -0.0203
    152  CD1       89.3120    4.0620  236.3340 C.ar  151  PHE151     -0.0042
    153  CD2       89.2890    5.5200  238.2160 C.ar  151  PHE151     -0.0042
    154  CE1       90.7030    4.0510  236.3600 C.ar  151  PHE151     -0.0003
    155  CE2       90.6740    5.5110  238.2460 C.ar  151  PHE151     -0.0003
    156  CZ        91.3800    4.7730  237.3150 C.ar  151  PHE151     -0.0000
    157  N         93.8550   -3.4540  234.5090 N.3   182  LEU182     -0.1245
    158  CA        94.0180   -2.0390  234.2210 C.3   182  LEU182      0.1561
    159  C         95.4990   -1.7120  234.1480 C.2   182  LEU182      0.2260
    160  O         96.2890   -2.2120  234.9490 O.2   182  LEU182     -0.2867
    161  CB        93.3760   -1.1880  235.3220 C.3   182  LEU182      0.0270
    162  CG        91.9050   -1.5090  235.6340 C.3   182  LEU182      0.0019
    163  CD1       91.7600   -2.5060  236.7720 C.3   182  LEU182      0.0001
    164  CD2       91.1360   -0.2410  235.9670 C.3   182  LEU182      0.0001
    165  N         97.6040    1.7470  234.3180 N.3   184  TYR184     -0.1241
    166  CA        97.3900    3.1530  234.6350 C.3   184  TYR184      0.1605
    167  C         98.4760    3.9370  233.9240 C.2   184  TYR184      0.2264
    168  O         99.6220    3.9670  234.3720 O.2   184  TYR184     -0.2867
    169  CB        97.4560    3.3600  236.1460 C.3   184  TYR184      0.0534
    170  CG        96.4850    2.4860  236.9070 C.ar  184  TYR184     -0.0201
    171  CD1       95.1240    2.7580  236.8690 C.ar  184  TYR184     -0.0009
    172  CD2       96.9180    1.3880  237.6340 C.ar  184  TYR184     -0.0009
    173  CE1       94.2230    1.9690  237.5400 C.ar  184  TYR184      0.0417
    174  CE2       96.0220    0.5980  238.3200 C.ar  184  TYR184      0.0417
    175  CZ        94.6710    0.8870  238.2610 C.ar  184  TYR184      0.1957
    176  OH        93.7480    0.1110  238.9390 O.3   184  TYR184     -0.2866
    177  N         99.0120    8.8050  236.6840 N.3   187  ASP187     -0.1225
    178  CA        98.9080    8.5660  238.1220 C.3   187  ASP187      0.1790
    179  C         97.5220    9.0690  238.4740 C.2   187  ASP187      0.2440
    180  O         97.2810   10.2820  238.4160 O.2   187  ASP187     -0.2733
    181  CB        99.9610    9.3540  238.9150 C.3   187  ASP187      0.1423
    182  CG        99.9060    9.0790  240.4320 C.2   187  ASP187      0.3668
    183  OD1       98.8620    8.6280  240.9440 O.co2 187  ASP187     -0.2456
    184  OD2      100.9070    9.3430  241.1300 O.co2 187  ASP187     -0.2456
    185  N         96.5780    8.1850  238.8150 N.am  188  PRO188     -0.2718
    186  CA        95.2090    8.6600  239.0480 C.3   188  PRO188      0.1535
    187  C         95.1270    9.7220  240.1240 C.2   188  PRO188      0.2598
    188  O         94.2080   10.5430  240.0830 O.2   188  PRO188     -0.2715
    189  CB        94.4440    7.3830  239.4330 C.3   188  PRO188      0.0310
    190  CG        95.2700    6.2660  238.8680 C.3   188  PRO188      0.0237
    191  CD        96.6890    6.7280  239.0070 C.3   188  PRO188      0.0939
    192  N         96.0920    9.7740  241.0500 N.am  189  ARG189     -0.1964
    193  CA        96.1080   10.8330  242.0530 C.3   189  ARG189      0.1729
    194  C         96.4720   12.1840  241.4600 C.2   189  ARG189      0.2616
    195  O         96.1640   13.2180  242.0630 O.2   189  ARG189     -0.2715
    196  CB        97.0890   10.5140  243.1830 C.3   189  ARG189      0.0348
    197  CG        96.8170    9.2340  243.9310 C.3   189  ARG189      0.0492
    198  CD        97.9730    8.9230  244.8710 C.3   189  ARG189      0.2205
    199  NE        99.2310    8.8300  244.1380 N.pl3 189  ARG189     -0.0865
    200  CZ       100.4300    8.7740  244.7080 C.cat 189  ARG189      0.5346
    201  NH1      100.5420    8.7960  246.0260 N.pl3 189  ARG189      0.1354
    202  NH2      101.5220    8.7010  243.9560 N.pl3 189  ARG189      0.1354
    203  N         97.1320   12.2020  240.3080 N.am  190  LYS190     -0.1977
    204  CA        97.6380   13.4280  239.7170 C.3   190  LYS190      0.1596
    205  C         96.8170   13.8580  238.5150 C.2   190  LYS190      0.2287
    206  O         97.1030   14.9060  237.9270 O.2   190  LYS190     -0.2864
    207  CB        99.1160   13.2690  239.3280 C.3   190  LYS190      0.0298
    208  CG       100.0510   12.9800  240.5020 C.3   190  LYS190      0.0038
    209  CD       101.4950   12.7940  240.0370 C.3   190  LYS190      0.0206
    210  CE       102.4670   12.7380  241.2140 C.3   190  LYS190      0.1093
    211  NZ       102.0750   11.7150  242.2280 N.3   190  LYS190     -0.1314
    212  N         92.1220   11.3900  232.1890 N.3   196  MET196     -0.1245
    213  CA        92.8440   10.1830  232.5550 C.3   196  MET196      0.1570
    214  C         92.8330    9.1670  231.4180 C.2   196  MET196      0.2261
    215  O         91.8630    9.0510  230.6680 O.2   196  MET196     -0.2867
    216  CB        92.1790    9.5900  233.7870 C.3   196  MET196      0.0387
    217  CG        92.9720    8.5370  234.5010 C.3   196  MET196      0.0595
    218  SD        92.2200    8.2860  236.1100 S.3   196  MET196     -0.1393
    219  CE        90.5730    7.7990  235.6080 C.3   196  MET196      0.0692
@<TRIPOS>BOND
     1   215   214    2
     2   214   213    1
     3   212   213    1
     4   213   216    1
     5   216   217    1
     6   167   168    2
     7   167   166    1
     8   159   158    1
     9   159   160    2
    10   158   157    1
    11   158   161    1
    12   165   166    1
    13   217   218    1
    14   166   169    1
    15   161   162    1
    16   149   148    2
    17   219   218    1
    18   162   164    1
    19   162   163    1
    20   146   147    1
    21    85    84    2
    22   148   147    1
    23   147   150    1
    24   169   170    1
    25   152   154   ar
    26   152   151   ar
    27   154   156   ar
    28    82    83    1
    29    84    83    1
    30   177   178    1
    31   171   170   ar
    32   171   173   ar
    33   170   172   ar
    34   150   151    1
    35   151   153   ar
    36   156   155   ar
    37    83    86    1
    38   173   175   ar
    39   172   174   ar
    40   206   205    2
    41   102   100   ar
    42   102   103   ar
    43   178   179    1
    44   178   181    1
    45   153   155   ar
    46   100    97   ar
    47   175   174   ar
    48   175   176    1
    49   180   179    2
    50    86    87    1
    51   179   185   am
    52   205   204    1
    53    81    80    1
    54   110   109    1
    55    93    92    2
    56   185   191    1
    57   185   186    1
    58   190   191    1
    59   190   189    1
    60   181   182    1
    61    90    91    1
    62   186   189    1
    63   186   187    1
    64    64    63    1
    65   103   101   ar
    66    94    91    1
    67    94    95    1
    68   207   204    1
    69   207   208    1
    70    97    95   ar
    71    97    99   ar
    72    80    78   ar
    73    80    79   ar
    74    87    88    1
    75    87    89    1
    76    78    76   ar
    77   109   111    1
    78   109   108    1
    79   204   203    1
    80    92    91    1
    81    95    96   ar
    82   209   208    1
    83   209   210    1
    84   188   187    2
    85   187   192   am
    86    62    63   ar
    87    62    60   ar
    88    63    61   ar
    89   203   194   am
    90   182   183   ar
    91   182   184   ar
    92   101    99   ar
    93    79    77   ar
    94    99    98   ar
    95    76    75   ar
    96   108   105    1
    97   192   193    1
    98   210   211    1
    99    60    58   ar
   100    61    59   ar
   101    96    98   ar
   102   194   193    1
   103   194   195    2
   104    77    75   ar
   105    75    74    1
   106   104   105    1
   107    71    70    1
   108    71    74    1
   109    71    72    1
   110   193   196    1
   111   105   106    1
   112    73    72    2
   113    58    59   ar
   114    58    57    1
   115    27    26    1
   116   136   134   ar
   117   136   135   ar
   118   134   132   ar
   119   196   197    1
   120   135   133   ar
   121   106   107    2
   122    54    57    1
   123    54    53    1
   124    54    55    1
   125   132   131   ar
   126   132   130   ar
   127    56    55    2
   128    26    24   ar
   129    26    25   ar
   130   131   129   ar
   131   197   198    1
   132   202   200    1
   133    42    41    1
   134   133   130   ar
   135   199   200    2
   136   199   198    1
   137   130   128   ar
   138    24    22   ar
   139    55    65   am
   140    43    41    1
   141    25    23   ar
   142   129   128   ar
   143   200   201    1
   144   128   127    1
   145     6     5    1
   146     6     7    1
   147    41    38    1
   148    40    39    2
   149   118   117    1
   150   118   119    1
   151     5     2    1
   152   127   124    1
   153    38    39    1
   154    38    37    1
   155    22    21   ar
   156    65    66    1
   157   117   116    1
   158    68    67    2
   159    67    66    1
   160    23    21   ar
   161    39    44   am
   162   122   120    1
   163     7     1    1
   164   124   125    1
   165   124   123    1
   166    66    69    1
   167   119   120    2
   168    21    20    1
   169   125   126    2
   170   145   144    1
   171   120   121    1
   172   116   113    1
   173     2     1    1
   174     2     3    1
   175   113   112    1
   176   113   114    1
   177    44    45    1
   178    47    46    2
   179    46    45    1
   180    45    48    1
   181    19    18    2
   182     3     4    2
   183     3     8   am
   184    15    13   ar
   185    20    17    1
   186   144   143    1
   187   115   114    2
   188     8     9    1
   189    18    17    1
   190    18    28   am
   191    17    16    1
   192    13    14   ar
   193    13    12    1
   194    49    48    1
   195    49    50    1
   196   143   142    1
   197    31    30    2
   198    28    29    1
   199    29    30    1
   200    29    32    1
   201     9    12    1
   202     9    10    1
   203    33    32    1
   204    33    34    1
   205    50    52   am
   206    50    51    2
   207   142   141    1
   208    36    34   am
   209    10    11    2
   210    34    35    2
   211   141   138    1
   212   137   138    1
   213   138   139    1
   214   140   139    2
