@<TRIPOS>MOLECULE
tmp/5x5oA00.pdb
 195 185 0 0 0
SMALL
GASTEIGER

@<TRIPOS>ATOM
      1  N         -0.6310    0.2010   21.2400 N.3     1  PHE1       -0.1241
      2  CA         0.5820   -0.6150   21.2130 C.3     1  PHE1        0.1605
      3  C          0.2610   -2.0510   20.8130 C.2     1  PHE1        0.2264
      4  O          0.4210   -2.9830   21.5990 O.2     1  PHE1       -0.2867
      5  CB         1.2810   -0.6030   22.5670 C.3     1  PHE1        0.0534
      6  CG         2.7600   -0.3420   22.4840 C.ar    1  PHE1       -0.0203
      7  CD1        3.2560    0.5770   21.5750 C.ar    1  PHE1       -0.0042
      8  CD2        3.6490   -0.9850   23.3330 C.ar    1  PHE1       -0.0042
      9  CE1        4.6110    0.8530   21.4980 C.ar    1  PHE1       -0.0003
     10  CE2        5.0120   -0.7190   23.2620 C.ar    1  PHE1       -0.0003
     11  CZ         5.4920    0.2080   22.3420 C.ar    1  PHE1       -0.0000
     12  N         16.6960   -1.9890    9.5850 N.3    23  VAL23      -0.1245
     13  CA        15.3030   -2.1130    9.1950 C.3    23  VAL23       0.1561
     14  C         15.2150   -3.1970    8.1400 C.2    23  VAL23       0.2260
     15  O         16.0180   -3.2250    7.2010 O.2    23  VAL23      -0.2867
     16  CB        14.7390   -0.7770    8.6800 C.3    23  VAL23       0.0252
     17  CG1       13.4530   -1.0050    7.9320 C.3    23  VAL23       0.0019
     18  CG2       14.5260    0.1710    9.8610 C.3    23  VAL23       0.0019
     19  N          7.9130   -2.5560    7.3040 N.3    36  ALA36      -0.1231
     20  CA         9.2920   -2.3990    7.7380 C.3    36  ALA36       0.1694
     21  C          9.3750   -2.8480    9.1850 C.2    36  ALA36       0.2592
     22  O          8.4240   -2.6530    9.9480 O.2    36  ALA36      -0.2718
     23  CB         9.7450   -0.9410    7.6230 C.3    36  ALA36       0.0304
     24  N         10.4900   -3.4700    9.5610 N.am   37  VAL37      -0.1966
     25  CA        10.6920   -3.9410   10.9300 C.3    37  VAL37       0.1727
     26  C         12.0600   -3.4570   11.3770 C.2    37  VAL37       0.2616
     27  O         13.0750   -3.8280   10.7740 O.2    37  VAL37      -0.2715
     28  CB        10.6100   -5.4790   11.0510 C.3    37  VAL37       0.0290
     29  CG1       10.7580   -5.8900   12.5040 C.3    37  VAL37       0.0023
     30  CG2        9.3100   -5.9870   10.4760 C.3    37  VAL37       0.0023
     31  N         12.0940   -2.6250   12.4160 N.am   38  LYS38      -0.1977
     32  CA        13.3530   -2.1570   12.9730 C.3    38  LYS38       0.1596
     33  C         13.7500   -3.0500   14.1360 C.2    38  LYS38       0.2287
     34  O         12.9720   -3.2280   15.0760 O.2    38  LYS38      -0.2864
     35  CB        13.2560   -0.7110   13.4550 C.3    38  LYS38       0.0298
     36  CG        14.5480   -0.1990   14.0590 C.3    38  LYS38       0.0038
     37  CD        14.3850    1.2230   14.5530 C.3    38  LYS38       0.0206
     38  CE        13.9070    2.1360   13.4450 C.3    38  LYS38       0.1093
     39  NZ        14.9970    2.5450   12.5220 N.3    38  LYS38      -0.1314
     40  N          7.2860    3.7380   25.0270 N.3    47  ALA47      -0.1245
     41  CA         7.1870    4.0870   23.6140 C.3    47  ALA47       0.1562
     42  C          5.7460    4.0790   23.1170 C.2    47  ALA47       0.2260
     43  O          5.4980    4.5530   22.0030 O.2    47  ALA47      -0.2867
     44  CB         8.0440    3.1370   22.7710 C.3    47  ALA47       0.0290
     45  N          4.3020    7.2560   21.4020 N.3    50  LEU50      -0.1231
     46  CA         4.5290    7.5690   19.9970 C.3    50  LEU50       0.1693
     47  C          3.6450    6.7620   19.0660 C.2    50  LEU50       0.2592
     48  O          3.5120    7.1260   17.8900 O.2    50  LEU50      -0.2718
     49  CB         5.9840    7.3090   19.6170 C.3    50  LEU50       0.0284
     50  CG         7.0100    8.2520   20.2130 C.3    50  LEU50       0.0019
     51  CD1        8.3390    8.0050   19.5610 C.3    50  LEU50       0.0001
     52  CD2        6.5650    9.6760   19.9840 C.3    50  LEU50       0.0001
     53  N          3.0540    5.6670   19.5510 N.am   51  SER51      -0.1952
     54  CA         2.2680    4.7920   18.6900 C.3    51  SER51       0.1924
     55  C          1.0490    5.4900   18.1180 C.2    51  SER51       0.2314
     56  O          0.5030    5.0330   17.1080 O.2    51  SER51      -0.2863
     57  CB         1.8300    3.5570   19.4700 C.3    51  SER51       0.2116
     58  OG         2.8680    3.1420   20.3280 O.3    51  SER51      -0.2180
     59  N          1.0090    8.7050   17.0350 N.3    53  LEU53      -0.1245
     60  CA         1.3420    9.6920   16.0140 C.3    53  LEU53       0.1561
     61  C          0.9280    9.1840   14.6400 C.2    53  LEU53       0.2260
     62  O          1.1710    8.0270   14.2950 O.2    53  LEU53      -0.2867
     63  CB         2.8370    9.9890   16.0120 C.3    53  LEU53       0.0270
     64  CG         3.4270   10.5130   17.3210 C.3    53  LEU53       0.0019
     65  CD1        4.7130   11.2900   17.0720 C.3    53  LEU53       0.0001
     66  CD2        2.4220   11.3420   18.0850 C.3    53  LEU53       0.0001
     67  N          6.2400    8.1020    8.8210 N.3    59  ILE59      -0.1245
     68  CA         6.0320    6.6690    8.6520 C.3    59  ILE59       0.1561
     69  C          4.9970    6.1600    9.6620 C.2    59  ILE59       0.2260
     70  O          4.9760    6.5670   10.8270 O.2    59  ILE59      -0.2867
     71  CB         7.3930    5.9540    8.7630 C.3    59  ILE59       0.0252
     72  CG1        7.3780    4.6770    7.9350 C.3    59  ILE59       0.0019
     73  CG2        7.8140    5.7370   10.2230 C.3    59  ILE59       0.0019
     74  CD1        7.2170    4.9630    6.4190 C.3    59  ILE59       0.0001
     75  N          3.1320    3.8620   12.2290 N.3    61  PHE61      -0.1241
     76  CA         3.3130    2.7630   13.1740 C.3    61  PHE61       0.1605
     77  C          2.2500    1.6830   12.9900 C.2    61  PHE61       0.2264
     78  O          1.0660    1.9830   12.8260 O.2    61  PHE61      -0.2867
     79  CB         3.2300    3.3000   14.5980 C.3    61  PHE61       0.0534
     80  CG         3.2570    2.2290   15.6550 C.ar   61  PHE61      -0.0203
     81  CD1        4.4600    1.6830   16.0630 C.ar   61  PHE61      -0.0042
     82  CD2        2.0800    1.7740   16.2410 C.ar   61  PHE61      -0.0042
     83  CE1        4.5030    0.6980   17.0540 C.ar   61  PHE61      -0.0003
     84  CE2        2.1160    0.7900   17.2150 C.ar   61  PHE61      -0.0003
     85  CZ         3.3400    0.2680   17.6300 C.ar   61  PHE61      -0.0000
     86  N         10.0860   -2.6920   16.0920 N.3    73  ILE73      -0.1245
     87  CA         8.9720   -1.8130   15.7670 C.3    73  ILE73       0.1561
     88  C          8.6260   -2.0490   14.3140 C.2    73  ILE73       0.2260
     89  O          9.5230   -2.0830   13.4580 O.2    73  ILE73      -0.2867
     90  CB         9.3130   -0.3310   16.0150 C.3    73  ILE73       0.0252
     91  CG1        9.6330   -0.1270   17.5000 C.3    73  ILE73       0.0019
     92  CG2        8.1680    0.5670   15.5630 C.3    73  ILE73       0.0019
     93  CD1       10.1200    1.2920   17.8540 C.3    73  ILE73       0.0001
     94  N          6.3650   -0.9030   10.9930 N.3    75  THR75      -0.1203
     95  CA         5.7150    0.2480   10.3760 C.3    75  THR75       0.1994
     96  C          5.3350   -0.1060    8.9450 C.2    75  THR75       0.2618
     97  O          5.6650   -1.1810    8.4310 O.2    75  THR75      -0.2717
     98  CB         6.6070    1.5130   10.3530 C.3    75  THR75       0.1784
     99  OG1        7.6560    1.3670    9.3770 O.3    75  THR75      -0.2211
    100  CG2        7.2140    1.7950   11.7180 C.3    75  THR75       0.0376
    101  N          4.6470    0.8320    8.3030 N.am   76  GLU76      -0.1965
    102  CA         4.4180    0.7540    6.8730 C.3    76  GLU76       0.1733
    103  C          5.7510    0.7150    6.1320 C.2    76  GLU76       0.2616
    104  O          6.7780    1.1950    6.6130 O.2    76  GLU76      -0.2715
    105  CB         3.5700    1.9500    6.4180 C.3    76  GLU76       0.0429
    106  CG         4.3540    3.0840    5.7900 C.3    76  GLU76       0.1163
    107  CD         3.5190    4.3520    5.5600 C.2    76  GLU76       0.3649
    108  OE1        2.9670    4.5250    4.4530 O.co2  76  GLU76      -0.2457
    109  OE2        3.4400    5.1920    6.4810 O.co2  76  GLU76      -0.2457
    110  N          5.7390    0.1210    4.9540 N.am   77  TYR77      -0.1960
    111  CA         6.9090    0.1060    4.0970 C.3    77  TYR77       0.1771
    112  C          6.6440    1.0020    2.8930 C.2    77  TYR77       0.2619
    113  O          5.6910    0.7660    2.1460 O.2    77  TYR77      -0.2715
    114  CB         7.2420   -1.3100    3.6360 C.3    77  TYR77       0.0574
    115  CG         8.6160   -1.3860    3.0250 C.ar   77  TYR77      -0.0198
    116  CD1        9.7450   -1.5180    3.8290 C.ar   77  TYR77      -0.0009
    117  CD2        8.7940   -1.2950    1.6510 C.ar   77  TYR77      -0.0009
    118  CE1       11.0080   -1.5750    3.2830 C.ar   77  TYR77       0.0417
    119  CE2       10.0510   -1.3460    1.0920 C.ar   77  TYR77       0.0417
    120  CZ        11.1570   -1.4900    1.9170 C.ar   77  TYR77       0.1957
    121  OH        12.4130   -1.5540    1.3650 O.3    77  TYR77      -0.2866
    122  N          7.4960    2.0060    2.7030 N.am   78  ALA78      -0.1977
    123  CA         7.3850    2.9230    1.5700 C.3    78  ALA78       0.1597
    124  C          8.1030    2.3290    0.3590 C.2    78  ALA78       0.2287
    125  O          9.3240    2.1910    0.3590 O.2    78  ALA78      -0.2864
    126  CB         7.9610    4.2900    1.9420 C.3    78  ALA78       0.0319
    127  N         11.7800    3.3630   -1.5030 N.3    81  GLY81      -0.1210
    128  CA        13.0950    3.4640   -0.8960 C.3    81  GLY81       0.1956
    129  C         13.3660    4.8400   -0.3070 C.2    81  GLY81       0.2612
    130  O         12.4820    5.7000   -0.1970 O.2    81  GLY81      -0.2717
    131  N         14.6250    5.0390    0.0820 N.am   82  SER82      -0.1952
    132  CA        14.9910    6.2400    0.8120 C.3    82  SER82       0.1924
    133  C         15.2510    7.3980   -0.1400 C.2    82  SER82       0.2314
    134  O         15.6330    7.2180   -1.3000 O.2    82  SER82      -0.2863
    135  CB        16.2330    5.9940    1.6720 C.3    82  SER82       0.2116
    136  OG        17.4010    5.9720    0.8660 O.3    82  SER82      -0.2180
    137  N         18.9290    7.4640   -1.3700 N.3    85  ASP85      -0.1239
    138  CA        19.2790    6.5700   -2.4670 C.3    85  ASP85       0.1674
    139  C         18.7270    7.0830   -3.7880 C.2    85  ASP85       0.2266
    140  O         19.3630    6.9270   -4.8360 O.2    85  ASP85      -0.2867
    141  CB        18.7640    5.1580   -2.1870 C.3    85  ASP85       0.1410
    142  CG        19.5570    4.4650   -1.1020 C.2    85  ASP85       0.3668
    143  OD1       20.6840    4.9080   -0.8360 O.co2  85  ASP85      -0.2456
    144  OD2       19.0530    3.4820   -0.5290 O.co2  85  ASP85      -0.2456
    145  N         11.6720    8.5500    3.3460 N.3   133  VAL133     -0.1245
    146  CA        11.4650    7.5000    2.3620 C.3   133  VAL133      0.1561
    147  C         10.2850    7.8730    1.4780 C.2   133  VAL133      0.2260
    148  O          9.4790    8.7450    1.8070 O.2   133  VAL133     -0.2867
    149  CB        11.2600    6.1220    3.0230 C.3   133  VAL133      0.0252
    150  CG1       12.5670    5.6940    3.7390 C.3   133  VAL133      0.0019
    151  CG2       10.0910    6.1620    3.9820 C.3   133  VAL133      0.0019
    152  N         11.0710    8.9850    8.8410 N.3   143  CYS143     -0.1221
    153  CA        11.3450    7.8180    9.6600 C.3   143  CYS143      0.1808
    154  C         12.2160    8.2060   10.8470 C.2   143  CYS143      0.2601
    155  O         12.8210    9.2750   10.8500 O.2   143  CYS143     -0.2717
    156  CB        12.0770    6.7500    8.8630 C.3   143  CYS143      0.0970
    157  SG        11.1190    6.1650    7.4620 S.3   143  CYS143     -0.0800
    158  N         12.2820    7.3170   11.8490 N.am  144  ASP144     -0.1959
    159  CA        13.2420    7.4240   12.9500 C.3   144  ASP144      0.1840
    160  C         13.0080    8.6290   13.8510 C.2   144  ASP144      0.2622
    161  O         13.9060    8.9970   14.6280 O.2   144  ASP144     -0.2715
    162  CB        14.6860    7.4540   12.4340 C.3   144  ASP144      0.1450
    163  CG        15.0390    6.2270   11.6080 C.2   144  ASP144      0.3671
    164  OD1       14.2140    5.2830   11.5280 O.co2 144  ASP144     -0.2456
    165  OD2       16.1560    6.1860   11.0550 O.co2 144  ASP144     -0.2456
    166  N         11.8180    9.2460   13.7920 N.am  145  PHE145     -0.1960
    167  CA        11.5490   10.4140   14.6230 C.3   145  PHE145      0.1771
    168  C         11.4630   10.0660   16.1080 C.2   145  PHE145      0.2620
    169  O         11.4460   10.9730   16.9440 O.2   145  PHE145     -0.2715
    170  CB        10.2600   11.1320   14.1750 C.3   145  PHE145      0.0574
    171  CG         9.0630   10.2430   14.0720 C.ar  145  PHE145     -0.0200
    172  CD1        8.3340    9.9040   15.1960 C.ar  145  PHE145     -0.0042
    173  CD2        8.6500    9.7590   12.8370 C.ar  145  PHE145     -0.0042
    174  CE1        7.2160    9.0950   15.1030 C.ar  145  PHE145     -0.0003
    175  CE2        7.5390    8.9470   12.7340 C.ar  145  PHE145     -0.0003
    176  CZ         6.8130    8.6210   13.8660 C.ar  145  PHE145     -0.0000
    177  N         11.4180    8.7840   16.4640 N.am  146  GLY146     -0.1940
    178  CA        11.3920    8.4570   17.8740 C.3   146  GLY146      0.2014
    179  C         12.7030    7.9750   18.4260 C.2   146  GLY146      0.2638
    180  O         12.8210    7.7550   19.6360 O.2   146  GLY146     -0.2714
    181  N         13.7010    7.8360   17.5510 N.am  147  ALA147     -0.1977
    182  CA        14.9740    7.2350   17.9360 C.3   147  ALA147      0.1597
    183  C         15.6760    8.0300   19.0150 C.2   147  ALA147      0.2287
    184  O         16.1800    7.4510   19.9810 O.2   147  ALA147     -0.2864
    185  CB        15.8900    7.1190   16.7240 C.3   147  ALA147      0.0319
    186  N         15.1140    4.9280   21.4170 N.3   151  HIS151     -0.1241
    187  CA        16.1420    3.9500   21.1180 C.3   151  HIS151      0.1621
    188  C         17.3590    4.6960   20.5800 C.2   151  HIS151      0.2264
    189  O         17.7810    4.5330   19.4330 O.2   151  HIS151     -0.2867
    190  CB        15.6490    2.8580   20.1580 C.3   151  HIS151      0.0745
    191  CG        14.8180    3.3570   19.0140 C.ar  151  HIS151      0.0817
    192  ND1       15.3570    3.7060   17.7920 N.ar  151  HIS151     -0.2268
    193  CD2       13.4780    3.5150   18.8910 C.ar  151  HIS151      0.1154
    194  CE1       14.3860    4.0670   16.9720 C.ar  151  HIS151      0.1986
    195  NE2       13.2360    3.9630   17.6150 N.ar  151  HIS151     -0.2212
@<TRIPOS>BOND
     1   140   139    2
     2   139   138    1
     3   138   141    1
     4   138   137    1
     5   141   142    1
     6   127   128    1
     7   134   133    2
     8   142   143   ar
     9   142   144   ar
    10   128   129    1
    11   129   130    2
    12   129   131   am
    13   133   132    1
    14   131   132    1
    15   124   125    2
    16   124   123    1
    17   132   135    1
    18   136   135    1
    19   119   117   ar
    20   119   120   ar
    21   121   120    1
    22   147   148    2
    23   147   146    1
    24   123   126    1
    25   123   122    1
    26   117   115   ar
    27   120   118   ar
    28   113   112    2
    29   146   149    1
    30   146   145    1
    31   122   112   am
    32   112   111    1
    33   149   150    1
    34   149   151    1
    35   115   114    1
    36   115   116   ar
    37   118   116   ar
    38   114   111    1
    39   111   110    1
    40   108   107   ar
    41   110   103   am
    42   107   106    1
    43   107   109   ar
    44   106   105    1
    45   103   104    2
    46   103   102    1
    47   105   102    1
    48    74    72    1
    49   102   101    1
    50    15    14    2
    51    19    20    1
    52   157   156    1
    53    23    20    1
    54    20    21    1
    55    17    16    1
    56    72    71    1
    57    14    13    1
    58   101    96   am
    59    97    96    2
    60    68    71    1
    61    68    67    1
    62    68    69    1
    63    16    13    1
    64    16    18    1
    65    71    73    1
    66   152   153    1
    67   156   153    1
    68    96    95    1
    69    21    24   am
    70    21    22    2
    71    13    12    1
    72    99    98    1
    73    24    25    1
    74   153   154    1
    75    69    70    2
    76    98    95    1
    77    98   100    1
    78    95    94    1
    79    30    28    1
    80    27    26    2
    81   154   155    2
    82   154   158   am
    83    25    28    1
    84    25    26    1
    85    28    29    1
    86   165   163   ar
    87    26    31   am
    88   164   163   ar
    89   163   162    1
    90   158   159    1
    91    75    76    1
    92    31    32    1
    93   162   159    1
    94    39    38    1
    95   175   173   ar
    96   175   176   ar
    97    78    77    2
    98   173   171   ar
    99   159   160    1
   100    32    35    1
   101    32    33    1
   102    77    76    1
   103    76    79    1
   104    38    37    1
   105    35    36    1
   106    89    88    2
   107   166   160   am
   108   166   167    1
   109   160   161    2
   110   176   174   ar
   111    36    37    1
   112   171   170    1
   113   171   172   ar
   114    33    34    2
   115   170   167    1
   116    62    61    2
   117    88    87    1
   118    79    80    1
   119   167   168    1
   120    61    60    1
   121   174   172   ar
   122    92    90    1
   123    80    81   ar
   124    80    82   ar
   125    87    90    1
   126    87    86    1
   127    63    60    1
   128    63    64    1
   129    60    59    1
   130    90    91    1
   131    81    83   ar
   132   168   177   am
   133   168   169    2
   134    82    84   ar
   135   177   178    1
   136   185   182    1
   137   194   195   ar
   138   194   192   ar
   139    83    85   ar
   140    65    64    1
   141    56    55    2
   142    84    85   ar
   143    64    66    1
   144    91    93    1
   145   181   182    1
   146   181   179   am
   147   195   193   ar
   148   192   191   ar
   149   178   179    1
   150    48    47    2
   151   182   183    1
   152    55    54    1
   153   179   180    2
   154    54    57    1
   155    54    53    1
   156   193   191   ar
   157   191   190    1
   158   183   184    2
   159    47    53   am
   160    47    46    1
   161   189   188    2
   162    57    58    1
   163    51    50    1
   164    49    46    1
   165    49    50    1
   166    52    50    1
   167    46    45    1
   168   190   187    1
   169   188   187    1
   170     3     2    1
   171     3     4    2
   172   187   186    1
   173     2     1    1
   174     2     5    1
   175     9     7   ar
   176     9    11   ar
   177     7     6   ar
   178    43    42    2
   179    11    10   ar
   180     6     5    1
   181     6     8   ar
   182    44    41    1
   183    42    41    1
   184    10     8   ar
   185    41    40    1
