@<TRIPOS>MOLECULE
tmp/5x5pA00.pdb
 84 79 0 0 0
SMALL
GASTEIGER

@<TRIPOS>ATOM
      1  N         35.5530   43.7180   -2.3910 N.3   384  ASP384     -0.1239
      2  CA        34.8640   44.9850   -2.6120 C.3   384  ASP384      0.1674
      3  C         33.4260   44.8810   -2.1200 C.2   384  ASP384      0.2266
      4  O         32.8420   43.7910   -2.0460 O.2   384  ASP384     -0.2867
      5  CB        34.9150   45.3530   -4.1010 C.3   384  ASP384      0.1410
      6  CG        33.9040   46.4310   -4.4720 C.2   384  ASP384      0.3668
      7  OD1       32.8470   46.1010   -5.0220 O.co2 384  ASP384     -0.2456
      8  OD2       34.1600   47.6110   -4.2000 O.co2 384  ASP384     -0.2456
      9  N         35.7060   54.9910    1.7590 N.3   408  TYR408     -0.1241
     10  CA        36.2730   55.8280    0.7140 C.3   408  TYR408      0.1605
     11  C         35.1710   56.5030   -0.1080 C.2   408  TYR408      0.2264
     12  O         33.9840   56.1800    0.0200 O.2   408  TYR408     -0.2867
     13  CB        37.2290   55.0400   -0.1970 C.3   408  TYR408      0.0534
     14  CG        36.6460   53.8370   -0.9160 C.ar  408  TYR408     -0.0201
     15  CD1       36.0830   53.9640   -2.1830 C.ar  408  TYR408     -0.0009
     16  CD2       36.6690   52.5660   -0.3330 C.ar  408  TYR408     -0.0009
     17  CE1       35.5640   52.8610   -2.8550 C.ar  408  TYR408      0.0417
     18  CE2       36.1660   51.4730   -0.9930 C.ar  408  TYR408      0.0417
     19  CZ        35.6140   51.6220   -2.2510 C.ar  408  TYR408      0.1957
     20  OH        35.0940   50.5180   -2.9050 O.3   408  TYR408     -0.2866
     21  N         34.9760   50.5880  -13.3460 N.3   434  THR434     -0.1218
     22  CA        35.9220   49.6020  -12.8490 C.3   434  THR434      0.1862
     23  C         35.4820   48.1850  -13.2290 C.2   434  THR434      0.2287
     24  O         36.2750   47.3810  -13.7280 O.2   434  THR434     -0.2866
     25  CB        36.0630   49.7060  -11.3240 C.3   434  THR434      0.1770
     26  OG1       34.8140   49.4020  -10.7030 O.3   434  THR434     -0.2211
     27  CG2       36.4980   51.1250  -10.9170 C.3   434  THR434      0.0375
     28  N         30.6090   46.4800   -8.8340 N.3   438  ARG438     -0.1245
     29  CA        31.5820   46.9630   -7.8640 C.3   438  ARG438      0.1563
     30  C         31.1150   48.3000   -7.2880 C.2   438  ARG438      0.2260
     31  O         30.3540   49.0370   -7.9200 O.2   438  ARG438     -0.2867
     32  CB        32.9690   47.1030   -8.4690 C.3   438  ARG438      0.0307
     33  CG        33.4180   45.9230   -9.3100 C.3   438  ARG438      0.0489
     34  CD        33.7620   44.6790   -8.4690 C.3   438  ARG438      0.2205
     35  NE        34.0880   43.5390   -9.3350 N.pl3 438  ARG438     -0.0865
     36  CZ        35.3010   43.0540   -9.5780 C.cat 438  ARG438      0.5346
     37  NH1       36.3620   43.5710   -9.0010 N.pl3 438  ARG438      0.1354
     38  NH2       35.4380   42.0300  -10.4170 N.pl3 438  ARG438      0.1354
     39  N         32.5570   51.3990   -6.3480 N.3   440  ALA440     -0.1231
     40  CA        32.8640   52.7200   -6.8890 C.3   440  ALA440      0.1694
     41  C         32.5390   52.8250   -8.3770 C.2   440  ALA440      0.2592
     42  O         32.1370   53.9010   -8.8460 O.2   440  ALA440     -0.2718
     43  CB        34.3330   53.0600   -6.6580 C.3   440  ALA440      0.0304
     44  N         32.7210   51.7490   -9.1270 N.am  441  GLY441     -0.1957
     45  CA        32.5550   51.8200  -10.5630 C.3   441  GLY441      0.1869
     46  C         31.1660   51.4990  -11.0790 C.2   441  GLY441      0.2309
     47  O         30.9200   51.6770  -12.2710 O.2   441  GLY441     -0.2863
     48  N         39.2800   47.7760  -13.1870 N.3   498  GLY498     -0.1210
     49  CA        39.6900   48.2630  -11.8880 C.3   498  GLY498      0.1956
     50  C         39.6670   49.7650  -11.7590 C.2   498  GLY498      0.2611
     51  O         39.2900   50.4860  -12.6750 O.2   498  GLY498     -0.2717
     52  N         40.0830   50.2420  -10.5860 N.am  499  TYR499     -0.1976
     53  CA        40.1380   51.6650  -10.3180 C.3   499  TYR499      0.1639
     54  C         41.0170   52.3770  -11.3550 C.2   499  TYR499      0.2290
     55  O         40.5680   53.3000  -12.0500 O.2   499  TYR499     -0.2864
     56  CB        40.6860   51.9200   -8.9330 C.3   499  TYR499      0.0560
     57  CG        39.7910   51.4610   -7.7780 C.ar  499  TYR499     -0.0198
     58  CD1       38.5470   52.0240   -7.5750 C.ar  499  TYR499     -0.0009
     59  CD2       40.2190   50.4920   -6.8830 C.ar  499  TYR499     -0.0009
     60  CE1       37.7380   51.6230   -6.5280 C.ar  499  TYR499      0.0417
     61  CE2       39.4220   50.0950   -5.8620 C.ar  499  TYR499      0.0417
     62  CZ        38.1850   50.6580   -5.6690 C.ar  499  TYR499      0.1957
     63  OH        37.3990   50.2300   -4.6030 O.3   499  TYR499     -0.2866
     64  N         36.2750   47.9060    1.6410 N.3   567  HIS567     -0.1241
     65  CA        36.4060   46.4780    1.3650 C.3   567  HIS567      0.1621
     66  C         36.4800   45.7360    2.6920 C.2   567  HIS567      0.2264
     67  O         36.9650   46.2720    3.6990 O.2   567  HIS567     -0.2867
     68  CB        37.6610   46.1940    0.5280 C.3   567  HIS567      0.0745
     69  CG        37.6420   46.8080   -0.8440 C.ar  567  HIS567      0.0817
     70  ND1       38.1420   46.1610   -1.9520 N.ar  567  HIS567     -0.2268
     71  CD2       37.1800   48.0030   -1.2750 C.ar  567  HIS567      0.1154
     72  CE1       37.9810   46.9350   -3.0180 C.ar  567  HIS567      0.1986
     73  NE2       37.4090   48.0600   -2.6340 N.ar  567  HIS567     -0.2212
     74  N         43.8280   45.5140   -0.7880 N.3   602  ARG602     -0.1245
     75  CA        44.2840   46.7230   -1.4580 C.3   602  ARG602      0.1563
     76  C         45.6400   47.1370   -0.8440 C.2   602  ARG602      0.2260
     77  O         45.9440   46.8250    0.3110 O.2   602  ARG602     -0.2867
     78  CB        43.2590   47.8400   -1.3380 C.3   602  ARG602      0.0307
     79  CG        41.9340   47.6090   -2.0790 C.3   602  ARG602      0.0489
     80  CD        42.1880   47.6340   -3.5590 C.3   602  ARG602      0.2205
     81  NE        40.9430   47.4480   -4.3170 N.pl3 602  ARG602     -0.0865
     82  CZ        40.6550   46.2810   -4.9110 C.cat 602  ARG602      0.5346
     83  NH1       41.4980   45.2140   -4.9270 N.pl3 602  ARG602      0.1354
     84  NH2       39.5080   46.2120   -5.5830 N.pl3 602  ARG602      0.1354
@<TRIPOS>BOND
     1    24    23    2
     2    21    22    1
     3    23    22    1
     4    48    49    1
     5    22    25    1
     6    51    50    2
     7    47    46    2
     8    55    54    2
     9    49    50    1
    10    50    52   am
    11    54    53    1
    12    25    27    1
    13    25    26    1
    14    46    45    1
    15    52    53    1
    16    45    44    1
    17    38    36    1
    18    53    56    1
    19    36    35    2
    20    36    37    1
    21    35    34    1
    22    33    32    1
    23    33    34    1
    24    44    41   am
    25    56    57    1
    26    42    41    2
    27    28    29    1
    28    32    29    1
    29    41    40    1
    30    31    30    2
    31    29    30    1
    32    57    58   ar
    33    57    59   ar
    34    58    60   ar
    35    40    43    1
    36    40    39    1
    37    59    61   ar
    38    60    62   ar
    39    61    62   ar
    40    62    63    1
    41    84    82    1
    42     7     6   ar
    43    83    82    1
    44    82    81    2
    45     6     8   ar
    46     6     5    1
    47    81    80    1
    48     5     2    1
    49    80    79    1
    50    72    73   ar
    51    72    70   ar
    52    20    19    1
    53    17    19   ar
    54    17    15   ar
    55    73    71   ar
    56     2     1    1
    57     2     3    1
    58    19    18   ar
    59    15    14   ar
    60     3     4    2
    61    79    78    1
    62    70    69   ar
    63    75    78    1
    64    75    76    1
    65    75    74    1
    66    71    69   ar
    67    18    16   ar
    68    14    16   ar
    69    14    13    1
    70    69    68    1
    71    76    77    2
    72    13    10    1
    73    11    12    2
    74    11    10    1
    75    68    65    1
    76    10     9    1
    77    65    64    1
    78    65    66    1
    79    66    67    2
