@<TRIPOS>MOLECULE
tmp/5x5uB00.pdb
 227 222 0 0 0
SMALL
GASTEIGER

@<TRIPOS>ATOM
      1  N        -43.7700  -41.0170  -11.2950 N.3   147  PHE147     -0.1227
      2  CA       -43.5890  -41.9000  -12.4750 C.3   147  PHE147      0.1736
      3  C        -42.6980  -42.9800  -12.0070 C.2   147  PHE147      0.2596
      4  O        -41.5480  -42.6950  -11.6740 O.2   147  PHE147     -0.2718
      5  CB       -42.9290  -41.1260  -13.6300 C.3   147  PHE147      0.0547
      6  CG       -43.7340  -39.9510  -14.0890 C.ar  147  PHE147     -0.0202
      7  CD1      -44.7690  -40.1310  -14.9990 C.ar  147  PHE147     -0.0042
      8  CD2      -43.4990  -38.6870  -13.5640 C.ar  147  PHE147     -0.0042
      9  CE1      -45.5330  -39.0580  -15.3990 C.ar  147  PHE147     -0.0003
     10  CE2      -44.2500  -37.6080  -13.9470 C.ar  147  PHE147     -0.0003
     11  CZ       -45.2910  -37.8060  -14.8730 C.ar  147  PHE147     -0.0000
     12  N        -43.2100  -44.2070  -11.9920 N.am  148  THR148     -0.1939
     13  CA       -42.5340  -45.3540  -11.3600 C.3   148  THR148      0.2013
     14  C        -42.3660  -46.5690  -12.2970 C.2   148  THR148      0.2484
     15  O        -43.1970  -46.7920  -13.1620 O.2   148  THR148     -0.2729
     16  CB       -43.2800  -45.7980  -10.0610 C.3   148  THR148      0.1807
     17  OG1      -44.6250  -46.2040  -10.3550 O.3   148  THR148     -0.2208
     18  CG2      -43.3330  -44.6440   -9.1050 C.3   148  THR148      0.0379
     19  N        -41.2840  -47.3750  -12.0980 N.am  149  PRO149     -0.2715
     20  CA       -40.9600  -48.4600  -12.9890 C.3   149  PRO149      0.1536
     21  C        -41.4380  -49.8430  -12.5040 C.2   149  PRO149      0.2599
     22  O        -42.0370  -49.9730  -11.4370 O.2   149  PRO149     -0.2715
     23  CB       -39.4390  -48.3850  -13.0440 C.3   149  PRO149      0.0310
     24  CG       -39.0620  -47.9740  -11.6510 C.3   149  PRO149      0.0237
     25  CD       -40.2410  -47.2440  -11.0600 C.3   149  PRO149      0.0939
     26  N        -41.1330  -50.8610  -13.3270 N.am  150  TRP150     -0.1960
     27  CA       -41.7300  -52.1840  -13.2710 C.3   150  TRP150      0.1771
     28  C        -40.9440  -53.1390  -12.4160 C.2   150  TRP150      0.2619
     29  O        -41.4150  -54.2390  -12.1390 O.2   150  TRP150     -0.2715
     30  CB       -41.8500  -52.7710  -14.6980 C.3   150  TRP150      0.0590
     31  CG       -40.6570  -52.5410  -15.5520 C.ar  150  TRP150      0.0006
     32  CD1      -40.4870  -51.5860  -16.5050 C.ar  150  TRP150      0.0946
     33  CD2      -39.4470  -53.2610  -15.4850 C.ar  150  TRP150      0.0152
     34  NE1      -39.2280  -51.6580  -17.0430 N.ar  150  TRP150     -0.2442
     35  CE2      -38.5620  -52.6790  -16.4300 C.ar  150  TRP150      0.0810
     36  CE3      -39.0090  -54.3220  -14.7030 C.ar  150  TRP150      0.0012
     37  CZ2      -37.2950  -53.1300  -16.6270 C.ar  150  TRP150      0.0191
     38  CZ3      -37.7080  -54.7910  -14.8970 C.ar  150  TRP150      0.0001
     39  CH2      -36.8800  -54.2000  -15.8770 C.ar  150  TRP150      0.0015
     40  N        -39.7470  -52.7560  -11.9960 N.am  151  ASN151     -0.1972
     41  CA       -38.8600  -53.7180  -11.3600 C.3   151  ASN151      0.1688
     42  C        -39.2480  -54.0710   -9.9090 C.2   151  ASN151      0.2292
     43  O        -39.1500  -55.2350   -9.5020 O.2   151  ASN151     -0.2864
     44  CB       -37.4200  -53.2910  -11.5200 C.3   151  ASN151      0.1181
     45  CG       -37.0460  -52.1220  -10.6260 C.2   151  ASN151      0.2629
     46  OD1      -37.8030  -51.1870  -10.4670 O.2   151  ASN151     -0.2716
     47  ND2      -35.8650  -52.1840  -10.0340 N.am  151  ASN151     -0.0877
     48  N        -41.4360  -49.2010   -5.5160 N.3   156  GLN156     -0.1245
     49  CA       -41.0670  -47.9830   -6.2200 C.3   156  GLN156      0.1566
     50  C        -42.1400  -46.9410   -6.1350 C.2   156  GLN156      0.2260
     51  O        -41.8400  -45.7800   -6.3580 O.2   156  GLN156     -0.2867
     52  CB       -40.7280  -48.2490   -7.6880 C.3   156  GLN156      0.0367
     53  CG       -39.5260  -49.1710   -7.9110 C.3   156  GLN156      0.0905
     54  CD       -38.1890  -48.4980   -7.6640 C.2   156  GLN156      0.2608
     55  OE1      -38.0340  -47.7430   -6.7320 O.2   156  GLN156     -0.2717
     56  NE2      -37.1970  -48.7980   -8.5140 N.am  156  GLN156     -0.0878
     57  N        -48.3180  -42.3940  -12.2420 N.3   174  LYS174     -0.1245
     58  CA       -48.4140  -43.1960  -13.4080 C.3   174  LYS174      0.1561
     59  C        -47.5940  -44.4310  -13.1620 C.2   174  LYS174      0.2260
     60  O        -46.3580  -44.4090  -13.2460 O.2   174  LYS174     -0.2867
     61  CB       -47.8980  -42.4240  -14.6450 C.3   174  LYS174      0.0271
     62  CG       -48.2090  -43.1900  -15.9390 C.3   174  LYS174      0.0035
     63  CD       -47.1180  -43.1130  -16.9880 C.3   174  LYS174      0.0206
     64  CE       -45.8840  -43.8940  -16.5580 C.3   174  LYS174      0.1093
     65  NZ       -46.1730  -45.3530  -16.4690 N.3   174  LYS174     -0.1314
     66  N        -46.4640  -48.6390  -13.6700 N.3   176  PRO176     -0.2102
     67  CA       -46.0300  -49.3180  -14.9050 C.3   176  PRO176      0.1504
     68  C        -47.1410  -50.1270  -15.5760 C.2   176  PRO176      0.2575
     69  O        -47.7810  -50.9730  -14.9430 O.2   176  PRO176     -0.2718
     70  CB       -44.9270  -50.2710  -14.4250 C.3   176  PRO176      0.0282
     71  CG       -44.6620  -49.9130  -13.0210 C.3   176  PRO176      0.0208
     72  CD       -45.8670  -49.2580  -12.4790 C.3   176  PRO176      0.0893
     73  N        -47.2980  -49.9000  -16.8720 N.am  177  GLU177     -0.1980
     74  CA       -48.2800  -50.5950  -17.7250 C.3   177  GLU177      0.1602
     75  C        -48.0370  -52.1010  -17.8230 C.2   177  GLU177      0.2287
     76  O        -48.9790  -52.8460  -17.9840 O.2   177  GLU177     -0.2864
     77  CB       -48.2710  -50.0010  -19.1400 C.3   177  GLU177      0.0415
     78  CG       -48.8030  -48.5700  -19.2140 C.3   177  GLU177      0.1163
     79  CD       -47.8760  -47.4820  -18.6270 C.2   177  GLU177      0.3649
     80  OE1      -46.6060  -47.7200  -18.5290 O.co2 177  GLU177     -0.2457
     81  OE2      -48.4340  -46.3700  -18.2770 O.co2 177  GLU177     -0.2457
     82  N        -46.3950  -43.5900  -21.5690 N.3   207  PRO207     -0.2102
     83  CA       -45.6710  -42.8350  -20.5400 C.3   207  PRO207      0.1504
     84  C        -45.2430  -41.4360  -20.9290 C.2   207  PRO207      0.2575
     85  O        -45.4310  -40.4750  -20.1370 O.2   207  PRO207     -0.2718
     86  CB       -44.4620  -43.7190  -20.2540 C.3   207  PRO207      0.0282
     87  CG       -44.9850  -45.1070  -20.4620 C.3   207  PRO207      0.0208
     88  CD       -45.8820  -44.9770  -21.6650 C.3   207  PRO207      0.0893
     89  N        -44.7120  -41.3220  -22.1360 N.am  208  ALA208     -0.1980
     90  CA       -44.2640  -40.0490  -22.6500 C.3   208  ALA208      0.1597
     91  C        -45.4210  -39.0200  -22.8180 C.2   208  ALA208      0.2287
     92  O        -45.2520  -37.8660  -22.5050 O.2   208  ALA208     -0.2864
     93  CB       -43.4610  -40.2510  -23.9830 C.3   208  ALA208      0.0319
     94  N        -46.2960  -37.9770  -19.0370 N.3   211  SER211     -0.1217
     95  CA       -45.3180  -37.1380  -18.3830 C.3   211  SER211      0.1889
     96  C        -45.1790  -35.8220  -19.0870 C.2   211  SER211      0.2288
     97  O        -44.8310  -34.8760  -18.4520 O.2   211  SER211     -0.2866
     98  CB       -43.9650  -37.8290  -18.2670 C.3   211  SER211      0.2089
     99  OG       -43.3410  -37.9300  -19.5120 O.3   211  SER211     -0.2183
    100  N        -39.3470  -39.1180  -10.3310 N.3   225  PHE225     -0.1227
    101  CA       -39.1460  -40.1700  -11.3440 C.3   225  PHE225      0.1736
    102  C        -38.1050  -41.1590  -10.8850 C.2   225  PHE225      0.2596
    103  O        -37.0690  -40.7780  -10.3760 O.2   225  PHE225     -0.2718
    104  CB       -38.7140  -39.5520  -12.6750 C.3   225  PHE225      0.0547
    105  CG       -38.3040  -40.5600  -13.7300 C.ar  225  PHE225     -0.0202
    106  CD1      -39.2570  -41.2360  -14.5000 C.ar  225  PHE225     -0.0042
    107  CD2      -36.9710  -40.7970  -13.9880 C.ar  225  PHE225     -0.0042
    108  CE1      -38.8820  -42.1500  -15.4700 C.ar  225  PHE225     -0.0003
    109  CE2      -36.5970  -41.6890  -14.9510 C.ar  225  PHE225     -0.0003
    110  CZ       -37.5540  -42.3740  -15.6850 C.ar  225  PHE225     -0.0000
    111  N        -38.4100  -42.4350  -11.0290 N.am  226  THR226     -0.1939
    112  CA       -37.4590  -43.4920  -10.8580 C.3   226  THR226      0.2028
    113  C        -37.4050  -44.2280  -12.1930 C.2   226  THR226      0.2643
    114  O        -38.4250  -44.6070  -12.7440 O.2   226  THR226     -0.2714
    115  CB       -37.8630  -44.4110   -9.6980 C.3   226  THR226      0.1808
    116  OG1      -37.8680  -43.6540   -8.4880 O.3   226  THR226     -0.2208
    117  CG2      -36.8820  -45.5010   -9.5330 C.3   226  THR226      0.0379
    118  N        -36.2110  -44.3740  -12.7330 N.am  227  GLY227     -0.1939
    119  CA       -36.0390  -44.9970  -14.0170 C.3   227  GLY227      0.2014
    120  C        -34.6180  -44.9310  -14.5480 C.2   227  GLY227      0.2639
    121  O        -33.6660  -44.9430  -13.7910 O.2   227  GLY227     -0.2714
    122  N        -34.5090  -44.8830  -15.8670 N.am  228  SER228     -0.1949
    123  CA       -33.2340  -44.8170  -16.5550 C.3   228  SER228      0.1924
    124  C        -32.6750  -43.4070  -16.5670 C.2   228  SER228      0.2314
    125  O        -33.4020  -42.4020  -16.5600 O.2   228  SER228     -0.2863
    126  CB       -33.4370  -45.2700  -18.0220 C.3   228  SER228      0.2116
    127  OG       -34.1970  -44.2940  -18.7280 O.3   228  SER228     -0.2180
    128  N        -31.1990  -41.8520  -19.1780 N.2   230  PRO230     -0.2571
    129  CA       -31.5940  -41.0300  -20.3260 C.3   230  PRO230      0.2026
    130  C        -33.0210  -40.4490  -20.2870 C.2   230  PRO230      0.2683
    131  O        -33.1870  -39.2970  -20.6690 O.2   230  PRO230     -0.2709
    132  CB       -31.3460  -41.9210  -21.5720 C.2   230  PRO230      0.0085
    133  CG       -30.6810  -43.1790  -21.0700 C.2   230  PRO230      0.0180
    134  CD       -30.5270  -43.1050  -19.5700 C.2   230  PRO230      0.0938
    135  N        -33.9940  -41.2000  -19.7860 N.am  231  VAL231     -0.1973
    136  CA       -35.3540  -40.6850  -19.6230 C.3   231  VAL231      0.1596
    137  C        -35.3850  -39.6670  -18.4680 C.2   231  VAL231      0.2287
    138  O        -36.0370  -38.6470  -18.5580 O.2   231  VAL231     -0.2864
    139  CB       -36.3320  -41.8610  -19.4300 C.3   231  VAL231      0.0276
    140  CG1      -37.7420  -41.4050  -19.1000 C.3   231  VAL231      0.0022
    141  CG2      -36.3300  -42.7550  -20.7050 C.3   231  VAL231      0.0022
    142  N        -34.2830  -36.3330  -19.8470 N.3   234  GLN234     -0.1231
    143  CA       -35.3720  -35.6520  -20.5950 C.3   234  GLN234      0.1698
    144  C        -36.4030  -35.0620  -19.6020 C.2   234  GLN234      0.2592
    145  O        -36.8060  -33.9300  -19.7740 O.2   234  GLN234     -0.2718
    146  CB       -36.0510  -36.5360  -21.6630 C.3   234  GLN234      0.0381
    147  CG       -35.1620  -36.9430  -22.8640 C.3   234  GLN234      0.0905
    148  CD       -34.4660  -35.7550  -23.5830 C.2   234  GLN234      0.2608
    149  OE1      -35.1040  -34.7300  -23.9020 O.2   234  GLN234     -0.2717
    150  NE2      -33.1330  -35.8970  -23.8430 N.am  234  GLN234     -0.0878
    151  N        -36.7910  -35.8210  -18.5620 N.am  235  LEU235     -0.1980
    152  CA       -37.8220  -35.3660  -17.6150 C.3   235  LEU235      0.1596
    153  C        -37.3420  -34.2460  -16.7170 C.2   235  LEU235      0.2287
    154  O        -38.0990  -33.3620  -16.4110 O.2   235  LEU235     -0.2864
    155  CB       -38.3390  -36.5070  -16.7710 C.3   235  LEU235      0.0297
    156  CG       -39.0210  -37.6280  -17.5840 C.3   235  LEU235      0.0022
    157  CD1      -39.6350  -38.6320  -16.6330 C.3   235  LEU235      0.0001
    158  CD2      -40.0720  -37.1170  -18.5900 C.3   235  LEU235      0.0001
    159  N        -34.4220  -40.9360   -9.1150 N.3   249  GLU249     -0.1231
    160  CA       -33.5260  -42.0590   -8.7810 C.3   249  GLU249      0.1699
    161  C        -33.2910  -42.7810  -10.1080 C.2   249  GLU249      0.2592
    162  O        -34.2280  -43.3650  -10.6910 O.2   249  GLU249     -0.2718
    163  CB       -34.1520  -42.9630   -7.7350 C.3   249  GLU249      0.0402
    164  CG       -33.2420  -44.0560   -7.1650 C.3   249  GLU249      0.1161
    165  CD       -33.4650  -45.4690   -7.7750 C.2   249  GLU249      0.3649
    166  OE1      -32.8200  -45.7990   -8.8250 O.co2 249  GLU249     -0.2457
    167  OE2      -34.2630  -46.2680   -7.1900 O.co2 249  GLU249     -0.2457
    168  N        -32.0610  -42.7140  -10.5920 N.am  250  LEU250     -0.1966
    169  CA       -31.7510  -43.1320  -11.9570 C.3   250  LEU250      0.1728
    170  C        -30.9090  -44.4020  -12.0090 C.2   250  LEU250      0.2616
    171  O        -30.9720  -45.2550  -11.1170 O.2   250  LEU250     -0.2715
    172  CB       -31.1410  -41.9340  -12.7320 C.3   250  LEU250      0.0311
    173  CG       -31.9900  -40.6670  -12.6970 C.3   250  LEU250      0.0022
    174  CD1      -31.3350  -39.5760  -13.4960 C.3   250  LEU250      0.0001
    175  CD2      -33.3550  -40.9570  -13.2740 C.3   250  LEU250      0.0001
    176  N        -30.1220  -44.6060  -13.0510 N.am  251  GLY251     -0.1955
    177  CA       -29.2670  -45.8210  -13.0040 C.3   251  GLY251      0.1869
    178  C        -28.2390  -45.8550  -11.8700 C.2   251  GLY251      0.2309
    179  O        -27.7350  -44.7950  -11.4580 O.2   251  GLY251     -0.2863
    180  N        -31.6550  -51.2530   -9.1450 N.3   283  CYS283     -0.1235
    181  CA       -30.8190  -50.0940   -9.2960 C.3   283  CYS283      0.1677
    182  C        -29.5420  -50.1660   -8.4180 C.2   283  CYS283      0.2270
    183  O        -28.6100  -49.4930   -8.7220 O.2   283  CYS283     -0.2867
    184  CB       -31.6310  -48.8290   -8.9520 C.3   283  CYS283      0.0956
    185  SG       -32.0980  -48.8210   -7.1760 S.3   283  CYS283     -0.0801
    186  N        -37.4760  -57.2210  -23.8480 N.3   329  ARG329     -0.1231
    187  CA       -36.3080  -56.3390  -23.9730 C.3   329  ARG329      0.1694
    188  C        -35.1100  -56.6640  -23.0540 C.2   329  ARG329      0.2591
    189  O        -33.9380  -56.4190  -23.4240 O.2   329  ARG329     -0.2718
    190  CB       -36.7190  -54.9130  -23.6590 C.3   329  ARG329      0.0321
    191  CG       -37.4710  -54.2260  -24.7630 C.3   329  ARG329      0.0489
    192  CD       -37.8510  -52.8440  -24.2350 C.3   329  ARG329      0.2205
    193  NE       -39.1060  -52.9440  -23.5060 N.pl3 329  ARG329     -0.0865
    194  CZ       -39.2830  -52.9370  -22.1950 C.cat 329  ARG329      0.5346
    195  NH1      -38.2800  -52.8290  -21.3670 N.pl3 329  ARG329      0.1354
    196  NH2      -40.4910  -53.0730  -21.7090 N.pl3 329  ARG329      0.1354
    197  N        -35.4160  -57.1450  -21.8510 N.am  330  ARG330     -0.1980
    198  CA       -34.3900  -57.5230  -20.8770 C.3   330  ARG330      0.1597
    199  C        -33.6100  -58.7710  -21.3440 C.2   330  ARG330      0.2287
    200  O        -32.4380  -58.8730  -21.0860 O.2   330  ARG330     -0.2864
    201  CB       -35.0320  -57.7180  -19.4820 C.3   330  ARG330      0.0334
    202  CG       -34.1220  -57.4430  -18.3050 C.3   330  ARG330      0.0492
    203  CD       -34.2340  -56.0260  -17.7570 C.3   330  ARG330      0.2205
    204  NE       -34.0310  -55.0280  -18.7860 N.pl3 330  ARG330     -0.0865
    205  CZ       -32.8480  -54.6520  -19.2500 C.cat 330  ARG330      0.5346
    206  NH1      -31.7250  -55.1610  -18.7660 N.pl3 330  ARG330      0.1354
    207  NH2      -32.8020  -53.7620  -20.2050 N.pl3 330  ARG330      0.1354
    208  N        -25.2790  -50.0950  -17.3940 N.3   380  GLU380     -0.1245
    209  CA       -25.9200  -50.8340  -16.2840 C.3   380  GLU380      0.1567
    210  C        -26.6390  -52.0280  -16.9240 C.2   380  GLU380      0.2260
    211  O        -27.5570  -51.8110  -17.6960 O.2   380  GLU380     -0.2867
    212  CB       -26.9400  -49.9170  -15.5720 C.3   380  GLU380      0.0388
    213  CG       -27.8960  -50.5510  -14.5290 C.3   380  GLU380      0.1160
    214  CD       -28.9120  -49.5210  -13.9760 C.2   380  GLU380      0.3649
    215  OE1      -29.4080  -48.6890  -14.7690 O.co2 380  GLU380     -0.2457
    216  OE2      -29.2480  -49.5610  -12.7710 O.co2 380  GLU380     -0.2457
    217  N        -28.5820  -54.4960  -15.5260 N.3   382  PHE382     -0.1241
    218  CA       -29.9230  -54.7150  -14.9320 C.3   382  PHE382      0.1605
    219  C        -30.4480  -56.1160  -15.2170 C.2   382  PHE382      0.2264
    220  O        -31.5320  -56.2850  -15.7240 O.2   382  PHE382     -0.2867
    221  CB       -30.8860  -53.6720  -15.5170 C.3   382  PHE382      0.0534
    222  CG       -31.7820  -53.0380  -14.5020 C.ar  382  PHE382     -0.0203
    223  CD1      -31.2370  -52.1650  -13.5680 C.ar  382  PHE382     -0.0042
    224  CD2      -33.1670  -53.2870  -14.4940 C.ar  382  PHE382     -0.0042
    225  CE1      -32.0540  -51.5410  -12.6160 C.ar  382  PHE382     -0.0003
    226  CE2      -34.0090  -52.6840  -13.5540 C.ar  382  PHE382     -0.0003
    227  CZ       -33.4520  -51.8170  -12.5950 C.ar  382  PHE382     -0.0000
@<TRIPOS>BOND
     1   191   192    1
     2   191   190    1
     3   192   193    1
     4    93    90    1
     5   187   186    1
     6   187   190    1
     7   187   188    1
     8   149   148    2
     9   150   148   am
    10   148   147    1
    11   193   194    2
    12   189   188    2
    13   188   197   am
    14   147   146    1
    15    91    90    1
    16    91    92    2
    17    90    89    1
    18   194   196    1
    19   194   195    1
    20    89    84   am
    21   197   198    1
    22    88    82    1
    23    88    87    1
    24   146   143    1
    25   132   133    2
    26   132   129    1
    27    82    83    1
    28   199   200    2
    29   199   198    1
    30   133   134    1
    31    84    83    1
    32    84    85    2
    33   198   201    1
    34   141   139    1
    35   131   130    2
    36   143   142    1
    37   143   144    1
    38    83    86    1
    39    87    86    1
    40   129   130    1
    41   129   128    1
    42   130   135   am
    43   207   205    1
    44   135   136    1
    45   145   144    2
    46   136   139    1
    47   136   137    1
    48   144   151   am
    49   134   128    2
    50    99    98    1
    51   201   202    1
    52   139   140    1
    53   205   204    2
    54   205   206    1
    55    78    77    1
    56    78    79    1
    57    77    74    1
    58    96    97    2
    59    96    95    1
    60    94    95    1
    61   204   203    1
    62   127   126    1
    63    79    80   ar
    64    79    81   ar
    65   158   156    1
    66   151   152    1
    67   138   137    2
    68    95    98    1
    69   202   203    1
    70   126   123    1
    71    76    75    2
    72    75    74    1
    73    74    73    1
    74   211   210    2
    75   152   155    1
    76   152   153    1
    77   156   155    1
    78   156   157    1
    79   208   209    1
    80    34    32   ar
    81    34    35   ar
    82    63    64    1
    83    63    62    1
    84   210   209    1
    85    73    68   am
    86   153   154    2
    87    37    35   ar
    88    37    39   ar
    89   124   125    2
    90   124   123    1
    91    64    65    1
    92   123   122    1
    93    32    31   ar
    94    35    33   ar
    95   209   212    1
    96    62    61    1
    97    39    38   ar
    98   122   120   am
    99   220   219    2
   100   110   108   ar
   101   110   109   ar
   102    68    69    2
   103    68    67    1
   104   212   213    1
   105    31    33   ar
   106    31    30    1
   107   217   218    1
   108   221   218    1
   109   221   222    1
   110    33    36   ar
   111   108   106   ar
   112     9     7   ar
   113     9    11   ar
   114   219   218    1
   115     7     6   ar
   116   109   107   ar
   117    67    70    1
   118    67    66    1
   119    38    36   ar
   120    11    10   ar
   121   215   214   ar
   122    30    27    1
   123    61    58    1
   124   120   119    1
   125   120   121    2
   126   213   214    1
   127   222   224   ar
   128   222   223   ar
   129   106   105   ar
   130   224   226   ar
   131    70    71    1
   132     6     5    1
   133     6     8   ar
   134   119   118    1
   135   107   105   ar
   136   214   216   ar
   137    10     8   ar
   138   105   104    1
   139    66    72    1
   140     5     2    1
   141   223   225   ar
   142   226   227   ar
   143   174   173    1
   144    58    59    1
   145    58    57    1
   146    26    27    1
   147    26    21   am
   148   175   173    1
   149    27    28    1
   150    60    59    2
   151    15    14    2
   152   176   177    1
   153   176   170   am
   154    23    20    1
   155    23    24    1
   156    71    72    1
   157   177   178    1
   158    20    21    1
   159    20    19    1
   160   114   113    2
   161   118   113   am
   162   172   173    1
   163   172   169    1
   164   104   101    1
   165   225   227   ar
   166    21    22    2
   167     2     3    1
   168     2     1    1
   169    28    29    2
   170    28    40   am
   171    14    19   am
   172    14    13    1
   173   113   112    1
   174    19    25    1
   175   170   169    1
   176   170   171    2
   177     3    12   am
   178     3     4    2
   179    40    41    1
   180    12    13    1
   181   169   168    1
   182   178   179    2
   183    24    25    1
   184    44    41    1
   185    44    45    1
   186    13    16    1
   187    41    42    1
   188   101   102    1
   189   101   100    1
   190   111   102   am
   191   111   112    1
   192   102   103    2
   193   112   115    1
   194   162   161    2
   195    45    46    2
   196    45    47   am
   197   168   161   am
   198    17    16    1
   199   161   160    1
   200    16    18    1
   201    42    43    2
   202   115   117    1
   203   115   116    1
   204   181   180    1
   205   181   184    1
   206   181   182    1
   207   159   160    1
   208   184   185    1
   209   166   165   ar
   210   160   163    1
   211   183   182    2
   212    56    54   am
   213    53    52    1
   214    53    54    1
   215   165   167   ar
   216   165   164    1
   217   163   164    1
   218    52    49    1
   219    54    55    2
   220    51    50    2
   221    49    50    1
   222    49    48    1
