@<TRIPOS>MOLECULE
tmp/5x5xB00.pdb
 97 94 0 0 0
SMALL
GASTEIGER

@<TRIPOS>ATOM
      1  N         27.8990   26.4070   75.4240 N.3    38  TYR38      -0.1241
      2  CA        29.0650   26.9900   74.7390 C.3    38  TYR38       0.1605
      3  C         29.3830   28.4110   75.2170 C.2    38  TYR38       0.2264
      4  O         29.1790   29.3890   74.5160 O.2    38  TYR38      -0.2867
      5  CB        28.8810   26.9190   73.2390 C.3    38  TYR38       0.0534
      6  CG        28.8600   25.5110   72.7020 C.ar   38  TYR38      -0.0201
      7  CD1       30.0280   24.7670   72.6270 C.ar   38  TYR38      -0.0009
      8  CD2       27.6570   24.8930   72.3260 C.ar   38  TYR38      -0.0009
      9  CE1       30.0290   23.4530   72.1560 C.ar   38  TYR38       0.0417
     10  CE2       27.6460   23.5850   71.8390 C.ar   38  TYR38       0.0417
     11  CZ        28.8380   22.8710   71.7600 C.ar   38  TYR38       0.1957
     12  OH        28.8570   21.5740   71.2810 O.3    38  TYR38      -0.2866
     13  N         32.5360   30.5230   76.9250 N.3    40  HIS40      -0.1241
     14  CA        33.9970   30.4660   76.9210 C.3    40  HIS40       0.1621
     15  C         34.5480   31.7110   77.5970 C.2    40  HIS40       0.2264
     16  O         33.8970   32.7650   77.5940 O.2    40  HIS40      -0.2867
     17  CB        34.5560   30.3870   75.4910 C.3    40  HIS40       0.0745
     18  CG        33.7300   29.5610   74.5710 C.ar   40  HIS40       0.0817
     19  ND1       33.5540   28.2170   74.7560 N.ar   40  HIS40      -0.2268
     20  CD2       32.9900   29.8890   73.4790 C.ar   40  HIS40       0.1154
     21  CE1       32.7770   27.7280   73.8080 C.ar   40  HIS40       0.1986
     22  NE2       32.4030   28.7320   73.0290 N.ar   40  HIS40      -0.2212
     23  N         38.1410   34.2200   77.9410 N.3    42  TYR42      -0.1241
     24  CA        39.4260   34.6600   77.4000 C.3    42  TYR42       0.1605
     25  C         40.1090   35.6570   78.2910 C.2    42  TYR42       0.2264
     26  O         39.4620   36.3860   79.0360 O.2    42  TYR42      -0.2867
     27  CB        39.2540   35.3440   76.0270 C.3    42  TYR42       0.0534
     28  CG        38.7270   34.4550   74.9520 C.ar   42  TYR42      -0.0201
     29  CD1       37.3500   34.2950   74.7520 C.ar   42  TYR42      -0.0009
     30  CD2       39.5870   33.8270   74.0690 C.ar   42  TYR42      -0.0009
     31  CE1       36.8520   33.4620   73.7670 C.ar   42  TYR42       0.0417
     32  CE2       39.1010   32.9910   73.0870 C.ar   42  TYR42       0.0417
     33  CZ        37.7390   32.8270   72.9100 C.ar   42  TYR42       0.1957
     34  OH        37.2850   31.9940   71.8970 O.3    42  TYR42      -0.2866
     35  N         42.4070   31.8300   74.9090 N.3    52  LEU52      -0.1245
     36  CA        41.3740   31.0020   75.4980 C.3    52  LEU52       0.1561
     37  C         41.8510   30.4040   76.8430 C.2    52  LEU52       0.2260
     38  O         42.9780   29.8970   76.9390 O.2    52  LEU52      -0.2867
     39  CB        40.9950   29.8960   74.5440 C.3    52  LEU52       0.0270
     40  CG        39.8160   29.0190   74.9510 C.3    52  LEU52       0.0019
     41  CD1       38.4930   29.7860   75.0570 C.3    52  LEU52       0.0001
     42  CD2       39.7050   27.8370   73.9920 C.3    52  LEU52       0.0001
     43  N         36.8330   26.7320   78.0380 N.3    55  TYR55      -0.1227
     44  CA        35.8530   26.5480   76.9950 C.3    55  TYR55       0.1736
     45  C         34.7160   25.6160   77.4030 C.2    55  TYR55       0.2596
     46  O         34.8650   24.7170   78.2750 O.2    55  TYR55      -0.2718
     47  CB        36.5180   26.1080   75.6750 C.3    55  TYR55       0.0548
     48  CG        37.0390   24.6740   75.7060 C.ar   55  TYR55      -0.0200
     49  CD1       38.3260   24.3890   76.1760 C.ar   55  TYR55      -0.0009
     50  CD2       36.2420   23.6240   75.2690 C.ar   55  TYR55      -0.0009
     51  CE1       38.8040   23.0910   76.2210 C.ar   55  TYR55       0.0417
     52  CE2       36.6820   22.3080   75.3320 C.ar   55  TYR55       0.0417
     53  CZ        37.9640   22.0510   75.8080 C.ar   55  TYR55       0.1957
     54  OH        38.3980   20.7570   75.8230 O.3    55  TYR55      -0.2866
     55  N         33.6000   25.8140   76.7000 N.am   56  THR56      -0.1953
     56  CA        32.3540   25.0800   76.8370 C.3    56  THR56       0.1897
     57  C         32.0590   24.9080   78.3430 C.2    56  THR56       0.2313
     58  O         32.0060   23.7800   78.8700 O.2    56  THR56      -0.2863
     59  CB        32.3970   23.7930   76.0000 C.3    56  THR56       0.1794
     60  OG1       32.8210   24.1380   74.6710 O.3    56  THR56      -0.2208
     61  CG2       31.0460   23.1140   75.9090 C.3    56  THR56       0.0378
     62  N         32.3750   34.7920   76.1530 N.3    95  SER95      -0.1217
     63  CA        31.8480   34.6560   74.7980 C.3    95  SER95       0.1889
     64  C         30.9000   33.4600   74.7020 C.2    95  SER95       0.2288
     65  O         31.0840   32.4830   75.4020 O.2    95  SER95      -0.2866
     66  CB        33.0430   34.5660   73.8260 C.3    95  SER95       0.2089
     67  OG        32.8610   33.6990   72.7310 O.3    95  SER95      -0.2183
     68  N         29.0160   30.7710   71.8800 N.3    97  THR97      -0.1218
     69  CA        28.8860   30.2360   70.5220 C.3    97  THR97       0.1862
     70  C         27.7920   29.1690   70.4240 C.2    97  THR97       0.2287
     71  O         27.8320   28.3000   69.5550 O.2    97  THR97      -0.2866
     72  CB        30.2260   29.6940   69.9800 C.3    97  THR97       0.1770
     73  OG1       30.6520   28.5840   70.7650 O.3    97  THR97      -0.2211
     74  CG2       31.2900   30.7740   70.0380 C.3    97  THR97       0.0375
     75  N         27.4990   34.6310   67.1450 N.3   102  TYR102     -0.1241
     76  CA        28.2920   34.5130   68.3900 C.3   102  TYR102      0.1605
     77  C         28.5800   35.8970   68.8970 C.2   102  TYR102      0.2264
     78  O         28.6900   36.8220   68.1090 O.2   102  TYR102     -0.2867
     79  CB        29.5850   33.7070   68.1410 C.3   102  TYR102      0.0534
     80  CG        29.3770   32.4220   67.3660 C.ar  102  TYR102     -0.0201
     81  CD1       28.1990   31.6750   67.4830 C.ar  102  TYR102     -0.0009
     82  CD2       30.3610   31.9630   66.4850 C.ar  102  TYR102     -0.0009
     83  CE1       28.0160   30.4930   66.7560 C.ar  102  TYR102      0.0417
     84  CE2       30.1790   30.8140   65.7320 C.ar  102  TYR102      0.0417
     85  CZ        29.0180   30.0710   65.8720 C.ar  102  TYR102      0.1957
     86  OH        28.8730   28.9300   65.1050 O.3   102  TYR102     -0.2866
     87  N         30.1580   38.5090   72.4450 N.3   104  PHE104     -0.1241
     88  CA        31.1850   38.6440   73.4760 C.3   104  PHE104      0.1605
     89  C         30.6570   39.5510   74.5390 C.2   104  PHE104      0.2264
     90  O         29.9220   40.4950   74.2480 O.2   104  PHE104     -0.2867
     91  CB        32.4790   39.2470   72.9130 C.3   104  PHE104      0.0534
     92  CG        33.2240   38.3490   71.9520 C.ar  104  PHE104     -0.0203
     93  CD1       32.8890   38.3130   70.5960 C.ar  104  PHE104     -0.0042
     94  CD2       34.2340   37.5230   72.4000 C.ar  104  PHE104     -0.0042
     95  CE1       33.5940   37.4950   69.7110 C.ar  104  PHE104     -0.0003
     96  CE2       34.9340   36.6990   71.5350 C.ar  104  PHE104     -0.0003
     97  CZ        34.6220   36.6950   70.1770 C.ar  104  PHE104     -0.0000
@<TRIPOS>BOND
     1    86    85    1
     2    84    85   ar
     3    84    82   ar
     4    85    83   ar
     5    82    80   ar
     6    83    81   ar
     7    75    76    1
     8    80    81   ar
     9    80    79    1
    10    78    77    2
    11    79    76    1
    12    76    77    1
    13    71    70    2
    14    95    97   ar
    15    95    93   ar
    16    72    74    1
    17    72    69    1
    18    72    73    1
    19    97    96   ar
    20    70    69    1
    21    69    68    1
    22    93    92   ar
    23    12    11    1
    24    96    94   ar
    25    11    10   ar
    26    11     9   ar
    27    10     8   ar
    28    34    33    1
    29    92    94   ar
    30    92    91    1
    31     9     7   ar
    32     8     6   ar
    33    87    88    1
    34     7     6   ar
    35     6     5    1
    36    67    66    1
    37    33    32   ar
    38    33    31   ar
    39    91    88    1
    40    22    20   ar
    41    22    21   ar
    42    32    30   ar
    43     5     2    1
    44    88    89    1
    45    20    18   ar
    46    31    29   ar
    47    21    19   ar
    48    66    63    1
    49    42    40    1
    50    30    28   ar
    51    90    89    2
    52     4     3    2
    53    39    40    1
    54    39    36    1
    55    18    19   ar
    56    18    17    1
    57    60    59    1
    58    64    63    1
    59    64    65    2
    60     2     3    1
    61     2     1    1
    62    29    28   ar
    63    63    62    1
    64    35    36    1
    65    40    41    1
    66    28    27    1
    67    50    52   ar
    68    50    48   ar
    69    52    53   ar
    70    17    14    1
    71    36    37    1
    72    47    48    1
    73    47    44    1
    74    48    49   ar
    75    53    54    1
    76    53    51   ar
    77    61    59    1
    78    59    56    1
    79    27    24    1
    80    49    51   ar
    81    55    56    1
    82    55    45   am
    83    56    57    1
    84    37    38    2
    85    14    13    1
    86    14    15    1
    87    44    45    1
    88    44    43    1
    89    24    23    1
    90    24    25    1
    91    45    46    2
    92    16    15    2
    93    25    26    2
    94    57    58    2
