@<TRIPOS>MOLECULE
tmp/5x5xA04.pdb
 85 84 0 0 0
SMALL
GASTEIGER

@<TRIPOS>ATOM
      1  N         37.1900   31.4040   61.9540 N.3    35  HIS35      -0.1241
      2  CA        36.3530   32.5500   62.2670 C.3    35  HIS35       0.1621
      3  C         37.1350   33.8360   62.0990 C.2    35  HIS35       0.2264
      4  O         38.3720   33.8500   62.2050 O.2    35  HIS35      -0.2867
      5  CB        35.8050   32.4830   63.7120 C.3    35  HIS35       0.0745
      6  CG        35.2200   31.1590   64.0760 C.ar   35  HIS35       0.0817
      7  ND1       33.8670   30.9080   64.0450 N.ar   35  HIS35      -0.2268
      8  CD2       35.8140   29.9830   64.3850 C.ar   35  HIS35       0.1154
      9  CE1       33.6490   29.6460   64.3700 C.ar   35  HIS35       0.1986
     10  NE2       34.8200   29.0650   64.5740 N.ar   35  HIS35      -0.2212
     11  N         37.0020   37.8220   63.6710 N.3    37  VAL37      -0.1245
     12  CA        36.5270   38.6690   64.7580 C.3    37  VAL37       0.1561
     13  C         37.0890   40.0830   64.6140 C.2    37  VAL37       0.2260
     14  O         38.2820   40.2600   64.3480 O.2    37  VAL37      -0.2867
     15  CB        36.9820   38.0700   66.1060 C.3    37  VAL37       0.0252
     16  CG1       36.6470   38.9790   67.2940 C.3    37  VAL37       0.0019
     17  CG2       36.3940   36.6760   66.2590 C.3    37  VAL37       0.0019
     18  N         31.8950   39.0000   66.4370 N.3    47  TRP47      -0.1241
     19  CA        32.1340   37.8990   65.5160 C.3    47  TRP47       0.1605
     20  C         31.5890   38.2840   64.1470 C.2    47  TRP47       0.2264
     21  O         30.4430   38.7120   64.0270 O.2    47  TRP47      -0.2867
     22  CB        31.4830   36.6230   66.0580 C.3    47  TRP47       0.0550
     23  CG        31.4820   35.4220   65.1710 C.ar   47  TRP47       0.0003
     24  CD1       32.4820   34.4980   65.0150 C.ar   47  TRP47       0.0946
     25  CD2       30.3810   34.9520   64.3780 C.ar   47  TRP47       0.0152
     26  NE1       32.0820   33.5190   64.1470 N.ar   47  TRP47      -0.2442
     27  CE2       30.7940   33.7560   63.7530 C.ar   47  TRP47       0.0810
     28  CE3       29.0890   35.4260   64.1390 C.ar   47  TRP47       0.0012
     29  CZ2       29.9730   33.0330   62.9180 C.ar   47  TRP47       0.0191
     30  CZ3       28.2510   34.7040   63.2630 C.ar   47  TRP47       0.0001
     31  CH2       28.7000   33.5240   62.6760 C.ar   47  TRP47       0.0015
     32  N         40.6380   33.2180   63.6230 N.3    97  THR97      -0.1203
     33  CA        40.6640   32.2660   64.7460 C.3    97  THR97       0.1994
     34  C         40.2770   30.9020   64.2080 C.2    97  THR97       0.2619
     35  O         39.7120   30.7860   63.1020 O.2    97  THR97      -0.2717
     36  CB        39.7070   32.6360   65.9160 C.3    97  THR97       0.1784
     37  OG1       38.3750   32.1890   65.6340 O.3    97  THR97      -0.2211
     38  CG2       39.6740   34.1100   66.1930 C.3    97  THR97       0.0376
     39  N         40.6130   29.8810   64.9910 N.am   98  SER98      -0.1937
     40  CA        40.2350   28.5080   64.7060 C.3    98  SER98       0.2055
     41  C         39.3900   28.0210   65.8630 C.2    98  SER98       0.2644
     42  O         39.5640   28.4770   67.0030 O.2    98  SER98      -0.2714
     43  CB        41.4640   27.6330   64.6110 C.3    98  SER98       0.2130
     44  OG        41.9830   27.4370   65.9240 O.3    98  SER98      -0.2179
     45  N         38.4700   27.1130   65.5900 N.am   99  SER99      -0.1935
     46  CA        37.7690   26.4270   66.6730 C.3    99  SER99       0.2055
     47  C         37.7230   24.9240   66.4120 C.2    99  SER99       0.2644
     48  O         37.4990   24.4790   65.2650 O.2    99  SER99      -0.2714
     49  CB        36.3550   26.9800   66.8790 C.3    99  SER99       0.2130
     50  OG        35.4280   26.6360   65.8410 O.3    99  SER99      -0.2179
     51  N         37.9320   24.1640   67.4820 N.am  100  THR100     -0.1936
     52  CA        37.6920   22.7160   67.5210 C.3   100  THR100      0.2028
     53  C         36.8300   22.4390   68.7530 C.2   100  THR100      0.2642
     54  O         36.5770   23.3480   69.5540 O.2   100  THR100     -0.2714
     55  CB        38.9900   21.9140   67.6890 C.3   100  THR100      0.1808
     56  OG1       39.5400   22.1650   68.9850 O.3   100  THR100     -0.2208
     57  CG2       40.0330   22.2680   66.6340 C.3   100  THR100      0.0379
     58  N         36.4170   21.1820   68.9270 N.am  101  SER101     -0.1949
     59  CA        35.6970   20.7720   70.1270 C.3   101  SER101      0.1924
     60  C         36.5050   20.9580   71.4060 C.2   101  SER101      0.2314
     61  O         35.9170   20.9970   72.4710 O.2   101  SER101     -0.2863
     62  CB        35.3000   19.2900   70.0660 C.3   101  SER101      0.2116
     63  OG        34.4720   19.0090   68.9560 O.3   101  SER101     -0.2180
     64  N         38.8040   23.4910   71.9060 N.3   103  GLY103     -0.1210
     65  CA        39.2970   24.8660   72.0500 C.3   103  GLY103      0.1956
     66  C         39.5700   25.5000   70.7120 C.2   103  GLY103      0.2612
     67  O         38.8640   25.2620   69.7410 O.2   103  GLY103     -0.2717
     68  N         40.5910   26.3370   70.6670 N.am  104  GLY104     -0.1956
     69  CA        40.7930   27.1960   69.5190 C.3   104  GLY104      0.1869
     70  C         41.9720   28.1080   69.7420 C.2   104  GLY104      0.2309
     71  O         42.3960   28.3220   70.8730 O.2   104  GLY104     -0.2863
     72  N         43.8690   31.9370   68.2910 N.3   106  TRP106     -0.1241
     73  CA        43.6190   33.2210   67.6390 C.3   106  TRP106      0.1605
     74  C         44.8840   33.6790   66.9600 C.2   106  TRP106      0.2264
     75  O         45.9720   33.5020   67.5110 O.2   106  TRP106     -0.2867
     76  CB        43.1520   34.2510   68.6560 C.3   106  TRP106      0.0550
     77  CG        41.7100   34.0830   69.1320 C.ar  106  TRP106      0.0003
     78  CD1       41.1010   32.9300   69.5420 C.ar  106  TRP106      0.0946
     79  CD2       40.7470   35.1210   69.3230 C.ar  106  TRP106      0.0152
     80  NE1       39.7970   33.1800   69.9090 N.ar  106  TRP106     -0.2442
     81  CE2       39.5660   34.5210   69.8000 C.ar  106  TRP106      0.0810
     82  CE3       40.7480   36.5050   69.0860 C.ar  106  TRP106      0.0012
     83  CZ2       38.4000   35.2590   70.0650 C.ar  106  TRP106      0.0191
     84  CZ3       39.6090   37.2230   69.3480 C.ar  106  TRP106      0.0001
     85  CH2       38.4400   36.6020   69.8390 C.ar  106  TRP106      0.0015
@<TRIPOS>BOND
     1     1     2    1
     2     3     4    2
     3     3     2    1
     4     2     5    1
     5    31    29   ar
     6    31    30   ar
     7    29    27   ar
     8    35    34    2
     9    30    28   ar
    10    32    33    1
    11    11    12    1
    12     5     6    1
    13    27    26   ar
    14    27    25   ar
    15    21    20    2
    16     7     6   ar
    17     7     9   ar
    18     6     8   ar
    19    28    25   ar
    20    26    24   ar
    21    20    19    1
    22    34    33    1
    23    34    39   am
    24    14    13    2
    25     9    10   ar
    26    25    23   ar
    27     8    10   ar
    28    43    40    1
    29    43    44    1
    30    13    12    1
    31    40    39    1
    32    40    41    1
    33    33    36    1
    34    12    15    1
    35    24    23   ar
    36    23    22    1
    37    48    47    2
    38    19    22    1
    39    19    18    1
    40    45    41   am
    41    45    46    1
    42    37    36    1
    43    50    49    1
    44    41    42    2
    45    36    38    1
    46    15    17    1
    47    15    16    1
    48    47    46    1
    49    47    51   am
    50    57    55    1
    51    46    49    1
    52    74    75    2
    53    74    73    1
    54    51    52    1
    55    52    55    1
    56    52    53    1
    57    73    72    1
    58    73    76    1
    59    55    56    1
    60    76    77    1
    61    53    58   am
    62    53    54    2
    63    58    59    1
    64    63    62    1
    65    82    79   ar
    66    82    84   ar
    67    77    79   ar
    68    77    78   ar
    69    79    81   ar
    70    84    85   ar
    71    69    70    1
    72    69    68    1
    73    78    80   ar
    74    67    66    2
    75    70    71    2
    76    81    80   ar
    77    81    83   ar
    78    85    83   ar
    79    62    59    1
    80    59    60    1
    81    68    66   am
    82    66    65    1
    83    60    61    2
    84    64    65    1
