@<TRIPOS>MOLECULE
tmp/5x62B00.pdb
 192 189 0 0 0
SMALL
GASTEIGER

@<TRIPOS>ATOM
      1  N        -10.5700   28.2400  189.0440 N.3   100  GLN100     -0.1245
      2  CA       -10.9230   26.9740  188.4030 C.3   100  GLN100      0.1566
      3  C        -11.8130   27.1910  187.1710 C.2   100  GLN100      0.2260
      4  O        -11.6020   26.5640  186.1250 O.2   100  GLN100     -0.2867
      5  CB       -11.6140   26.0540  189.4160 C.3   100  GLN100      0.0367
      6  CG       -11.7160   24.6100  188.9470 C.3   100  GLN100      0.0905
      7  CD       -10.3480   23.9530  188.7900 C.2   100  GLN100      0.2608
      8  OE1       -9.4180   24.2210  189.5650 O.2   100  GLN100     -0.2717
      9  NE2      -10.2160   23.0910  187.7840 N.am  100  GLN100     -0.0878
     10  N         -9.8800   28.5930  184.2830 N.3   103  ARG103     -0.1231
     11  CA        -9.0470   27.5660  183.6650 C.3   103  ARG103      0.1694
     12  C         -9.8730   26.6320  182.7910 C.2   103  ARG103      0.2591
     13  O         -9.4710   26.2800  181.6780 O.2   103  ARG103     -0.2718
     14  CB        -8.3230   26.7630  184.7480 C.3   103  ARG103      0.0321
     15  CG        -7.8430   25.3810  184.2960 C.3   103  ARG103      0.0489
     16  CD        -7.0530   24.7250  185.4300 C.3   103  ARG103      0.2205
     17  NE        -6.7380   23.3140  185.1860 N.pl3 103  ARG103     -0.0865
     18  CZ        -5.6760   22.8800  184.5150 C.cat 103  ARG103      0.5346
     19  NH1       -4.8110   23.7440  183.9870 N.pl3 103  ARG103      0.1354
     20  NH2       -5.4680   21.5810  184.3890 N.pl3 103  ARG103      0.1354
     21  N        -11.0380   26.2260  183.2730 N.am  104  GLU104     -0.1979
     22  CA       -11.7280   25.1560  182.5860 C.3   104  GLU104      0.1602
     23  C        -12.7320   25.6410  181.5510 C.2   104  GLU104      0.2287
     24  O        -13.1240   24.8470  180.6890 O.2   104  GLU104     -0.2864
     25  CB       -12.4210   24.2480  183.6090 C.3   104  GLU104      0.0415
     26  CG       -11.4630   23.2780  184.2880 C.3   104  GLU104      0.1163
     27  CD       -12.1800   22.2550  185.1280 C.2   104  GLU104      0.3649
     28  OE1      -12.5290   22.5500  186.2990 O.co2 104  GLU104     -0.2457
     29  OE2      -12.4580   21.1690  184.5890 O.co2 104  GLU104     -0.2457
     30  N        -12.0130    9.6510  184.8140 N.3   136  ILE136     -0.1231
     31  CA       -11.2360   10.8720  185.0490 C.3   136  ILE136      0.1678
     32  C        -11.2580   11.2000  186.5390 C.2   136  ILE136      0.2434
     33  O        -12.1950   11.8620  187.0130 O.2   136  ILE136     -0.2733
     34  CB       -11.7650   12.0330  184.1910 C.3   136  ILE136      0.0265
     35  CG1      -11.6800   11.6550  182.7120 C.3   136  ILE136      0.0019
     36  CG2      -10.9610   13.3210  184.4280 C.3   136  ILE136      0.0020
     37  CD1      -12.2630   12.6730  181.8150 C.3   136  ILE136      0.0001
     38  N        -10.2700   10.7510  187.3190 N.am  137  PRO137     -0.2718
     39  CA       -10.2680   11.0610  188.7550 C.3   137  PRO137      0.1535
     40  C         -9.9290   12.5240  189.0130 C.2   137  PRO137      0.2599
     41  O         -9.1380   13.1430  188.2950 O.2   137  PRO137     -0.2715
     42  CB        -9.1820   10.1400  189.3220 C.3   137  PRO137      0.0310
     43  CG        -8.9130    9.1130  188.2360 C.3   137  PRO137      0.0237
     44  CD        -9.1850    9.8250  186.9550 C.3   137  PRO137      0.0939
     45  N        -10.5400   13.0770  190.0590 N.am  138  GLY138     -0.1941
     46  CA       -10.3400   14.4810  190.3840 C.3   138  GLY138      0.2014
     47  C        -10.6180   15.4190  189.2280 C.2   138  GLY138      0.2639
     48  O         -9.7830   16.2760  188.9010 O.2   138  GLY138     -0.2714
     49  N        -11.8020   15.2790  188.6150 N.am  139  CYS139     -0.1953
     50  CA       -12.1330   15.9590  187.3650 C.3   139  CYS139      0.1843
     51  C        -12.4430   17.4450  187.5370 C.2   139  CYS139      0.2626
     52  O        -12.6260   18.1400  186.5310 O.2   139  CYS139     -0.2714
     53  CB       -13.3140   15.2490  186.6780 C.3   139  CYS139      0.0997
     54  SG       -14.8850   15.1960  187.6120 S.3   139  CYS139     -0.0797
     55  N        -12.4940   17.9670  188.7590 N.am  140  GLY140     -0.1954
     56  CA       -12.7140   19.4170  188.9070 C.3   140  GLY140      0.1869
     57  C        -14.1310   19.8130  188.5050 C.2   140  GLY140      0.2309
     58  O        -15.1000   19.1810  188.9350 O.2   140  GLY140     -0.2863
     59  N        -14.7250   11.6050  188.4730 N.3   158  ASN158     -0.1225
     60  CA       -14.7440   11.3120  189.8990 C.3   158  ASN158      0.1785
     61  C        -14.2710   12.5660  190.6140 C.2   158  ASN158      0.2597
     62  O        -13.2800   13.1730  190.1980 O.2   158  ASN158     -0.2718
     63  CB       -13.8520   10.1090  190.2160 C.3   158  ASN158      0.1169
     64  CG       -13.4650   10.0370  191.6740 C.2   158  ASN158      0.2627
     65  OD1      -12.3120   10.2850  192.0340 O.2   158  ASN158     -0.2716
     66  ND2      -14.4200    9.6810  192.5230 N.am  158  ASN158     -0.0877
     67  N        -15.0160   13.0000  191.6300 N.am  159  GLU159     -0.1965
     68  CA       -14.6670   14.2500  192.3090 C.3   159  GLU159      0.1733
     69  C        -15.2580   14.2540  193.7110 C.2   159  GLU159      0.2616
     70  O        -16.4370   13.9370  193.8890 O.2   159  GLU159     -0.2715
     71  CB       -15.1720   15.4550  191.4950 C.3   159  GLU159      0.0429
     72  CG       -14.9640   16.8160  192.1420 C.3   159  GLU159      0.1163
     73  CD       -13.4970   17.0710  192.4810 C.2   159  GLU159      0.3649
     74  OE1      -12.6490   17.0810  191.5660 O.co2 159  GLU159     -0.2457
     75  OE2      -13.1980   17.2490  193.6730 O.co2 159  GLU159     -0.2457
     76  N        -14.4460   14.5830  194.7150 N.am  160  PHE160     -0.1960
     77  CA       -14.9470   14.5730  196.0900 C.3   160  PHE160      0.1771
     78  C        -15.2510   15.9590  196.6670 C.2   160  PHE160      0.2620
     79  O        -15.7800   16.0360  197.7790 O.2   160  PHE160     -0.2715
     80  CB       -14.0030   13.7660  197.0230 C.3   160  PHE160      0.0574
     81  CG       -12.7150   14.4610  197.4410 C.ar  160  PHE160     -0.0200
     82  CD1      -11.9520   13.9100  198.4630 C.ar  160  PHE160     -0.0042
     83  CD2      -12.2510   15.6180  196.8260 C.ar  160  PHE160     -0.0042
     84  CE1      -10.7470   14.5130  198.8800 C.ar  160  PHE160     -0.0003
     85  CE2      -11.0600   16.2280  197.2370 C.ar  160  PHE160     -0.0003
     86  CZ       -10.3090   15.6690  198.2610 C.ar  160  PHE160     -0.0000
     87  N        -14.9690   17.0420  195.9490 N.am  161  SER161     -0.1950
     88  CA       -15.2290   18.3900  196.4500 C.3   161  SER161      0.1924
     89  C        -16.5980   18.8710  195.9860 C.2   161  SER161      0.2314
     90  O        -16.8580   18.9490  194.7870 O.2   161  SER161     -0.2863
     91  CB       -14.1630   19.3740  195.9740 C.3   161  SER161      0.2116
     92  OG       -14.5660   20.7160  196.2270 O.3   161  SER161     -0.2180
     93  N        -16.4800   21.9550  193.6680 N.3   164  MET164     -0.1245
     94  CA       -16.2910   21.5270  192.2840 C.3   164  MET164      0.1570
     95  C        -17.5710   20.9320  191.7090 C.2   164  MET164      0.2261
     96  O        -17.9720   21.2770  190.5960 O.2   164  MET164     -0.2867
     97  CB       -15.1530   20.5040  192.1890 C.3   164  MET164      0.0387
     98  CG       -13.7680   21.0200  192.5900 C.3   164  MET164      0.0595
     99  SD       -13.1520   22.2700  191.4630 S.3   164  MET164     -0.1393
    100  CE       -11.4380   22.4050  191.9830 C.3   164  MET164      0.0692
    101  N        -17.2570   11.2940  195.3570 N.3   225  GLY225     -0.1210
    102  CA       -16.6160   10.6170  196.4610 C.3   225  GLY225      0.1956
    103  C        -15.1290   10.5040  196.2150 C.2   225  GLY225      0.2613
    104  O        -14.5980   10.9560  195.2000 O.2   225  GLY225     -0.2717
    105  N        -14.4620    9.9080  197.1900 N.am  226  SER226     -0.1938
    106  CA       -13.0290    9.7290  197.0810 C.3   226  SER226      0.2055
    107  C        -12.7130    8.6770  196.0230 C.2   226  SER226      0.2643
    108  O        -13.4240    7.6790  195.8730 O.2   226  SER226     -0.2714
    109  CB       -12.4460    9.3550  198.4450 C.3   226  SER226      0.2130
    110  OG       -11.0810    9.0170  198.3400 O.3   226  SER226     -0.2179
    111  N        -11.6220    8.9100  195.2950 N.am  227  PHE227     -0.1973
    112  CA       -11.2290    8.0430  194.1870 C.3   227  PHE227      0.1639
    113  C        -11.0640    6.5910  194.6380 C.2   227  PHE227      0.2290
    114  O        -11.6400    5.6650  194.0460 O.2   227  PHE227     -0.2864
    115  CB        -9.9270    8.5920  193.5860 C.3   227  PHE227      0.0560
    116  CG        -9.3190    7.7190  192.5270 C.ar  227  PHE227     -0.0200
    117  CD1      -10.0590    7.3410  191.4120 C.ar  227  PHE227     -0.0042
    118  CD2       -8.0010    7.3010  192.6300 C.ar  227  PHE227     -0.0042
    119  CE1       -9.5040    6.5500  190.4300 C.ar  227  PHE227     -0.0003
    120  CE2       -7.4250    6.5090  191.6470 C.ar  227  PHE227     -0.0003
    121  CZ        -8.1770    6.1320  190.5420 C.ar  227  PHE227     -0.0000
    122  N         -9.9950    7.9790  203.1000 N.3   242  HIS242     -0.1241
    123  CA       -10.3180    7.8910  201.6830 C.3   242  HIS242      0.1621
    124  C        -10.6490    6.4680  201.2360 C.2   242  HIS242      0.2264
    125  O        -10.7590    6.2190  200.0310 O.2   242  HIS242     -0.2867
    126  CB        -9.1850    8.4720  200.8220 C.3   242  HIS242      0.0745
    127  CG        -7.9220    7.6620  200.8120 C.ar  242  HIS242      0.0817
    128  ND1       -6.7900    8.0330  201.5070 N.ar  242  HIS242     -0.2268
    129  CD2       -7.6120    6.5030  200.1800 C.ar  242  HIS242      0.1154
    130  CE1       -5.8370    7.1380  201.3040 C.ar  242  HIS242      0.1986
    131  NE2       -6.3120    6.1970  200.5070 N.ar  242  HIS242     -0.2212
    132  N         -5.1330   14.2250  185.6880 N.3   266  ASN266     -0.1225
    133  CA        -4.7850   15.5550  185.1900 C.3   266  ASN266      0.1785
    134  C         -4.7120   16.4670  186.4110 C.2   266  ASN266      0.2597
    135  O         -5.7440   16.8070  186.9940 O.2   266  ASN266     -0.2718
    136  CB        -5.8330   16.0050  184.1670 C.3   266  ASN266      0.1169
    137  CG        -5.6100   17.4100  183.6450 C.2   266  ASN266      0.2627
    138  OD1       -4.4820   17.8760  183.4880 O.2   266  ASN266     -0.2716
    139  ND2       -6.7100   18.0880  183.3450 N.am  266  ASN266     -0.0877
    140  N         -3.4920   16.8130  186.8300 N.am  267  PHE267     -0.1962
    141  CA        -3.2750   17.5350  188.0860 C.3   267  PHE267      0.1771
    142  C         -3.9110   16.7930  189.2560 C.2   267  PHE267      0.2619
    143  O         -4.5310   17.4020  190.1300 O.2   267  PHE267     -0.2715
    144  CB        -3.8160   18.9690  188.0130 C.3   267  PHE267      0.0574
    145  CG        -2.8730   19.9470  187.3880 C.ar  267  PHE267     -0.0200
    146  CD1       -2.1390   20.8170  188.1880 C.ar  267  PHE267     -0.0042
    147  CD2       -2.7080   20.0000  186.0110 C.ar  267  PHE267     -0.0042
    148  CE1       -1.2660   21.7320  187.6280 C.ar  267  PHE267     -0.0003
    149  CE2       -1.8410   20.9190  185.4370 C.ar  267  PHE267     -0.0003
    150  CZ        -1.1140   21.7800  186.2470 C.ar  267  PHE267     -0.0000
    151  N         -3.7910   15.4680  189.2620 N.am  268  PHE268     -0.1974
    152  CA        -4.4570   14.6670  190.2870 C.3   268  PHE268      0.1639
    153  C         -3.5290   13.7500  191.0600 C.2   268  PHE268      0.2290
    154  O         -3.7610   13.5210  192.2460 O.2   268  PHE268     -0.2864
    155  CB        -5.5880   13.8040  189.6760 C.3   268  PHE268      0.0560
    156  CG        -6.1640   12.7840  190.6510 C.ar  268  PHE268     -0.0200
    157  CD1       -7.1220   13.1620  191.5870 C.ar  268  PHE268     -0.0042
    158  CD2       -5.7240   11.4650  190.6480 C.ar  268  PHE268     -0.0042
    159  CE1       -7.6340   12.2460  192.5000 C.ar  268  PHE268     -0.0003
    160  CE2       -6.2370   10.5370  191.5550 C.ar  268  PHE268     -0.0003
    161  CZ        -7.1920   10.9260  192.4820 C.ar  268  PHE268     -0.0000
    162  N         -2.3340   14.5340  194.6940 N.3   271  THR271     -0.1218
    163  CA        -3.2880   15.1330  195.6240 C.3   271  THR271      0.1862
    164  C         -3.5080   14.3260  196.8930 C.2   271  THR271      0.2287
    165  O         -4.1480   14.8350  197.8120 O.2   271  THR271     -0.2866
    166  CB        -4.6640   15.3230  194.9640 C.3   271  THR271      0.1770
    167  OG1       -5.1410   14.0570  194.4820 O.3   271  THR271     -0.2211
    168  CG2       -4.6140   16.3400  193.8320 C.3   271  THR271      0.0375
    169  N         -3.4230    5.2940  195.0480 N.3   278  TYR278     -0.1241
    170  CA        -3.8450    5.7460  193.7250 C.3   278  TYR278      0.1605
    171  C         -3.3970    4.7700  192.6410 C.2   278  TYR278      0.2264
    172  O         -4.1720    4.4300  191.7370 O.2   278  TYR278     -0.2867
    173  CB        -3.2840    7.1410  193.4370 C.3   278  TYR278      0.0534
    174  CG        -3.9850    8.3250  194.0990 C.ar  278  TYR278     -0.0201
    175  CD1       -5.0750    8.1590  194.9580 C.ar  278  TYR278     -0.0009
    176  CD2       -3.5430    9.6200  193.8520 C.ar  278  TYR278     -0.0009
    177  CE1       -5.7030    9.2690  195.5450 C.ar  278  TYR278      0.0417
    178  CE2       -4.1590   10.7140  194.4130 C.ar  278  TYR278      0.0417
    179  CZ        -5.2270   10.5460  195.2620 C.ar  278  TYR278      0.1957
    180  OH        -5.7980   11.6810  195.8000 O.3   278  TYR278     -0.2866
    181  N         -1.6510   26.9140  185.7550 N.3   363  TYR363     -0.1241
    182  CA        -2.9260   26.4910  186.3180 C.3   363  TYR363      0.1605
    183  C         -3.7300   27.7520  186.6130 C.2   363  TYR363      0.2264
    184  O         -3.4220   28.4810  187.5610 O.2   363  TYR363     -0.2867
    185  CB        -2.7240   25.6400  187.5730 C.3   363  TYR363      0.0534
    186  CG        -3.9730   24.8850  188.0020 C.ar  363  TYR363     -0.0201
    187  CD1       -4.1860   23.5650  187.6020 C.ar  363  TYR363     -0.0009
    188  CD2       -4.9560   25.5010  188.7740 C.ar  363  TYR363     -0.0009
    189  CE1       -5.3350   22.8700  187.9800 C.ar  363  TYR363      0.0417
    190  CE2       -6.1110   24.8100  189.1600 C.ar  363  TYR363      0.0417
    191  CZ        -6.2960   23.4980  188.7520 C.ar  363  TYR363      0.1957
    192  OH        -7.4290   22.8060  189.1210 O.3   363  TYR363     -0.2866
@<TRIPOS>BOND
     1    24    23    2
     2    23    22    1
     3    13    12    2
     4    37    35    1
     5    22    21    1
     6    22    25    1
     7    35    34    1
     8    12    21   am
     9    12    11    1
    10   139   137   am
    11   138   137    2
    12    25    26    1
    13   137   136    1
    14    11    10    1
    15    11    14    1
    16    19    18    1
    17   136   133    1
    18    34    36    1
    19    34    31    1
    20    26    27    1
    21    15    14    1
    22    15    16    1
    23    20    18    1
    24    18    17    2
    25    29    27   ar
    26    30    31    1
    27    31    32    1
    28    27    28   ar
    29    17    16    1
    30   133   132    1
    31   133   134    1
    32   149   147   ar
    33   149   150   ar
    34   181   182    1
    35   147   145   ar
    36     4     3    2
    37   150   148   ar
    38   182   183    1
    39   182   185    1
    40   134   140   am
    41   134   135    2
    42    52    51    2
    43    32    33    2
    44    32    38   am
    45   183   184    2
    46    53    50    1
    47    53    54    1
    48   140   141    1
    49    44    38    1
    50    44    43    1
    51     3     2    1
    52    38    39    1
    53    50    51    1
    54    50    49    1
    55   145   144    1
    56   145   146   ar
    57    51    55   am
    58   185   186    1
    59   187   189   ar
    60   187   186   ar
    61   148   146   ar
    62     9     7   am
    63   189   191   ar
    64   186   188   ar
    65   144   141    1
    66   141   142    1
    67    43    42    1
    68    41    40    2
    69     2     1    1
    70     2     5    1
    71    59    60    1
    72    57    56    1
    73    57    58    2
    74    49    47   am
    75   191   192    1
    76   191   190   ar
    77    39    40    1
    78    39    42    1
    79    55    56    1
    80   188   190   ar
    81     7     6    1
    82     7     8    2
    83    48    47    2
    84     6     5    1
    85    40    45   am
    86    47    46    1
    87   142   151   am
    88   142   143    2
    89   151   152    1
    90   155   152    1
    91   155   156    1
    92    60    63    1
    93    60    61    1
    94    45    46    1
    95    62    61    2
    96    63    64    1
    97   152   153    1
    98   119   121   ar
    99   119   117   ar
   100   121   120   ar
   101    96    95    2
   102    61    67   am
   103   158   156   ar
   104   158   160   ar
   105   156   157   ar
   106   153   154    2
   107   117   116   ar
   108    99   100    1
   109    99    98    1
   110    71    72    1
   111    71    68    1
   112   160   161   ar
   113    74    73   ar
   114   157   159   ar
   115    67    68    1
   116   120   118   ar
   117    64    65    2
   118    64    66   am
   119    95    94    1
   120   172   171    2
   121    72    73    1
   122    97    94    1
   123    97    98    1
   124    94    93    1
   125    68    69    1
   126    73    75   ar
   127   161   159   ar
   128   116   118   ar
   129   116   115    1
   130   171   170    1
   131   173   170    1
   132   173   174    1
   133   115   112    1
   134    69    70    2
   135    69    76   am
   136   170   169    1
   137   168   166    1
   138   176   174   ar
   139   176   178   ar
   140   114   113    2
   141   174   175   ar
   142   112   113    1
   143   112   111    1
   144   178   179   ar
   145   167   166    1
   146   162   163    1
   147    76    77    1
   148    90    89    2
   149   175   177   ar
   150   166   163    1
   151   104   103    2
   152   179   177   ar
   153   179   180    1
   154   111   107   am
   155   101   102    1
   156   163   164    1
   157   108   107    2
   158    87    88    1
   159    87    78   am
   160    91    92    1
   161    91    88    1
   162    89    88    1
   163   107   106    1
   164    77    78    1
   165    77    80    1
   166   103   102    1
   167   103   105   am
   168    78    79    2
   169    83    85   ar
   170    83    81   ar
   171   164   165    2
   172    80    81    1
   173   106   105    1
   174   106   109    1
   175    85    86   ar
   176    81    82   ar
   177    86    84   ar
   178   110   109    1
   179    82    84   ar
   180   125   124    2
   181   129   131   ar
   182   129   127   ar
   183   131   130   ar
   184   127   126    1
   185   127   128   ar
   186   126   123    1
   187   124   123    1
   188   130   128   ar
   189   123   122    1
