@<TRIPOS>MOLECULE
tmp/5x66A01.pdb
 89 82 0 0 0
SMALL
GASTEIGER

@<TRIPOS>ATOM
      1  N        158.3860  140.7530   29.7950 N.3    62  GLU62      -0.1245
      2  CA       157.0370  140.9410   30.3630 C.3    62  GLU62       0.1567
      3  C        156.3590  139.5800   30.5710 C.2    62  GLU62       0.2260
      4  O        155.7760  139.3240   31.6410 O.2    62  GLU62      -0.2867
      5  CB       156.1340  141.8740   29.5180 C.3    62  GLU62       0.0388
      6  CG       154.7980  142.1570   30.1900 C.3    62  GLU62       0.1160
      7  CD       153.7620  142.7080   29.2560 C.2    62  GLU62       0.3649
      8  OE1      153.5150  142.0810   28.1970 O.co2  62  GLU62      -0.2457
      9  OE2      153.1830  143.7390   29.6400 O.co2  62  GLU62      -0.2457
     10  N        157.8000  149.4440   30.3460 N.3    83  ILE83      -0.1245
     11  CA       156.4440  149.6680   29.8210 C.3    83  ILE83       0.1561
     12  C        155.3690  149.7910   30.9060 C.2    83  ILE83       0.2260
     13  O        154.3340  150.4060   30.6850 O.2    83  ILE83      -0.2867
     14  CB       156.0730  148.6510   28.7270 C.3    83  ILE83       0.0252
     15  CG1      155.6740  147.3240   29.2820 C.3    83  ILE83       0.0019
     16  CG2      157.1920  148.5350   27.6920 C.3    83  ILE83       0.0019
     17  CD1      155.6180  146.1820   28.2810 C.3    83  ILE83       0.0001
     18  N        152.7300  153.4030   35.1120 N.3    87  ASN87      -0.1240
     19  CA       151.5490  152.9830   35.8160 C.3    87  ASN87       0.1653
     20  C        151.7760  152.5980   37.2700 C.2    87  ASN87       0.2266
     21  O        150.8270  152.4090   38.0060 O.2    87  ASN87      -0.2867
     22  CB       150.8260  151.8790   35.0790 C.3    87  ASN87       0.1155
     23  CG       150.2530  152.3470   33.7610 C.2    87  ASN87       0.2627
     24  OD1      150.6460  151.8930   32.7450 O.2    87  ASN87      -0.2716
     25  ND2      149.3850  153.2840   33.7890 N.am   87  ASN87      -0.0877
     26  N        145.5840  149.4710   36.0820 N.3   167  LEU167     -0.1245
     27  CA       144.8870  149.5370   34.8110 C.3   167  LEU167      0.1561
     28  C        144.0080  148.3100   34.6170 C.2   167  LEU167      0.2260
     29  O        144.4070  147.2500   35.0200 O.2   167  LEU167     -0.2867
     30  CB       145.8760  149.4950   33.6790 C.3   167  LEU167      0.0270
     31  CG       146.9160  150.5650   33.4940 C.3   167  LEU167      0.0019
     32  CD1      147.8380  150.1120   32.3900 C.3   167  LEU167      0.0001
     33  CD2      146.2210  151.8310   33.0890 C.3   167  LEU167      0.0001
     34  N        145.3150  149.3320   20.6100 N.3   193  ASP193     -0.1239
     35  CA       146.0450  150.4490   20.0150 C.3   193  ASP193      0.1674
     36  C        146.7780  149.8310   18.8570 C.2   193  ASP193      0.2266
     37  O        147.8160  149.1760   19.0310 O.2   193  ASP193     -0.2867
     38  CB       146.9760  151.0930   21.0570 C.3   193  ASP193      0.1410
     39  CG       147.8570  152.2400   20.4910 C.2   193  ASP193      0.3668
     40  OD1      148.0310  152.3680   19.2640 O.co2 193  ASP193     -0.2456
     41  OD2      148.4120  153.0270   21.3280 O.co2 193  ASP193     -0.2456
     42  N        150.3280  149.0450   20.4730 N.3   197  GLY197     -0.1225
     43  CA       150.0750  147.8790   21.3230 C.3   197  GLY197      0.1811
     44  C        150.0050  146.5410   20.5710 C.2   197  GLY197      0.2280
     45  O        150.6490  145.5690   20.9300 O.2   197  GLY197     -0.2866
     46  N        152.8620  144.0630   19.5480 N.3   200  PHE200     -0.1227
     47  CA       153.4760  143.5300   20.7660 C.3   200  PHE200      0.1736
     48  C        152.5850  142.4370   21.3460 C.2   200  PHE200      0.2595
     49  O        153.0590  141.3460   21.7110 O.2   200  PHE200     -0.2718
     50  CB       153.7130  144.7110   21.7360 C.3   200  PHE200      0.0547
     51  CG       154.4390  144.3710   23.0170 C.ar  200  PHE200     -0.0202
     52  CD1      153.7880  143.7000   24.0590 C.ar  200  PHE200     -0.0042
     53  CD2      155.7460  144.8360   23.2400 C.ar  200  PHE200     -0.0042
     54  CE1      154.4150  143.4250   25.2240 C.ar  200  PHE200     -0.0003
     55  CE2      156.3790  144.6140   24.4460 C.ar  200  PHE200     -0.0003
     56  CZ       155.7400  143.8870   25.4230 C.ar  200  PHE200     -0.0000
     57  N        151.2880  142.7400   21.4170 N.am  201  ASN201     -0.1974
     58  CA       150.3030  141.8050   21.9820 C.3   201  ASN201      0.1688
     59  C        150.2350  140.4660   21.1840 C.2   201  ASN201      0.2292
     60  O        150.1350  139.3520   21.7740 O.2   201  ASN201     -0.2864
     61  CB       148.9400  142.4800   22.0430 C.3   201  ASN201      0.1181
     62  CG       148.9290  143.7970   22.8570 C.2   201  ASN201      0.2629
     63  OD1      148.1690  144.7190   22.5680 O.2   201  ASN201     -0.2716
     64  ND2      149.7500  143.8700   23.8960 N.am  201  ASN201     -0.0877
     65  N        144.9350  155.8000   16.9130 N.3   233  TYR233     -0.1241
     66  CA       144.9820  157.1700   17.4390 C.3   233  TYR233      0.1605
     67  C        145.2220  158.1220   16.2520 C.2   233  TYR233      0.2264
     68  O        145.9670  157.8040   15.3240 O.2   233  TYR233     -0.2867
     69  CB       146.0550  157.3380   18.5310 C.3   233  TYR233      0.0534
     70  CG       145.5820  156.7210   19.8190 C.ar  233  TYR233     -0.0201
     71  CD1      144.7210  157.4340   20.6600 C.ar  233  TYR233     -0.0009
     72  CD2      145.9290  155.3870   20.1720 C.ar  233  TYR233     -0.0009
     73  CE1      144.2110  156.8740   21.8350 C.ar  233  TYR233      0.0417
     74  CE2      145.4480  154.8310   21.3250 C.ar  233  TYR233      0.0417
     75  CZ       144.5670  155.5700   22.1640 C.ar  233  TYR233      0.1957
     76  OH       144.0670  155.0310   23.3080 O.3   233  TYR233     -0.2866
     77  N        152.7680  157.7750   22.1710 N.3   286  MET286     -0.1230
     78  CA       151.6830  157.1570   22.9550 C.3   286  MET286      0.1702
     79  C        150.6960  158.1880   23.5430 C.2   286  MET286      0.2592
     80  O        151.1570  159.2130   24.0620 O.2   286  MET286     -0.2718
     81  CB       152.2520  156.3250   24.0890 C.3   286  MET286      0.0401
     82  CG       151.2270  155.2720   24.5710 C.3   286  MET286      0.0596
     83  SD       151.9470  154.1100   25.7070 S.3   286  MET286     -0.1393
     84  CE       151.9330  155.2440   27.1010 C.3   286  MET286      0.0692
     85  N        149.4050  157.8990   23.4770 N.am  287  ALA287     -0.1980
     86  CA       148.3910  158.6680   24.1520 C.3   287  ALA287      0.1597
     87  C        148.4810  158.6020   25.7130 C.2   287  ALA287      0.2287
     88  O        148.3100  157.5450   26.3280 O.2   287  ALA287     -0.2864
     89  CB       146.9570  158.2780   23.7220 C.3   287  ALA287      0.0319
@<TRIPOS>BOND
     1    68    67    2
     2    67    66    1
     3    65    66    1
     4    66    69    1
     5    69    70    1
     6    36    37    2
     7    36    35    1
     8    40    39   ar
     9    46    47    1
    10    70    72   ar
    11    70    71   ar
    12    35    34    1
    13    35    38    1
    14    72    74   ar
    15    42    43    1
    16    39    38    1
    17    39    41   ar
    18    44    45    2
    19    44    43    1
    20    71    73   ar
    21    47    48    1
    22    47    50    1
    23    59    60    2
    24    59    58    1
    25    74    75   ar
    26    48    57   am
    27    48    49    2
    28    57    58    1
    29    50    51    1
    30    73    75   ar
    31    58    61    1
    32    61    62    1
    33    75    76    1
    34    77    78    1
    35    63    62    2
    36    62    64   am
    37    78    79    1
    38    78    81    1
    39    51    53   ar
    40    51    52   ar
    41    53    55   ar
    42    85    79   am
    43    85    86    1
    44    79    80    2
    45    89    86    1
    46    52    54   ar
    47    81    82    1
    48    86    87    1
    49    55    56   ar
    50    82    83    1
    51    54    56   ar
    52    83    84    1
    53    87    88    2
    54    16    14    1
    55     8     7   ar
    56    17    15    1
    57    14    15    1
    58    14    11    1
    59     7     9   ar
    60     7     6    1
    61     5     6    1
    62     5     2    1
    63     1     2    1
    64    11    10    1
    65    11    12    1
    66     2     3    1
    67     3     4    2
    68    13    12    2
    69    32    31    1
    70    24    23    2
    71    33    31    1
    72    31    30    1
    73    30    27    1
    74    23    25   am
    75    23    22    1
    76    28    27    1
    77    28    29    2
    78    27    26    1
    79    22    19    1
    80    18    19    1
    81    19    20    1
    82    20    21    2
