@<TRIPOS>MOLECULE
tmp/5x67A01.pdb
 146 139 0 0 0
SMALL
GASTEIGER

@<TRIPOS>ATOM
      1  N         45.6960   22.4880   11.1890 N.3    23  ARG23      -0.1231
      2  CA        46.0470   22.0590   12.5310 C.3    23  ARG23       0.1694
      3  C         46.8320   20.7380   12.5160 C.2    23  ARG23       0.2592
      4  O         47.8440   20.6040   13.2160 O.2    23  ARG23      -0.2718
      5  CB        44.7290   21.8630   13.3400 C.3    23  ARG23       0.0321
      6  CG        44.8380   21.4410   14.7800 C.3    23  ARG23       0.0489
      7  CD        43.4790   21.1350   15.4490 C.3    23  ARG23       0.2205
      8  NE        42.6520   20.0770   14.8230 N.pl3  23  ARG23      -0.0865
      9  CZ        42.8030   18.7580   14.9710 C.cat  23  ARG23       0.5346
     10  NH1       43.7590   18.2390   15.7400 N.pl3  23  ARG23       0.1354
     11  NH2       42.0000   17.9220   14.3090 N.pl3  23  ARG23       0.1354
     12  N         46.3520   19.7650   11.7420 N.am   24  THR24      -0.1953
     13  CA        47.0230   18.4530   11.7250 C.3    24  THR24       0.1897
     14  C         48.4190   18.3990   11.0700 C.2    24  THR24       0.2313
     15  O         49.0770   17.4090   11.2350 O.2    24  THR24      -0.2863
     16  CB        46.1760   17.3590   11.0250 C.3    24  THR24       0.1794
     17  OG1       46.1660   17.5790    9.5960 O.3    24  THR24      -0.2208
     18  CG2       44.7050   17.2890   11.6480 C.3    24  THR24       0.0378
     19  N         30.5790    2.7960    7.1090 N.3    53  PHE53      -0.1241
     20  CA        30.6040    1.9740    8.3030 C.3    53  PHE53       0.1605
     21  C         29.3050    2.1300    9.1110 C.2    53  PHE53       0.2264
     22  O         29.2580    2.8860   10.0620 O.2    53  PHE53      -0.2867
     23  CB        31.8750    2.3490    9.1140 C.3    53  PHE53       0.0534
     24  CG        32.1170    1.5030   10.3210 C.ar   53  PHE53      -0.0203
     25  CD1       31.6630    0.1550   10.3960 C.ar   53  PHE53      -0.0042
     26  CD2       32.8430    2.0290   11.3840 C.ar   53  PHE53      -0.0042
     27  CE1       31.9610   -0.6290   11.5270 C.ar   53  PHE53      -0.0003
     28  CE2       33.1490    1.2470   12.5120 C.ar   53  PHE53      -0.0003
     29  CZ        32.6960   -0.0560   12.5850 C.ar   53  PHE53      -0.0000
     30  N         27.6580    5.0600   17.1760 N.3    60  GLU60      -0.1245
     31  CA        28.0330    6.4290   17.5770 C.3    60  GLU60       0.1567
     32  C         26.7770    7.2300   17.9560 C.2    60  GLU60       0.2260
     33  O         26.7800    7.9240   18.9590 O.2    60  GLU60      -0.2867
     34  CB        28.8620    7.1600   16.5210 C.3    60  GLU60       0.0388
     35  CG        29.3210    8.5270   16.9940 C.3    60  GLU60       0.1160
     36  CD        29.6910    9.4810   15.8940 C.2    60  GLU60       0.3649
     37  OE1       28.9110    9.5380   14.8590 O.co2  60  GLU60      -0.2457
     38  OE2       30.7660   10.1980   16.0650 O.co2  60  GLU60      -0.2457
     39  N         36.5540    5.1840   15.9690 N.3    81  ILE81      -0.1231
     40  CA        36.6600    6.5290   15.3300 C.3    81  ILE81       0.1692
     41  C         37.0820    7.6800   16.2550 C.2    81  ILE81       0.2592
     42  O         37.6760    8.6870   15.8110 O.2    81  ILE81      -0.2718
     43  CB        35.3740    6.8850   14.6030 C.3    81  ILE81       0.0266
     44  CG1       34.2050    7.0520   15.5870 C.3    81  ILE81       0.0019
     45  CG2       35.0620    5.7810   13.5790 C.3    81  ILE81       0.0020
     46  CD1       32.8260    7.3250   14.9540 C.3    81  ILE81       0.0001
     47  N         36.7800    7.5370   17.5280 N.am   82  TRP82      -0.1976
     48  CA        37.2080    8.4990   18.5170 C.3    82  TRP82       0.1640
     49  C         38.3970    8.1050   19.3320 C.2    82  TRP82       0.2290
     50  O         38.7950    8.8760   20.2150 O.2    82  TRP82      -0.2864
     51  CB        36.0680    8.8310   19.4520 C.3    82  TRP82       0.0576
     52  CG        35.0620    9.7090   18.8370 C.ar   82  TRP82       0.0006
     53  CD1       33.7640    9.3840   18.4470 C.ar   82  TRP82       0.0946
     54  CD2       35.2350   11.0980   18.5750 C.ar   82  TRP82       0.0152
     55  NE1       33.1440   10.5040   17.9440 N.ar   82  TRP82      -0.2442
     56  CE2       34.0110   11.5780   18.0220 C.ar   82  TRP82       0.0810
     57  CE3       36.3110   11.9790   18.7190 C.ar   82  TRP82       0.0012
     58  CZ2       33.8490   12.9390   17.5900 C.ar   82  TRP82       0.0191
     59  CZ3       36.1620   13.3460   18.3000 C.ar   82  TRP82       0.0001
     60  CH2       34.9370   13.8000   17.7250 C.ar   82  TRP82       0.0015
     61  N         41.5440   10.6610   19.1160 N.3    85  ASN85      -0.1240
     62  CA        41.3440   11.9240   19.8450 C.3    85  ASN85       0.1653
     63  C         41.1060   11.8160   21.3450 C.2    85  ASN85       0.2266
     64  O         41.0860   12.8570   22.0950 O.2    85  ASN85      -0.2867
     65  CB        40.3120   12.7910   19.1710 C.3    85  ASN85       0.1155
     66  CG        40.8190   13.3190   17.8320 C.2    85  ASN85       0.2627
     67  OD1       40.3480   12.9020   16.8170 O.2    85  ASN85      -0.2716
     68  ND2       41.8400   14.1930   17.8430 N.am   85  ASN85      -0.0877
     69  N         38.0240   17.7580   21.0880 N.3   165  LEU165     -0.1245
     70  CA        37.8190   18.2770   19.7760 C.3   165  LEU165      0.1561
     71  C         36.5090   19.0580   19.8450 C.2   165  LEU165      0.2260
     72  O         35.4680   18.5030   20.1870 O.2   165  LEU165     -0.2867
     73  CB        37.7080   17.1030   18.8080 C.3   165  LEU165      0.0270
     74  CG        38.1940   17.1210   17.3490 C.3   165  LEU165      0.0019
     75  CD1       37.1390   17.7750   16.4850 C.3   165  LEU165      0.0001
     76  CD2       39.5790   17.7500   17.1260 C.3   165  LEU165      0.0001
     77  N         32.5340   19.2790   15.3440 N.3   168  CYS168     -0.1235
     78  CA        32.4190   19.5750   13.9280 C.3   168  CYS168      0.1677
     79  C         30.9910   19.8950   13.5050 C.2   168  CYS168      0.2270
     80  O         30.7920   20.6660   12.5790 O.2   168  CYS168     -0.2867
     81  CB        32.9800   18.4470   13.0670 C.3   168  CYS168      0.0956
     82  SG        34.7540   18.3450   13.3280 S.3   168  CYS168     -0.0801
     83  N         35.7190   16.8730    6.7860 N.3   191  ASP191     -0.1239
     84  CA        36.7160   16.0090    6.1320 C.3   191  ASP191      0.1674
     85  C         35.9240   15.2640    5.0940 C.2   191  ASP191      0.2266
     86  O         35.2210   14.2940    5.3900 O.2   191  ASP191     -0.2867
     87  CB        37.3260   15.1050    7.1700 C.3   191  ASP191      0.1410
     88  CG        38.3100   14.0410    6.6130 C.2   191  ASP191      0.3668
     89  OD1       38.3650   13.7520    5.4250 O.co2 191  ASP191     -0.2456
     90  OD2       39.0200   13.4300    7.4550 O.co2 191  ASP191     -0.2456
     91  N         36.7760   11.2200    4.6310 N.3   194  LEU194     -0.1231
     92  CA        36.5780   10.2470    5.7250 C.3   194  LEU194      0.1693
     93  C         35.2820   10.4900    6.5380 C.2   194  LEU194      0.2592
     94  O         34.5270    9.6110    6.8140 O.2   194  LEU194     -0.2718
     95  CB        37.7910   10.2730    6.6010 C.3   194  LEU194      0.0284
     96  CG        37.9140    9.1680    7.6360 C.3   194  LEU194      0.0019
     97  CD1       37.8660    7.7770    7.0040 C.3   194  LEU194      0.0001
     98  CD2       39.2050    9.3650    8.4800 C.3   194  LEU194      0.0001
     99  N         35.0320   11.7030    6.9310 N.am  195  GLY195     -0.1957
    100  CA        33.9430   11.9950    7.8130 C.3   195  GLY195      0.1869
    101  C         32.5960   12.2710    7.2180 C.2   195  GLY195      0.2309
    102  O         31.6270   11.8540    7.7780 O.2   195  GLY195     -0.2863
    103  N         29.9070    9.4470    6.5480 N.3   198  PHE198     -0.1227
    104  CA        29.5040    8.9240    7.8160 C.3   198  PHE198      0.1736
    105  C         28.5960    9.9600    8.5270 C.2   198  PHE198      0.2595
    106  O         27.5640    9.5740    9.0540 O.2   198  PHE198     -0.2718
    107  CB        30.7630    8.6240    8.5760 C.3   198  PHE198      0.0547
    108  CG        30.5740    7.9890    9.9270 C.ar  198  PHE198     -0.0202
    109  CD1       30.2220    8.7460   11.0120 C.ar  198  PHE198     -0.0042
    110  CD2       30.8880    6.6300   10.1170 C.ar  198  PHE198     -0.0042
    111  CE1       30.1230    8.1680   12.2550 C.ar  198  PHE198     -0.0003
    112  CE2       30.8270    6.0480   11.3610 C.ar  198  PHE198     -0.0003
    113  CZ        30.4480    6.8120   12.4540 C.ar  198  PHE198     -0.0000
    114  N         28.9720   11.2350    8.5280 N.am  199  ASN199     -0.1974
    115  CA        28.1900   12.3480    9.1560 C.3   199  ASN199      0.1688
    116  C         26.7970   12.5150    8.5140 C.2   199  ASN199      0.2292
    117  O         25.7820   12.6930    9.2220 O.2   199  ASN199     -0.2864
    118  CB        28.9920   13.6860    9.0580 C.3   199  ASN199      0.1181
    119  CG        30.2990   13.6770    9.8610 C.2   199  ASN199      0.2629
    120  OD1       31.2560   14.3650    9.5440 O.2   199  ASN199     -0.2716
    121  ND2       30.3150   12.9260   10.9470 N.am  199  ASN199     -0.0877
    122  N         41.7790   16.2330    2.5140 N.3   231  TYR231     -0.1241
    123  CA        43.1580   16.1180    2.9240 C.3   231  TYR231      0.1605
    124  C         44.0100   15.6300    1.7190 C.2   231  TYR231      0.2264
    125  O         43.4980   14.8880    0.8480 O.2   231  TYR231     -0.2867
    126  CB        43.2790   15.1830    4.0950 C.3   231  TYR231      0.0534
    127  CG        42.8450   15.8170    5.4030 C.ar  231  TYR231     -0.0201
    128  CD1       43.6930   16.6740    6.0910 C.ar  231  TYR231     -0.0009
    129  CD2       41.6180   15.5130    5.9940 C.ar  231  TYR231     -0.0009
    130  CE1       43.3540   17.2130    7.3150 C.ar  231  TYR231      0.0417
    131  CE2       41.2720   16.0610    7.2130 C.ar  231  TYR231      0.0417
    132  CZ        42.1260   16.9280    7.8490 C.ar  231  TYR231      0.1957
    133  OH        41.7650   17.5090    9.0620 O.3   231  TYR231     -0.2866
    134  N         43.2610    8.7640    8.7740 N.3   284  MET284     -0.1230
    135  CA        42.7110    9.8160    9.5870 C.3   284  MET284      0.1702
    136  C         43.7980   10.8010   10.0040 C.2   284  MET284      0.2592
    137  O         44.7450   10.4280   10.6450 O.2   284  MET284     -0.2718
    138  CB        42.0280    9.2600   10.8290 C.3   284  MET284      0.0401
    139  CG        41.2600   10.3570   11.5640 C.3   284  MET284      0.0596
    140  SD        40.7530    9.9160   13.2220 S.3   284  MET284     -0.1393
    141  CE        39.3110    8.9440   12.8120 C.3   284  MET284      0.0692
    142  N         43.6340   12.0690    9.6770 N.am  285  ALA285     -0.1980
    143  CA        44.5030   13.1080   10.2280 C.3   285  ALA285      0.1597
    144  C         44.1510   13.4660   11.7030 C.2   285  ALA285      0.2287
    145  O         43.0100   13.8470   12.0020 O.2   285  ALA285     -0.2864
    146  CB        44.4530   14.3500    9.3500 C.3   285  ALA285      0.0319
@<TRIPOS>BOND
     1   125   124    2
     2   124   123    1
     3   122   123    1
     4   123   126    1
     5   126   127    1
     6    91    92    1
     7    85    86    2
     8    85    84    1
     9   127   129   ar
    10   127   128   ar
    11    89    88   ar
    12    92    93    1
    13    92    95    1
    14   129   131   ar
    15   128   130   ar
    16    84    83    1
    17    84    87    1
    18    93    94    2
    19    93    99   am
    20   103   104    1
    21    95    96    1
    22    88    87    1
    23    88    90   ar
    24    99   100    1
    25    97    96    1
    26    19    20    1
    27   131   132   ar
    28   101   102    2
    29   101   100    1
    30   130   132   ar
    31    96    98    1
    32   104   105    1
    33   104   107    1
    34   132   133    1
    35    20    21    1
    36    20    23    1
    37   116   115    1
    38   116   117    2
    39   105   114   am
    40   105   106    2
    41   114   115    1
    42   107   108    1
    43   134   135    1
    44   118   115    1
    45   118   119    1
    46    21    22    2
    47    23    24    1
    48   146   143    1
    49   120   119    2
    50   135   136    1
    51   135   138    1
    52    17    16    1
    53   142   136   am
    54   142   143    1
    55   119   121   am
    56   108   110   ar
    57   108   109   ar
    58   136   137    2
    59   110   112   ar
    60   143   144    1
    61    24    25   ar
    62    24    26   ar
    63    25    27   ar
    64   138   139    1
    65   109   111   ar
    66    16    18    1
    67    16    13    1
    68    14    15    2
    69    14    13    1
    70     1     2    1
    71   112   113   ar
    72    26    28   ar
    73    27    29   ar
    74   139   140    1
    75   144   145    2
    76    13    12    1
    77    12     3   am
    78   111   113   ar
    79    28    29   ar
    80     3     2    1
    81     3     4    2
    82     2     5    1
    83    80    79    2
    84   141   140    1
    85    81    82    1
    86    81    78    1
    87     5     6    1
    88    79    78    1
    89    45    43    1
    90    78    77    1
    91    11     9    1
    92    43    40    1
    93    43    44    1
    94     6     7    1
    95     8     9    2
    96     8     7    1
    97    37    36   ar
    98    46    44    1
    99     9    10    1
   100    40    39    1
   101    40    41    1
   102    42    41    2
   103    36    38   ar
   104    36    35    1
   105    41    47   am
   106    75    74    1
   107    34    35    1
   108    34    31    1
   109    67    66    2
   110    76    74    1
   111    30    31    1
   112    74    73    1
   113    47    48    1
   114    31    32    1
   115    58    60   ar
   116    58    56   ar
   117    60    59   ar
   118    66    68   am
   119    66    65    1
   120    55    56   ar
   121    55    53   ar
   122    32    33    2
   123    56    54   ar
   124    59    57   ar
   125    53    52   ar
   126    48    49    1
   127    48    51    1
   128    54    57   ar
   129    54    52   ar
   130    73    70    1
   131    52    51    1
   132    61    62    1
   133    65    62    1
   134    49    50    2
   135    70    71    1
   136    70    69    1
   137    62    63    1
   138    71    72    2
   139    63    64    2
