@<TRIPOS>MOLECULE
tmp/5x6cA00.pdb
 165 153 0 0 0
SMALL
GASTEIGER

@<TRIPOS>ATOM
      1  N          0.5820  -82.5140   -0.2550 N.3    93  ARG93      -0.1245
      2  CA         1.1550  -82.1360   -1.5240 C.3    93  ARG93       0.1563
      3  C          0.7130  -80.7760   -2.0260 C.2    93  ARG93       0.2260
      4  O          1.3220  -80.2360   -2.9260 O.2    93  ARG93      -0.2867
      5  CB         0.8260  -83.2430   -2.5280 C.3    93  ARG93       0.0307
      6  CG        -0.1180  -82.9000   -3.6210 C.3    93  ARG93       0.0489
      7  CD        -0.4260  -84.1240   -4.4480 C.3    93  ARG93       0.2205
      8  NE        -1.5460  -83.9050   -5.3490 N.pl3  93  ARG93      -0.0865
      9  CZ        -1.9990  -84.7920   -6.2190 C.cat  93  ARG93       0.5346
     10  NH1       -3.0200  -84.4850   -6.9820 N.pl3  93  ARG93       0.1354
     11  NH2       -1.4220  -85.9710   -6.3450 N.pl3  93  ARG93       0.1354
     12  N          2.7000  -78.2810   -6.9380 N.3   218  ARG218     -0.1245
     13  CA         2.8430  -79.3550   -5.9800 C.3   218  ARG218      0.1563
     14  C          3.9380  -79.0440   -4.9810 C.2   218  ARG218      0.2260
     15  O          4.9610  -78.4830   -5.3140 O.2   218  ARG218     -0.2867
     16  CB         3.1330  -80.6600   -6.6820 C.3   218  ARG218      0.0307
     17  CG         2.0730  -81.0420   -7.6670 C.3   218  ARG218      0.0489
     18  CD         1.8810  -82.5270   -7.7120 C.3   218  ARG218      0.2205
     19  NE         0.8810  -82.9260   -8.6830 N.pl3 218  ARG218     -0.0865
     20  CZ         0.6280  -84.1920   -8.9500 C.cat 218  ARG218      0.5346
     21  NH1       -0.2820  -84.5410   -9.8460 N.pl3 218  ARG218      0.1354
     22  NH2        1.3060  -85.1180   -8.3030 N.pl3 218  ARG218      0.1354
     23  N          6.6400  -80.6010   -3.2290 N.3   220  GLU220     -0.1245
     24  CA         7.3810  -81.8470   -3.2310 C.3   220  GLU220      0.1567
     25  C          8.6150  -81.8360   -2.3720 C.2   220  GLU220      0.2260
     26  O          9.0650  -80.7880   -1.9340 O.2   220  GLU220     -0.2867
     27  CB         7.7320  -82.2310   -4.6580 C.3   220  GLU220      0.0388
     28  CG         6.5610  -82.0440   -5.5650 C.3   220  GLU220      0.1160
     29  CD         6.5400  -83.0290   -6.6760 C.2   220  GLU220      0.3649
     30  OE1        7.1440  -82.7270   -7.7030 O.co2 220  GLU220     -0.2457
     31  OE2        5.9170  -84.0970   -6.5320 O.co2 220  GLU220     -0.2457
     32  N         13.0190  -84.1330  -13.1940 N.3   226  SER226     -0.1202
     33  CA        11.7090  -84.1320  -13.8410 C.3   226  SER226      0.2020
     34  C         10.5490  -83.5950  -12.9930 C.2   226  SER226      0.2619
     35  O          9.3990  -83.8330  -13.3360 O.2   226  SER226     -0.2717
     36  CB        11.3440  -85.5330  -14.3210 C.3   226  SER226      0.2103
     37  OG        11.3120  -86.4470  -13.2510 O.3   226  SER226     -0.2182
     38  N         10.8300  -82.8660  -11.9170 N.am  227  HIS227     -0.1961
     39  CA         9.7680  -82.3510  -11.0520 C.3   227  HIS227      0.1787
     40  C         10.0150  -80.9150  -10.6530 C.2   227  HIS227      0.2620
     41  O         11.1110  -80.5750  -10.2650 O.2   227  HIS227     -0.2715
     42  CB         9.6390  -83.1800   -9.7800 C.3   227  HIS227      0.0785
     43  CG         9.1080  -84.5580   -9.9990 C.ar  227  HIS227      0.0821
     44  ND1        9.8650  -85.5690  -10.5390 N.ar  227  HIS227     -0.2267
     45  CD2        7.8880  -85.0880   -9.7670 C.ar  227  HIS227      0.1154
     46  CE1        9.1400  -86.6680  -10.6190 C.ar  227  HIS227      0.1986
     47  NE2        7.9320  -86.3990  -10.1630 N.ar  227  HIS227     -0.2212
     48  N          9.0010  -80.0630  -10.7470 N.am  228  LEU228     -0.1977
     49  CA         9.1340  -78.6910  -10.2710 C.3   228  LEU228      0.1596
     50  C          8.0260  -78.3250   -9.3030 C.2   228  LEU228      0.2287
     51  O          6.9960  -78.9770   -9.2820 O.2   228  LEU228     -0.2864
     52  CB         9.1170  -77.7070  -11.4240 C.3   228  LEU228      0.0297
     53  CG        10.2380  -77.6940  -12.4400 C.3   228  LEU228      0.0022
     54  CD1        9.7250  -77.0380  -13.6910 C.3   228  LEU228      0.0001
     55  CD2       11.3910  -76.9360  -11.8820 C.3   228  LEU228      0.0001
     56  N          4.2460  -76.6360  -12.3400 N.3   231  TYR231     -0.1241
     57  CA         4.3040  -77.2010  -13.6760 C.3   231  TYR231      0.1605
     58  C          3.0700  -76.8650  -14.4860 C.2   231  TYR231      0.2264
     59  O          2.1560  -76.2680  -13.9780 O.2   231  TYR231     -0.2867
     60  CB         4.4880  -78.7080  -13.5920 C.3   231  TYR231      0.0534
     61  CG         3.2790  -79.5130  -13.1820 C.ar  231  TYR231     -0.0201
     62  CD1        2.4770  -80.1170  -14.1320 C.ar  231  TYR231     -0.0009
     63  CD2        2.9630  -79.7070  -11.8480 C.ar  231  TYR231     -0.0009
     64  CE1        1.3850  -80.8710  -13.7720 C.ar  231  TYR231      0.0417
     65  CE2        1.8710  -80.4590  -11.4770 C.ar  231  TYR231      0.0417
     66  CZ         1.0810  -81.0390  -12.4470 C.ar  231  TYR231      0.1957
     67  OH        -0.0190  -81.7990  -12.1110 O.3   231  TYR231     -0.2866
     68  N         -1.5570  -97.3680  -12.7810 N.3   269  ASP269     -0.1239
     69  CA        -0.9750  -96.5070  -11.7640 C.3   269  ASP269      0.1674
     70  C         -1.2800  -97.0990  -10.4060 C.2   269  ASP269      0.2266
     71  O         -2.4250  -97.1370   -9.9740 O.2   269  ASP269     -0.2867
     72  CB        -1.5120  -95.0780  -11.8790 C.3   269  ASP269      0.1410
     73  CG        -0.7500  -94.0830  -11.0220 C.2   269  ASP269      0.3668
     74  OD1       -0.7730  -92.8830  -11.3440 O.co2 269  ASP269     -0.2456
     75  OD2       -0.1230  -94.4880  -10.0280 O.co2 269  ASP269     -0.2456
     76  N         -1.0400  -96.1340   -7.5790 N.3   271  LYS271     -0.1245
     77  CA        -1.5610  -95.2470   -6.5530 C.3   271  LYS271      0.1561
     78  C         -3.0320  -95.4880   -6.3200 C.2   271  LYS271      0.2260
     79  O         -3.5010  -95.4810   -5.1880 O.2   271  LYS271     -0.2867
     80  CB        -1.3820  -93.7860   -6.9470 C.3   271  LYS271      0.0271
     81  CG         0.0230  -93.2640   -6.9850 C.3   271  LYS271      0.0035
     82  CD        -0.0060  -91.7680   -6.7400 C.3   271  LYS271      0.0206
     83  CE         0.8290  -90.9780   -7.7210 C.3   271  LYS271      0.1093
     84  NZ        -0.0200  -90.5270   -8.8480 N.3   271  LYS271     -0.1314
     85  N         -7.1420  -95.6640  -13.3820 N.3   281  GLN281     -0.1245
     86  CA        -6.0360  -94.7140  -13.3850 C.3   281  GLN281      0.1566
     87  C         -4.8650  -95.2920  -14.1370 C.2   281  GLN281      0.2260
     88  O         -4.3180  -96.2990  -13.7310 O.2   281  GLN281     -0.2867
     89  CB        -5.6130  -94.3410  -11.9720 C.3   281  GLN281      0.0367
     90  CG        -4.6610  -93.1850  -11.9650 C.3   281  GLN281      0.0905
     91  CD        -4.2760  -92.7350  -10.5860 C.2   281  GLN281      0.2608
     92  OE1       -4.4460  -93.4550   -9.6210 O.2   281  GLN281     -0.2717
     93  NE2       -3.7320  -91.5340  -10.4900 N.am  281  GLN281     -0.0878
     94  N         -1.1590  -94.7060  -16.5220 N.3   283  GLU283     -0.1245
     95  CA         0.0200  -93.9070  -16.8020 C.3   283  GLU283      0.1567
     96  C          0.3490  -94.0380  -18.2830 C.2   283  GLU283      0.2260
     97  O          0.1710  -95.1040  -18.8630 O.2   283  GLU283     -0.2867
     98  CB         1.2030  -94.3640  -15.9460 C.3   283  GLU283      0.0388
     99  CG         0.9990  -94.2220  -14.4470 C.3   283  GLU283      0.1160
    100  CD         2.2050  -94.6690  -13.6380 C.2   283  GLU283      0.3649
    101  OE1        2.9560  -95.5360  -14.1200 O.co2 283  GLU283     -0.2457
    102  OE2        2.3990  -94.1630  -12.5120 O.co2 283  GLU283     -0.2457
    103  N          7.3370  -90.6970  -18.0350 N.3   296  GLU296     -0.1231
    104  CA         5.8890  -90.5450  -17.8690 C.3   296  GLU296      0.1699
    105  C          5.4340  -89.2000  -18.3970 C.2   296  GLU296      0.2592
    106  O          5.7810  -88.1710  -17.8330 O.2   296  GLU296     -0.2718
    107  CB         5.4910  -90.6700  -16.3940 C.3   296  GLU296      0.0402
    108  CG         4.1140  -91.2880  -16.1290 C.3   296  GLU296      0.1161
    109  CD         3.4550  -90.7600  -14.8630 C.2   296  GLU296      0.3649
    110  OE1        3.5000  -89.5400  -14.6420 O.co2 296  GLU296     -0.2457
    111  OE2        2.8880  -91.5490  -14.0820 O.co2 296  GLU296     -0.2457
    112  N          4.6550  -89.1990  -19.4730 N.am  297  VAL297     -0.1966
    113  CA         4.2100  -87.9480  -20.0590 C.3   297  VAL297      0.1727
    114  C          2.8210  -87.5700  -19.5960 C.2   297  VAL297      0.2616
    115  O          2.5160  -86.4020  -19.4730 O.2   297  VAL297     -0.2715
    116  CB         4.2010  -88.0020  -21.5740 C.3   297  VAL297      0.0290
    117  CG1        5.5960  -87.9600  -22.0890 C.3   297  VAL297      0.0023
    118  CG2        3.5440  -89.2360  -22.0300 C.3   297  VAL297      0.0023
    119  N          1.9740  -88.5530  -19.3310 N.am  298  ALA298     -0.1963
    120  CA         0.5940  -88.2590  -18.9760 C.3   298  ALA298      0.1728
    121  C         -0.0120  -89.2750  -18.0390 C.2   298  ALA298      0.2616
    122  O          0.5450  -90.3350  -17.8260 O.2   298  ALA298     -0.2715
    123  CB        -0.2490  -88.1650  -20.2240 C.3   298  ALA298      0.0334
    124  N         -1.1700  -88.9300  -17.4950 N.am  299  THR299     -0.1951
    125  CA        -1.9400  -89.8050  -16.6280 C.3   299  THR299      0.1897
    126  C         -3.3790  -89.6140  -16.9870 C.2   299  THR299      0.2313
    127  O         -3.7740  -88.4940  -17.2160 O.2   299  THR299     -0.2863
    128  CB        -1.7310  -89.4660  -15.1770 C.3   299  THR299      0.1794
    129  OG1       -0.4220  -89.8840  -14.8020 O.3   299  THR299     -0.2208
    130  CG2       -2.6960  -90.2030  -14.3160 C.3   299  THR299      0.0378
    131  N         -4.3700  -85.8240  -18.1240 N.3   321  GLY321     -0.1225
    132  CA        -3.4700  -84.7240  -17.8680 C.3   321  GLY321      0.1811
    133  C         -2.0780  -85.0780  -18.3300 C.2   321  GLY321      0.2280
    134  O         -1.5140  -86.0700  -17.9010 O.2   321  GLY321     -0.2866
    135  N          1.8680  -83.7200  -18.7110 N.3   323  GLY323     -0.1225
    136  CA         2.7620  -82.7020  -18.1990 C.3   323  GLY323      0.1811
    137  C          3.5260  -82.0390  -19.3230 C.2   323  GLY323      0.2280
    138  O          4.2970  -82.6860  -20.0200 O.2   323  GLY323     -0.2866
    139  N          5.9660  -79.9470  -19.4170 N.3   325  GLU325     -0.1231
    140  CA         7.4050  -79.9530  -19.2920 C.3   325  GLU325      0.1699
    141  C          8.0160  -81.2950  -19.6550 C.2   325  GLU325      0.2592
    142  O          9.0900  -81.3370  -20.2340 O.2   325  GLU325     -0.2718
    143  CB         7.8130  -79.5490  -17.8830 C.3   325  GLU325      0.0402
    144  CG         7.6620  -78.0760  -17.6050 C.3   325  GLU325      0.1161
    145  CD         6.2640  -77.6890  -17.2410 C.2   325  GLU325      0.3649
    146  OE1        5.3840  -78.5500  -17.3270 O.co2 325  GLU325     -0.2457
    147  OE2        6.0460  -76.5270  -16.8580 O.co2 325  GLU325     -0.2457
    148  N          7.3520  -82.3890  -19.3150 N.am  326  ARG326     -0.1980
    149  CA         7.8620  -83.6950  -19.6860 C.3   326  ARG326      0.1597
    150  C          7.9420  -83.8300  -21.1970 C.2   326  ARG326      0.2287
    151  O          8.9950  -84.1410  -21.7670 O.2   326  ARG326     -0.2864
    152  CB         6.9850  -84.7820  -19.1060 C.3   326  ARG326      0.0334
    153  CG         6.9050  -84.7620  -17.6040 C.3   326  ARG326      0.0492
    154  CD         7.8630  -85.7390  -16.9820 C.3   326  ARG326      0.2205
    155  NE         8.0410  -85.4730  -15.5600 N.pl3 326  ARG326     -0.0865
    156  CZ         7.3940  -86.1280  -14.5990 C.cat 326  ARG326      0.5346
    157  NH1        7.6120  -85.8450  -13.3260 N.pl3 326  ARG326      0.1354
    158  NH2        6.5190  -87.0680  -14.9090 N.pl3 326  ARG326      0.1354
    159  N         14.4630  -80.7570  -16.3370 N.3   337  VAL337     -0.1245
    160  CA        13.4740  -79.6910  -16.4410 C.3   337  VAL337      0.1561
    161  C         13.9700  -78.3800  -15.9030 C.2   337  VAL337      0.2260
    162  O         13.6460  -77.3610  -16.4530 O.2   337  VAL337     -0.2867
    163  CB        12.1430  -79.9830  -15.7040 C.3   337  VAL337      0.0252
    164  CG1       11.3540  -81.0250  -16.4040 C.3   337  VAL337      0.0019
    165  CG2       12.3790  -80.3420  -14.2690 C.3   337  VAL337      0.0019
@<TRIPOS>BOND
     1   117   116    1
     2   118   116    1
     3   151   150    2
     4   116   113    1
     5   150   149    1
     6   142   141    2
     7   123   120    1
     8   113   114    1
     9   113   112    1
    10   138   137    2
    11   149   148    1
    12   149   152    1
    13   141   148   am
    14   141   140    1
    15   114   115    2
    16   114   119   am
    17   112   105   am
    18   139   140    1
    19   119   120    1
    20   137   136    1
    21   140   143    1
    22   152   153    1
    23   120   121    1
    24    97    96    2
    25   135   136    1
    26   105   104    1
    27   105   106    2
    28   133   134    2
    29   133   132    1
    30    96    95    1
    31   131   132    1
    32   121   122    2
    33   121   124   am
    34   103   104    1
    35   143   144    1
    36   104   107    1
    37   144   145    1
    38   153   154    1
    39   124   125    1
    40   146   145   ar
    41   145   147   ar
    42   127   126    2
    43   126   125    1
    44   154   155    1
    45    95    94    1
    46    95    98    1
    47   125   128    1
    48   162   161    2
    49   160   159    1
    50   160   161    1
    51   160   163    1
    52   164   163    1
    53   107   108    1
    54   108   109    1
    55    98    99    1
    56   163   165    1
    57   155   156    2
    58   128   129    1
    59   128   130    1
    60   158   156    1
    61   109   110   ar
    62   109   111   ar
    63   156   157    1
    64    58    59    2
    65    58    57    1
    66    99   100    1
    67    36    33    1
    68    36    37    1
    69    87    88    2
    70    87    86    1
    71    62    64   ar
    72    62    61   ar
    73   101   100   ar
    74    33    32    1
    75    33    34    1
    76    64    66   ar
    77    54    53    1
    78    57    60    1
    79    57    56    1
    80   100   102   ar
    81    60    61    1
    82    86    85    1
    83    86    89    1
    84    35    34    2
    85    61    63   ar
    86    34    38   am
    87    68    69    1
    88    66    67    1
    89    66    65   ar
    90    53    55    1
    91    53    52    1
    92    89    90    1
    93    90    91    1
    94    38    39    1
    95    72    69    1
    96    72    73    1
    97    63    65   ar
    98    69    70    1
    99    52    49    1
   100    74    73   ar
   101    39    40    1
   102    39    42    1
   103    73    75   ar
   104    48    40   am
   105    48    49    1
   106    40    41    2
   107    46    44   ar
   108    46    47   ar
   109    91    93   am
   110    91    92    2
   111    44    43   ar
   112    70    71    2
   113    49    50    1
   114    47    45   ar
   115    43    42    1
   116    43    45   ar
   117    21    20    1
   118    50    51    2
   119    20    19    2
   120    20    22    1
   121    84    83    1
   122    19    18    1
   123    83    82    1
   124    18    17    1
   125    30    29   ar
   126    17    16    1
   127    76    77    1
   128    81    80    1
   129    81    82    1
   130    10     9    1
   131    80    77    1
   132    12    13    1
   133    16    13    1
   134    29    31   ar
   135    29    28    1
   136    77    78    1
   137    11     9    1
   138    78    79    2
   139     9     8    2
   140    13    14    1
   141    28    27    1
   142     8     7    1
   143    15    14    2
   144    27    24    1
   145     7     6    1
   146     6     5    1
   147    24    23    1
   148    24    25    1
   149     4     3    2
   150     5     2    1
   151    25    26    2
   152     3     2    1
   153     2     1    1
