@<TRIPOS>MOLECULE
tmp/5x6qA02.pdb
 151 144 0 0 0
SMALL
GASTEIGER

@<TRIPOS>ATOM
      1  N         20.8160  -19.5570    7.8160 N.3    89  GLN89      -0.1245
      2  CA        20.9920  -19.9650    9.2090 C.3    89  GLN89       0.1566
      3  C         19.6200  -19.9870    9.9270 C.2    89  GLN89       0.2260
      4  O         19.1190  -18.9500   10.3570 O.2    89  GLN89      -0.2867
      5  CB        21.9760  -19.0160    9.8980 C.3    89  GLN89       0.0367
      6  CG        22.0780  -19.1430   11.4010 C.3    89  GLN89       0.0905
      7  CD        22.8860  -18.0110   12.0190 C.2    89  GLN89       0.2608
      8  OE1       23.4190  -17.1520   11.3120 O.2    89  GLN89      -0.2717
      9  NE2       22.9830  -18.0080   13.3440 N.am   89  GLN89      -0.0878
     10  N         23.2550   -3.8270   24.3370 N.3   356  GLU356     -0.1231
     11  CA        24.2360   -4.9050   24.3850 C.3   356  GLU356      0.1699
     12  C         24.3890   -5.5510   23.0130 C.2   356  GLU356      0.2592
     13  O         25.4900   -5.9280   22.6220 O.2   356  GLU356     -0.2718
     14  CB        23.8410   -5.9150   25.4550 C.3   356  GLU356      0.0402
     15  CG        23.8810   -5.2600   26.8500 C.3   356  GLU356      0.1161
     16  CD        23.7180   -6.2330   27.9800 C.2   356  GLU356      0.3649
     17  OE1       22.9550   -7.2070   27.8250 O.co2 356  GLU356     -0.2457
     18  OE2       24.3690   -6.0310   29.0280 O.co2 356  GLU356     -0.2457
     19  N         23.2920   -5.6410   22.2650 N.am  357  ASN357     -0.1974
     20  CA        23.3780   -6.0900   20.8840 C.3   357  ASN357      0.1688
     21  C         24.1450   -5.0790   20.0430 C.2   357  ASN357      0.2292
     22  O         25.0110   -5.4500   19.2460 O.2   357  ASN357     -0.2864
     23  CB        21.9870   -6.3150   20.2900 C.3   357  ASN357      0.1181
     24  CG        21.5370   -7.7550   20.3830 C.2   357  ASN357      0.2629
     25  OD1       21.9240   -8.4910   21.3010 O.2   357  ASN357     -0.2716
     26  ND2       20.7220   -8.1750   19.4170 N.am  357  ASN357     -0.0877
     27  N         28.1280   -4.9850   20.1810 N.3   360  GLU360     -0.1245
     28  CA        28.7870   -6.0590   19.4340 C.3   360  GLU360      0.1567
     29  C         29.1230   -5.6580   18.0010 C.2   360  GLU360      0.2260
     30  O         29.9520   -6.3060   17.3520 O.2   360  GLU360     -0.2867
     31  CB        27.9090   -7.3100   19.4120 C.3   360  GLU360      0.0388
     32  CG        27.2840   -7.6090   20.7440 C.3   360  GLU360      0.1160
     33  CD        26.8670   -9.0520   20.8960 C.2   360  GLU360      0.3649
     34  OE1       26.3820   -9.6550   19.9090 O.co2 360  GLU360     -0.2457
     35  OE2       27.0230   -9.5870   22.0150 O.co2 360  GLU360     -0.2457
     36  N         34.3250  -14.1720   26.1290 N.3   370  TYR370     -0.1241
     37  CA        32.9600  -14.0520   25.6410 C.3   370  TYR370      0.1605
     38  C         32.6080  -15.1840   24.6730 C.2   370  TYR370      0.2264
     39  O         31.4860  -15.7100   24.6810 O.2   370  TYR370     -0.2867
     40  CB        32.7770  -12.6830   24.9760 C.3   370  TYR370      0.0534
     41  CG        31.4700  -12.5100   24.2560 C.ar  370  TYR370     -0.0201
     42  CD1       31.3390  -12.8680   22.9170 C.ar  370  TYR370     -0.0009
     43  CD2       30.3640  -11.9810   24.9100 C.ar  370  TYR370     -0.0009
     44  CE1       30.1460  -12.7110   22.2550 C.ar  370  TYR370      0.0417
     45  CE2       29.1590  -11.8160   24.2530 C.ar  370  TYR370      0.0417
     46  CZ        29.0560  -12.1840   22.9260 C.ar  370  TYR370      0.1957
     47  OH        27.8640  -12.0240   22.2610 O.3   370  TYR370     -0.2866
     48  N         32.2560  -18.4770   26.6530 N.3   373  GLU373     -0.1231
     49  CA        30.9650  -18.3480   27.3350 C.3   373  GLU373      0.1699
     50  C         29.7850  -18.7330   26.4370 C.2   373  GLU373      0.2592
     51  O         28.8950  -19.4890   26.8360 O.2   373  GLU373     -0.2718
     52  CB        30.7570  -16.9160   27.8250 C.3   373  GLU373      0.0402
     53  CG        31.5520  -16.5290   29.0520 C.3   373  GLU373      0.1161
     54  CD        31.4050  -15.0460   29.3940 C.2   373  GLU373      0.3649
     55  OE1       31.1490  -14.2220   28.4830 O.co2 373  GLU373     -0.2457
     56  OE2       31.5490  -14.7000   30.5840 O.co2 373  GLU373     -0.2457
     57  N         29.7660  -18.1920   25.2270 N.am  374  ARG374     -0.1980
     58  CA        28.6080  -18.4020   24.3730 C.3   374  ARG374      0.1597
     59  C         28.5670  -19.8500   23.9070 C.2   374  ARG374      0.2287
     60  O         27.5090  -20.4810   23.8560 O.2   374  ARG374     -0.2864
     61  CB        28.6220  -17.4270   23.1980 C.3   374  ARG374      0.0334
     62  CG        27.6850  -16.2420   23.4320 C.3   374  ARG374      0.0492
     63  CD        27.7760  -15.1850   22.3370 C.3   374  ARG374      0.2205
     64  NE        27.4020  -15.6870   21.0200 N.pl3 374  ARG374     -0.0865
     65  CZ        27.0110  -14.9130   20.0130 C.cat 374  ARG374      0.5346
     66  NH1       26.6960  -15.4570   18.8490 N.pl3 374  ARG374      0.1354
     67  NH2       26.9320  -13.5950   20.1710 N.pl3 374  ARG374      0.1354
     68  N         27.4060  -21.8430   26.8380 N.3   377  GLY377     -0.1210
     69  CA        25.9790  -21.6160   26.9760 C.3   377  GLY377      0.1956
     70  C         25.1590  -22.4720   26.0210 C.2   377  GLY377      0.2611
     71  O         24.1140  -23.0040   26.3980 O.2   377  GLY377     -0.2717
     72  N         25.6490  -22.6180   24.7940 N.am  378  GLN378     -0.1979
     73  CA        24.9920  -23.4220   23.7710 C.3   378  GLN378      0.1601
     74  C         24.8590  -24.8850   24.2040 C.2   378  GLN378      0.2287
     75  O         23.8100  -25.5030   24.0400 O.2   378  GLN378     -0.2864
     76  CB        25.7760  -23.3290   22.4600 C.3   378  GLN378      0.0394
     77  CG        24.9290  -23.2730   21.2160 C.3   378  GLN378      0.0908
     78  CD        25.5370  -22.3800   20.1400 C.2   378  GLN378      0.2608
     79  OE1       26.7100  -22.0100   20.2170 O.2   378  GLN378     -0.2717
     80  NE2       24.7350  -22.0220   19.1370 N.am  378  GLN378     -0.0878
     81  N         18.1110  -23.6170   30.9280 N.3   388  PHE388     -0.1241
     82  CA        19.0750  -22.7300   30.3000 C.3   388  PHE388      0.1605
     83  C         18.5770  -22.3410   28.9270 C.2   388  PHE388      0.2264
     84  O         18.7540  -23.0820   27.9680 O.2   388  PHE388     -0.2867
     85  CB        20.4580  -23.3740   30.2010 C.3   388  PHE388      0.0534
     86  CG        21.5560  -22.3700   30.0380 C.ar  388  PHE388     -0.0203
     87  CD1       21.7660  -21.7530   28.8130 C.ar  388  PHE388     -0.0042
     88  CD2       22.3380  -22.0000   31.1190 C.ar  388  PHE388     -0.0042
     89  CE1       22.7600  -20.8070   28.6560 C.ar  388  PHE388     -0.0003
     90  CE2       23.3270  -21.0450   30.9720 C.ar  388  PHE388     -0.0003
     91  CZ        23.5360  -20.4450   29.7360 C.ar  388  PHE388     -0.0000
     92  N         18.9470  -19.3750   26.1380 N.3   390  PRO390     -0.2102
     93  CA        19.7600  -18.2300   25.7210 C.3   390  PRO390      0.1504
     94  C         18.9170  -16.9670   25.7250 C.2   390  PRO390      0.2576
     95  O         17.7500  -17.0220   25.2950 O.2   390  PRO390     -0.2718
     96  CB        20.1950  -18.6020   24.3030 C.3   390  PRO390      0.0282
     97  CG        20.1210  -20.0800   24.2700 C.3   390  PRO390      0.0208
     98  CD        18.9370  -20.4300   25.1100 C.3   390  PRO390      0.0893
     99  N         19.4860  -15.8630   26.2000 N.am  391  ARG391     -0.1966
    100  CA        18.6960  -14.6530   26.4180 C.3   391  ARG391      0.1729
    101  C         18.0160  -14.1230   25.1420 C.2   391  ARG391      0.2616
    102  O         16.8740  -13.6670   25.1920 O.2   391  ARG391     -0.2715
    103  CB        19.5430  -13.5410   27.0190 C.3   391  ARG391      0.0348
    104  CG        18.6810  -12.4250   27.5820 C.3   391  ARG391      0.0492
    105  CD        19.5180  -11.2870   28.1350 C.3   391  ARG391      0.2205
    106  NE        20.1820  -10.5570   27.0700 N.pl3 391  ARG391     -0.0865
    107  CZ        21.1230   -9.6460   27.2740 C.cat 391  ARG391      0.5346
    108  NH1       21.5090   -9.3540   28.5040 N.pl3 391  ARG391      0.1354
    109  NH2       21.6790   -9.0280   26.2460 N.pl3 391  ARG391      0.1354
    110  N         18.7220  -14.1820   24.0180 N.am  392  TYR392     -0.1974
    111  CA        18.1890  -13.6730   22.7550 C.3   392  TYR392      0.1639
    112  C         16.9350  -14.4460   22.3810 C.2   392  TYR392      0.2290
    113  O         16.0080  -13.9070   21.7900 O.2   392  TYR392     -0.2864
    114  CB        19.2280  -13.7760   21.6280 C.3   392  TYR392      0.0560
    115  CG        19.2570  -15.1300   20.9500 C.ar  392  TYR392     -0.0198
    116  CD1       20.0690  -16.1560   21.4380 C.ar  392  TYR392     -0.0009
    117  CD2       18.4720  -15.3940   19.8260 C.ar  392  TYR392     -0.0009
    118  CE1       20.0980  -17.4040   20.8320 C.ar  392  TYR392      0.0417
    119  CE2       18.4890  -16.6420   19.2200 C.ar  392  TYR392      0.0417
    120  CZ        19.3100  -17.6410   19.7260 C.ar  392  TYR392      0.1957
    121  OH        19.3420  -18.8820   19.1360 O.3   392  TYR392     -0.2866
    122  N         18.9180  -13.9780   32.2670 N.3   409  GLY409     -0.1225
    123  CA        20.1450  -13.8000   31.5010 C.3   409  GLY409      0.1811
    124  C         21.3310  -13.4380   32.3880 C.2   409  GLY409      0.2280
    125  O         22.4630  -13.8390   32.1170 O.2   409  GLY409     -0.2866
    126  N         22.3990  -16.5610   34.2380 N.3   412  GLN412     -0.1231
    127  CA        23.0550  -17.4210   33.2610 C.3   412  GLN412      0.1698
    128  C         24.4460  -16.9270   32.8320 C.2   412  GLN412      0.2592
    129  O         25.3970  -17.7170   32.7710 O.2   412  GLN412     -0.2718
    130  CB        22.1460  -17.5980   32.0180 C.3   412  GLN412      0.0381
    131  CG        20.8740  -18.4120   32.3320 C.3   412  GLN412      0.0905
    132  CD        19.8840  -18.5270   31.1760 C.2   412  GLN412      0.2608
    133  OE1       18.9330  -19.3120   31.2460 O.2   412  GLN412     -0.2717
    134  NE2       20.1000  -17.7560   30.1150 N.am  412  GLN412     -0.0878
    135  N         24.5780  -15.6380   32.5350 N.am  413  GLU413     -0.1979
    136  CA        25.8760  -15.1030   32.1230 C.3   413  GLU413      0.1602
    137  C         26.8880  -15.2480   33.2700 C.2   413  GLU413      0.2287
    138  O         28.0510  -15.5990   33.0420 O.2   413  GLU413     -0.2864
    139  CB        25.7730  -13.6380   31.6910 C.3   413  GLU413      0.0415
    140  CG        27.1160  -13.0710   31.2100 C.3   413  GLU413      0.1163
    141  CD        27.0550  -11.6120   30.7700 C.2   413  GLU413      0.3649
    142  OE1       25.9710  -10.9780   30.8850 O.co2 413  GLU413     -0.2457
    143  OE2       28.0990  -11.0940   30.3010 O.co2 413  GLU413     -0.2457
    144  N         28.0670  -18.8130   33.5060 N.3   416  LEU416     -0.1245
    145  CA        28.9920  -19.0590   32.4060 C.3   416  LEU416      0.1561
    146  C         30.3510  -18.4260   32.6710 C.2   416  LEU416      0.2260
    147  O         31.3870  -19.0340   32.3960 O.2   416  LEU416     -0.2867
    148  CB        28.4230  -18.5330   31.0810 C.3   416  LEU416      0.0270
    149  CG        27.2340  -19.3140   30.5080 C.3   416  LEU416      0.0019
    150  CD1       26.7280  -18.6460   29.2310 C.3   416  LEU416      0.0001
    151  CD2       27.5870  -20.7750   30.2370 C.3   416  LEU416      0.0001
@<TRIPOS>BOND
     1     1     2    1
     2     2     5    1
     3     2     3    1
     4     5     6    1
     5     3     4    2
     6     8     7    2
     7     6     7    1
     8     7     9   am
     9    30    29    2
    10    29    28    1
    11    66    65    1
    12   121   120    1
    13    80    78   am
    14   119   120   ar
    15   119   117   ar
    16    22    21    2
    17    31    28    1
    18    31    32    1
    19    26    24   am
    20    28    27    1
    21   120   118   ar
    22   117   115   ar
    23    34    33   ar
    24    65    67    1
    25    65    64    2
    26    21    20    1
    27    78    79    2
    28    78    77    1
    29    23    24    1
    30    23    20    1
    31    24    25    2
    32    32    33    1
    33   118   116   ar
    34    20    19    1
    35    33    35   ar
    36   115   116   ar
    37   115   114    1
    38    64    63    1
    39    77    76    1
    40   114   111    1
    41   113   112    2
    42    44    42   ar
    43    44    46   ar
    44    47    46    1
    45    19    12   am
    46    63    62    1
    47   112   111    1
    48    76    73    1
    49    13    12    2
    50   111   110    1
    51    42    41   ar
    52    46    45   ar
    53    12    11    1
    54    61    62    1
    55    61    58    1
    56    73    74    1
    57    73    72    1
    58    60    59    2
    59    59    58    1
    60   110   101   am
    61    75    74    2
    62    45    43   ar
    63    41    43   ar
    64    41    40    1
    65    97    96    1
    66    97    98    1
    67    96    93    1
    68    10    11    1
    69    58    57    1
    70    11    14    1
    71    38    39    2
    72    38    37    1
    73    72    70   am
    74    40    37    1
    75    98    92    1
    76   101   102    2
    77   101   100    1
    78    57    50   am
    79    95    94    2
    80    14    15    1
    81    37    36    1
    82    93    94    1
    83    93    92    1
    84    94    99   am
    85    70    71    2
    86    70    69    1
    87    99   100    1
    88   109   107    1
    89   100   103    1
    90    50    51    2
    91    50    49    1
    92    48    49    1
    93    68    69    1
    94    15    16    1
    95   103   104    1
    96   106   107    2
    97   106   105    1
    98   107   108    1
    99    49    52    1
   100   104   105    1
   101    52    53    1
   102    17    16   ar
   103    84    83    2
   104    16    18   ar
   105    55    54   ar
   106    89    87   ar
   107    89    91   ar
   108    87    86   ar
   109    83    82    1
   110    53    54    1
   111   150   149    1
   112    54    56   ar
   113    91    90   ar
   114    86    85    1
   115    86    88   ar
   116   134   132   am
   117    85    82    1
   118   151   149    1
   119    82    81    1
   120   143   141   ar
   121   149   148    1
   122   141   142   ar
   123   141   140    1
   124    90    88   ar
   125   148   145    1
   126   132   133    2
   127   132   131    1
   128   140   139    1
   129   123   122    1
   130   123   124    1
   131   139   136    1
   132   130   131    1
   133   130   127    1
   134   125   124    2
   135   136   135    1
   136   136   137    1
   137   147   146    2
   138   145   146    1
   139   145   144    1
   140   135   128   am
   141   129   128    2
   142   128   127    1
   143   138   137    2
   144   127   126    1
