@<TRIPOS>MOLECULE
tmp/5x6qA01.pdb
 208 200 0 0 0
SMALL
GASTEIGER

@<TRIPOS>ATOM
      1  N         10.2770   -1.9440    6.3870 N.3    47  ASN47      -0.1225
      2  CA         9.8180   -3.2270    6.8910 C.3    47  ASN47       0.1785
      3  C         10.3740   -3.4850    8.3010 C.2    47  ASN47       0.2597
      4  O         11.5360   -3.2060    8.5590 O.2    47  ASN47      -0.2718
      5  CB        10.2240   -4.3020    5.8990 C.3    47  ASN47       0.1169
      6  CG         9.6510   -4.0150    4.5290 C.2    47  ASN47       0.2627
      7  OD1        8.4430   -3.8450    4.3960 O.2    47  ASN47      -0.2716
      8  ND2       10.5100   -3.8800    3.5240 N.am   47  ASN47      -0.0877
      9  N          9.5190   -3.9700    9.1970 N.am   48  LEU48      -0.1966
     10  CA         9.8570   -4.1590   10.6100 C.3    48  LEU48       0.1728
     11  C          9.7720   -5.6330   10.9940 C.2    48  LEU48       0.2616
     12  O          8.9050   -6.3620   10.4780 O.2    48  LEU48      -0.2715
     13  CB         8.9040   -3.3470   11.4850 C.3    48  LEU48       0.0311
     14  CG         8.9880   -1.8440   11.2520 C.3    48  LEU48       0.0022
     15  CD1        7.8580   -1.1100   11.9870 C.3    48  LEU48       0.0001
     16  CD2       10.3310   -1.3780   11.7160 C.3    48  LEU48       0.0001
     17  N         10.6520   -6.0810   11.8860 N.am   49  ALA49      -0.1977
     18  CA        10.5560   -7.4590   12.3690 C.3    49  ALA49       0.1597
     19  C          9.4820   -7.5410   13.4520 C.2    49  ALA49       0.2287
     20  O          9.5800   -6.8850   14.4900 O.2    49  ALA49      -0.2864
     21  CB        11.9250   -7.9530   12.9190 C.3    49  ALA49       0.0319
     22  N         18.3330  -16.3490    9.1540 N.3    77  ARG77      -0.1245
     23  CA        19.1590  -15.2230    8.7420 C.3    77  ARG77       0.1563
     24  C         20.1030  -15.6430    7.6590 C.2    77  ARG77       0.2260
     25  O         20.6050  -16.7620    7.6620 O.2    77  ARG77      -0.2867
     26  CB        19.9600  -14.6660    9.9080 C.3    77  ARG77       0.0307
     27  CG        19.0930  -14.2640   11.0410 C.3    77  ARG77       0.0489
     28  CD        19.7550  -13.2120   11.8980 C.3    77  ARG77       0.2205
     29  NE        18.8180  -12.7370   12.8990 N.pl3  77  ARG77      -0.0865
     30  CZ        18.9520  -11.5880   13.5410 C.cat  77  ARG77       0.5346
     31  NH1       19.9910  -10.8000   13.3030 N.pl3  77  ARG77       0.1354
     32  NH2       18.0360  -11.2320   14.4220 N.pl3  77  ARG77       0.1354
     33  N         20.8160  -19.5570    7.8160 N.3    89  GLN89      -0.1231
     34  CA        20.9920  -19.9650    9.2090 C.3    89  GLN89       0.1683
     35  C         19.6200  -19.9870    9.9270 C.2    89  GLN89       0.2434
     36  O         19.1190  -18.9500   10.3570 O.2    89  GLN89      -0.2733
     37  CB        21.9760  -19.0160    9.8980 C.3    89  GLN89       0.0380
     38  CG        22.0780  -19.1430   11.4010 C.3    89  GLN89       0.0905
     39  CD        22.8860  -18.0110   12.0190 C.2    89  GLN89       0.2608
     40  OE1       23.4190  -17.1520   11.3120 O.2    89  GLN89      -0.2717
     41  NE2       22.9830  -18.0080   13.3440 N.am   89  GLN89      -0.0878
     42  N         19.0000  -21.1770   10.0400 N.am   90  PRO90      -0.2718
     43  CA        17.6120  -21.3030   10.5140 C.3    90  PRO90       0.1535
     44  C         17.3860  -20.8260   11.9490 C.2    90  PRO90       0.2598
     45  O         18.2730  -20.9490   12.7960 O.2    90  PRO90      -0.2715
     46  CB        17.3360  -22.8080   10.4030 C.3    90  PRO90       0.0310
     47  CG        18.3720  -23.3180    9.4310 C.3    90  PRO90       0.0237
     48  CD        19.5810  -22.4840    9.6960 C.3    90  PRO90       0.0939
     49  N         16.2040  -20.2710   12.2070 N.am   91  TYR91      -0.1974
     50  CA        15.8510  -19.8070   13.5430 C.3    91  TYR91       0.1639
     51  C         15.5140  -20.9820   14.4580 C.2    91  TYR91       0.2290
     52  O         15.8000  -20.9380   15.6570 O.2    91  TYR91      -0.2864
     53  CB        14.6730  -18.8360   13.4900 C.3    91  TYR91       0.0560
     54  CG        15.0290  -17.4360   13.0280 C.ar   91  TYR91      -0.0198
     55  CD1       16.1860  -16.8000   13.4820 C.ar   91  TYR91      -0.0009
     56  CD2       14.2020  -16.7480   12.1460 C.ar   91  TYR91      -0.0009
     57  CE1       16.5120  -15.5200   13.0700 C.ar   91  TYR91       0.0417
     58  CE2       14.5140  -15.4670   11.7250 C.ar   91  TYR91       0.0417
     59  CZ        15.6700  -14.8560   12.1840 C.ar   91  TYR91       0.1957
     60  OH        15.9730  -13.5810   11.7580 O.3    91  TYR91      -0.2866
     61  N         10.3650  -15.1230   12.5370 N.3    94  ILE94      -0.1245
     62  CA        10.1740  -13.6940   12.7150 C.3    94  ILE94       0.1561
     63  C          9.4150  -13.2010   11.4820 C.2    94  ILE94       0.2260
     64  O          9.7560  -13.5940   10.3810 O.2    94  ILE94      -0.2867
     65  CB        11.5130  -12.9600   12.8400 C.3    94  ILE94       0.0252
     66  CG1       12.3220  -13.5320   13.9990 C.3    94  ILE94       0.0019
     67  CG2       11.3030  -11.4820   13.0450 C.3    94  ILE94       0.0019
     68  CD1       13.6600  -12.8300   14.1870 C.3    94  ILE94       0.0001
     69  N         15.8230  -12.9070    6.8100 N.3   201  LEU201     -0.1245
     70  CA        16.4090  -11.6410    7.2220 C.3   201  LEU201      0.1561
     71  C         17.8650  -11.6310    6.7260 C.2   201  LEU201      0.2260
     72  O         18.5820  -12.6080    6.9130 O.2   201  LEU201     -0.2867
     73  CB        16.3040  -11.5040    8.7500 C.3   201  LEU201      0.0270
     74  CG        16.7770  -10.2210    9.4360 C.3   201  LEU201      0.0019
     75  CD1       16.0720  -10.0610   10.7850 C.3   201  LEU201      0.0001
     76  CD2       18.2830  -10.2770    9.6470 C.3   201  LEU201      0.0001
     77  N         21.8200   -9.9900    6.4560 N.3   203  ILE203     -0.1245
     78  CA        22.8000   -9.1720    7.1640 C.3   203  ILE203      0.1561
     79  C         24.1300   -9.1060    6.4030 C.2   203  ILE203      0.2260
     80  O         24.6080  -10.1180    5.8900 O.2   203  ILE203     -0.2867
     81  CB        23.0670   -9.7100    8.5840 C.3   203  ILE203      0.0252
     82  CG1       21.8040   -9.6490    9.4290 C.3   203  ILE203      0.0019
     83  CG2       24.1560   -8.8740    9.2730 C.3   203  ILE203      0.0019
     84  CD1       21.8430  -10.5570   10.6340 C.3   203  ILE203      0.0001
     85  N         21.5630   -4.2340    7.2190 N.3   212  ILE212     -0.1245
     86  CA        20.5380   -5.2470    7.4790 C.3   212  ILE212      0.1561
     87  C         19.3950   -4.9980    6.5020 C.2   212  ILE212      0.2260
     88  O         19.0940   -3.8440    6.2130 O.2   212  ILE212     -0.2867
     89  CB        20.0230   -5.1700    8.9260 C.3   212  ILE212      0.0252
     90  CG1       21.1490   -5.4720    9.9070 C.3   212  ILE212      0.0019
     91  CG2       18.8930   -6.1580    9.1710 C.3   212  ILE212      0.0019
     92  CD1       20.7080   -5.4350   11.3620 C.3   212  ILE212      0.0001
     93  N         15.3050   -6.1890    5.2980 N.3   214  LEU214     -0.1245
     94  CA        14.0830   -6.9450    5.5710 C.3   214  LEU214      0.1561
     95  C         13.1590   -6.9200    4.3470 C.2   214  LEU214      0.2260
     96  O         13.0400   -5.9180    3.6690 O.2   214  LEU214     -0.2867
     97  CB        13.3360   -6.3840    6.7840 C.3   214  LEU214      0.0270
     98  CG        13.7700   -6.9000    8.1640 C.3   214  LEU214      0.0019
     99  CD1       15.1320   -6.3330    8.5310 C.3   214  LEU214      0.0001
    100  CD2       12.7350   -6.5230    9.2260 C.3   214  LEU214      0.0001
    101  N         19.0590   -1.0360    5.9520 N.3   224  THR224     -0.1218
    102  CA        19.5200   -0.0100    6.8770 C.3   224  THR224      0.1862
    103  C         21.0310   -0.1310    6.9910 C.2   224  THR224      0.2287
    104  O         21.5450   -1.2220    7.2710 O.2   224  THR224     -0.2866
    105  CB        18.8880   -0.1510    8.2580 C.3   224  THR224      0.1770
    106  OG1       17.4560   -0.1840    8.1310 O.3   224  THR224     -0.2211
    107  CG2       19.3030    1.0440    9.1560 C.3   224  THR224      0.0375
    108  N         24.1800    1.0490    9.1740 N.3   226  PHE226     -0.1241
    109  CA        24.6140    1.5830   10.4530 C.3   226  PHE226      0.1605
    110  C         26.0840    1.9610   10.3300 C.2   226  PHE226      0.2264
    111  O         26.8970    1.1220    9.9680 O.2   226  PHE226     -0.2867
    112  CB        24.4010    0.5600   11.5540 C.3   226  PHE226      0.0534
    113  CG        22.9510    0.3220   11.8840 C.ar  226  PHE226     -0.0203
    114  CD1       22.2390    1.2510   12.6270 C.ar  226  PHE226     -0.0042
    115  CD2       22.3140   -0.8340   11.4690 C.ar  226  PHE226     -0.0042
    116  CE1       20.8960    1.0450   12.9470 C.ar  226  PHE226     -0.0003
    117  CE2       20.9560   -1.0510   11.7790 C.ar  226  PHE226     -0.0003
    118  CZ        20.2590   -0.1170   12.5200 C.ar  226  PHE226     -0.0000
    119  N         17.8890    0.6910   17.7510 N.3   306  PRO306     -0.2102
    120  CA        17.1440   -0.3690   17.0590 C.3   306  PRO306      0.1504
    121  C         18.0210   -1.5680   16.7730 C.2   306  PRO306      0.2576
    122  O         18.3210   -1.8020   15.6010 O.2   306  PRO306     -0.2718
    123  CB        16.7190    0.3050   15.7620 C.3   306  PRO306      0.0282
    124  CG        17.8410    1.3020   15.4830 C.3   306  PRO306      0.0208
    125  CD        18.4070    1.7180   16.8370 C.3   306  PRO306      0.0893
    126  N         18.4530   -2.2980   17.7970 N.am  307  PHE307     -0.1963
    127  CA        19.3700   -3.3970   17.5550 C.3   307  PHE307      0.1771
    128  C         18.9540   -4.7730   18.0400 C.2   307  PHE307      0.2620
    129  O         19.6990   -5.7370   17.8790 O.2   307  PHE307     -0.2715
    130  CB        20.7250   -3.0550   18.1480 C.3   307  PHE307      0.0574
    131  CG        21.6460   -2.4650   17.1410 C.ar  307  PHE307     -0.0200
    132  CD1       21.6170   -1.1130   16.8800 C.ar  307  PHE307     -0.0042
    133  CD2       22.4780   -3.2800   16.3920 C.ar  307  PHE307     -0.0042
    134  CE1       22.4440   -0.5650   15.9270 C.ar  307  PHE307     -0.0003
    135  CE2       23.3150   -2.7380   15.4400 C.ar  307  PHE307     -0.0003
    136  CZ        23.2910   -1.3740   15.2080 C.ar  307  PHE307     -0.0000
    137  N         17.7850   -4.8850   18.6290 N.am  308  HIS308     -0.1959
    138  CA        17.2990   -6.2100   18.9950 C.3   308  HIS308      0.1787
    139  C         16.0020   -6.4490   18.2430 C.2   308  HIS308      0.2620
    140  O         15.3440   -7.4560   18.4430 O.2   308  HIS308     -0.2715
    141  CB        17.0860   -6.3070   20.5060 C.3   308  HIS308      0.0785
    142  CG        17.3050   -7.6780   21.0780 C.ar  308  HIS308      0.0821
    143  ND1       16.7230   -8.8130   20.5530 N.ar  308  HIS308     -0.2267
    144  CD2       18.0080   -8.0860   22.1650 C.ar  308  HIS308      0.1154
    145  CE1       17.0760   -9.8620   21.2760 C.ar  308  HIS308      0.1986
    146  NE2       17.8540   -9.4480   22.2620 N.ar  308  HIS308     -0.2212
    147  N         15.6380   -5.4810   17.4030 N.am  309  GLY309     -0.1954
    148  CA        14.4180   -5.5740   16.6100 C.3   309  GLY309      0.1869
    149  C         13.1740   -5.6810   17.4720 C.2   309  GLY309      0.2309
    150  O         12.2820   -6.4780   17.1870 O.2   309  GLY309     -0.2863
    151  N         23.2920   -5.6410   22.2650 N.3   357  ASN357     -0.1240
    152  CA        23.3780   -6.0900   20.8840 C.3   357  ASN357      0.1653
    153  C         24.1450   -5.0790   20.0430 C.2   357  ASN357      0.2266
    154  O         25.0110   -5.4500   19.2460 O.2   357  ASN357     -0.2867
    155  CB        21.9870   -6.3150   20.2900 C.3   357  ASN357      0.1155
    156  CG        21.5370   -7.7550   20.3830 C.2   357  ASN357      0.2627
    157  OD1       21.9240   -8.4910   21.3010 O.2   357  ASN357     -0.2716
    158  ND2       20.7220   -8.1750   19.4170 N.am  357  ASN357     -0.0877
    159  N         28.1280   -4.9850   20.1810 N.3   360  GLU360     -0.1245
    160  CA        28.7870   -6.0590   19.4340 C.3   360  GLU360      0.1567
    161  C         29.1230   -5.6580   18.0010 C.2   360  GLU360      0.2260
    162  O         29.9520   -6.3060   17.3520 O.2   360  GLU360     -0.2867
    163  CB        27.9090   -7.3100   19.4120 C.3   360  GLU360      0.0388
    164  CG        27.2840   -7.6090   20.7440 C.3   360  GLU360      0.1160
    165  CD        26.8670   -9.0520   20.8960 C.2   360  GLU360      0.3649
    166  OE1       26.3820   -9.6550   19.9090 O.co2 360  GLU360     -0.2457
    167  OE2       27.0230   -9.5870   22.0150 O.co2 360  GLU360     -0.2457
    168  N         29.7660  -18.1920   25.2270 N.3   374  ARG374     -0.1245
    169  CA        28.6080  -18.4020   24.3730 C.3   374  ARG374      0.1563
    170  C         28.5670  -19.8500   23.9070 C.2   374  ARG374      0.2260
    171  O         27.5090  -20.4810   23.8560 O.2   374  ARG374     -0.2867
    172  CB        28.6220  -17.4270   23.1980 C.3   374  ARG374      0.0307
    173  CG        27.6850  -16.2420   23.4320 C.3   374  ARG374      0.0489
    174  CD        27.7760  -15.1850   22.3370 C.3   374  ARG374      0.2205
    175  NE        27.4020  -15.6870   21.0200 N.pl3 374  ARG374     -0.0865
    176  CZ        27.0110  -14.9130   20.0130 C.cat 374  ARG374      0.5346
    177  NH1       26.6960  -15.4570   18.8490 N.pl3 374  ARG374      0.1354
    178  NH2       26.9320  -13.5950   20.1710 N.pl3 374  ARG374      0.1354
    179  N         18.7220  -14.1820   24.0180 N.3   392  TYR392     -0.1241
    180  CA        18.1890  -13.6730   22.7550 C.3   392  TYR392      0.1605
    181  C         16.9350  -14.4460   22.3810 C.2   392  TYR392      0.2264
    182  O         16.0080  -13.9070   21.7900 O.2   392  TYR392     -0.2867
    183  CB        19.2280  -13.7760   21.6280 C.3   392  TYR392      0.0534
    184  CG        19.2570  -15.1300   20.9500 C.ar  392  TYR392     -0.0201
    185  CD1       20.0690  -16.1560   21.4380 C.ar  392  TYR392     -0.0009
    186  CD2       18.4720  -15.3940   19.8260 C.ar  392  TYR392     -0.0009
    187  CE1       20.0980  -17.4040   20.8320 C.ar  392  TYR392      0.0417
    188  CE2       18.4890  -16.6420   19.2200 C.ar  392  TYR392      0.0417
    189  CZ        19.3100  -17.6410   19.7260 C.ar  392  TYR392      0.1957
    190  OH        19.3420  -18.8820   19.1360 O.3   392  TYR392     -0.2866
    191  N         13.3800  -12.7150   21.8030 N.3   396  THR396     -0.1203
    192  CA        12.8550  -12.7130   20.4450 C.3   396  THR396      0.1994
    193  C         11.8020  -13.7820   20.2060 C.2   396  THR396      0.2617
    194  O         10.8710  -13.5590   19.4330 O.2   396  THR396     -0.2717
    195  CB        14.0110  -12.8580   19.4370 C.3   396  THR396      0.1784
    196  OG1       14.8520  -11.7130   19.5640 O.3   396  THR396     -0.2211
    197  CG2       13.4980  -12.9380   17.9850 C.3   396  THR396      0.0376
    198  N         11.9110  -14.9260   20.8820 N.am  397  PHE397     -0.1975
    199  CA        11.0450  -16.0440   20.5590 C.3   397  PHE397      0.1639
    200  C         10.1510  -16.5220   21.7040 C.2   397  PHE397      0.2290
    201  O          9.6060  -17.6180   21.6530 O.2   397  PHE397     -0.2864
    202  CB        11.8960  -17.1960   20.0140 C.3   397  PHE397      0.0560
    203  CG        12.5640  -16.8710   18.7030 C.ar  397  PHE397     -0.0200
    204  CD1       11.8170  -16.7830   17.5300 C.ar  397  PHE397     -0.0042
    205  CD2       13.9220  -16.6360   18.6360 C.ar  397  PHE397     -0.0042
    206  CE1       12.4260  -16.4690   16.3180 C.ar  397  PHE397     -0.0003
    207  CE2       14.5390  -16.3300   17.4250 C.ar  397  PHE397     -0.0003
    208  CZ        13.7890  -16.2440   16.2660 C.ar  397  PHE397     -0.0000
@<TRIPOS>BOND
     1     8     6   am
     2    96    95    2
     3    95    94    1
     4     7     6    2
     5     6     5    1
     6    93    94    1
     7    94    97    1
     8    80    79    2
     9     5     2    1
    10   101   102    1
    11    88    87    2
    12     1     2    1
    13    79    78    1
    14    77    78    1
    15    87    86    1
    16    71    72    2
    17    71    70    1
    18    97    98    1
    19    69    70    1
    20   102   103    1
    21   102   105    1
    22     2     3    1
    23   103   104    2
    24    78    81    1
    25    85    86    1
    26    70    73    1
    27    86    89    1
    28    24    25    2
    29    24    23    1
    30    33    34    1
    31   106   105    1
    32    98    99    1
    33    98   100    1
    34   105   107    1
    35     3     4    2
    36     3     9   am
    37    81    83    1
    38    81    82    1
    39    23    22    1
    40    23    26    1
    41    73    74    1
    42    89    91    1
    43    89    90    1
    44   108   109    1
    45     9    10    1
    46    34    37    1
    47    34    35    1
    48    82    84    1
    49    47    48    1
    50    47    46    1
    51    74    76    1
    52    74    75    1
    53    48    42    1
    54    37    38    1
    55    90    92    1
    56    26    27    1
    57    35    42   am
    58    35    36    2
    59   111   110    2
    60    42    43    1
    61   110   109    1
    62    64    63    2
    63    46    43    1
    64   109   112    1
    65    12    11    2
    66    43    44    1
    67    10    11    1
    68    10    13    1
    69    11    17   am
    70    27    28    1
    71    14    13    1
    72    14    16    1
    73    14    15    1
    74    40    39    2
    75    38    39    1
    76   115   117   ar
    77   115   113   ar
    78    63    62    1
    79   112   113    1
    80    58    56   ar
    81    58    59   ar
    82    60    59    1
    83   117   118   ar
    84   113   114   ar
    85    17    18    1
    86    28    29    1
    87    44    49   am
    88    44    45    2
    89    39    41   am
    90    56    54   ar
    91    59    57   ar
    92    49    50    1
    93    18    21    1
    94    18    19    1
    95   118   116   ar
    96    61    62    1
    97   114   116   ar
    98    62    65    1
    99    65    67    1
   100    65    66    1
   101    29    30    2
   102    54    55   ar
   103    54    53    1
   104    57    55   ar
   105    31    30    1
   106    19    20    2
   107    53    50    1
   108    30    32    1
   109    50    51    1
   110    66    68    1
   111    51    52    2
   112   136   135   ar
   113   136   134   ar
   114   135   133   ar
   115   124   123    1
   116   124   125    1
   117   122   121    2
   118   123   120    1
   119   134   132   ar
   120   208   206   ar
   121   208   207   ar
   122   206   204   ar
   123   133   131   ar
   124   148   147    1
   125   148   149    1
   126   121   120    1
   127   121   126   am
   128   125   119    1
   129   132   131   ar
   130   120   119    1
   131   131   130    1
   132   150   149    2
   133   162   161    2
   134   147   139   am
   135   207   205   ar
   136   204   203   ar
   137   127   126    1
   138   127   128    1
   139   127   130    1
   140   129   128    2
   141   197   195    1
   142   161   160    1
   143   128   137   am
   144   139   140    2
   145   139   138    1
   146   137   138    1
   147   205   203   ar
   148   203   202    1
   149   177   176    1
   150   138   141    1
   151   190   189    1
   152   188   189   ar
   153   188   186   ar
   154   154   153    2
   155   163   160    1
   156   163   164    1
   157   158   156   am
   158   194   193    2
   159   160   159    1
   160   195   196    1
   161   195   192    1
   162   189   187   ar
   163   186   184   ar
   164   166   165   ar
   165   176   178    1
   166   176   175    2
   167   202   199    1
   168   153   152    1
   169   193   192    1
   170   193   198   am
   171   155   156    1
   172   155   152    1
   173   156   157    2
   174   192   191    1
   175   141   142    1
   176   143   142   ar
   177   143   145   ar
   178   199   198    1
   179   199   200    1
   180   164   165    1
   181   187   185   ar
   182   152   151    1
   183   165   167   ar
   184   184   185   ar
   185   184   183    1
   186   175   174    1
   187   142   144   ar
   188   145   146   ar
   189   183   180    1
   190   201   200    2
   191   182   181    2
   192   144   146   ar
   193   174   173    1
   194   181   180    1
   195   180   179    1
   196   172   173    1
   197   172   169    1
   198   171   170    2
   199   170   169    1
   200   169   168    1
