@<TRIPOS>MOLECULE
tmp/5x6rA01.pdb
 198 187 0 0 0
SMALL
GASTEIGER

@<TRIPOS>ATOM
      1  N          3.5760   -9.3890   49.1350 N.3    44  SER44      -0.1217
      2  CA         3.1150   -9.2110   50.5130 C.3    44  SER44       0.1889
      3  C          3.3540  -10.4880   51.3350 C.2    44  SER44       0.2288
      4  O          3.5310  -11.5560   50.7310 O.2    44  SER44      -0.2866
      5  CB         1.6390   -8.8230   50.5230 C.3    44  SER44       0.2089
      6  OG         0.8830   -9.7070   49.7190 O.3    44  SER44      -0.2183
      7  N          1.3890  -11.8160   54.5840 N.3    46  ASN46      -0.1225
      8  CA         0.0410  -12.3920   54.7220 C.3    46  ASN46       0.1785
      9  C         -0.9290  -11.5630   53.8710 C.2    46  ASN46       0.2597
     10  O         -0.7650  -10.3500   53.7570 O.2    46  ASN46      -0.2718
     11  CB        -0.4390  -12.4200   56.1890 C.3    46  ASN46       0.1169
     12  CG        -0.1780  -13.7740   56.8800 C.2    46  ASN46       0.2627
     13  OD1        0.9460  -14.2770   56.8820 O.2    46  ASN46      -0.2716
     14  ND2       -1.2200  -14.3540   57.4790 N.am   46  ASN46      -0.0877
     15  N         -1.9290  -12.2140   53.2730 N.am   47  LEU47      -0.1966
     16  CA        -2.8800  -11.5110   52.4190 C.3    47  LEU47       0.1728
     17  C         -4.3040  -11.7910   52.8620 C.2    47  LEU47       0.2616
     18  O         -4.5380  -12.6870   53.6670 O.2    47  LEU47      -0.2715
     19  CB        -2.6810  -11.9170   50.9530 C.3    47  LEU47       0.0311
     20  CG        -2.6730  -13.4150   50.6510 C.3    47  LEU47       0.0022
     21  CD1       -4.0880  -13.9270   50.5080 C.3    47  LEU47       0.0001
     22  CD2       -1.8560  -13.7180   49.3730 C.3    47  LEU47       0.0001
     23  N         -5.2670  -11.0460   52.3380 N.am   48  ALA48      -0.1977
     24  CA        -6.6510  -11.3250   52.7070 C.3    48  ALA48       0.1597
     25  C         -7.3480  -12.1310   51.6160 C.2    48  ALA48       0.2287
     26  O         -7.3620  -11.7320   50.4530 O.2    48  ALA48      -0.2864
     27  CB        -7.3990  -10.0610   52.9590 C.3    48  ALA48       0.0319
     28  N        -13.5590   -4.2840   60.3120 N.3    78  ARG78      -0.1245
     29  CA       -12.3990   -3.4120   60.2730 C.3    78  ARG78       0.1563
     30  C        -12.3310   -2.5910   61.5620 C.2    78  ARG78       0.2260
     31  O        -13.3570   -2.2870   62.1630 O.2    78  ARG78      -0.2867
     32  CB       -12.4610   -2.5050   59.0460 C.3    78  ARG78       0.0307
     33  CG       -13.5740   -1.5020   59.1240 C.3    78  ARG78       0.0489
     34  CD       -13.8570   -0.8750   57.7730 C.3    78  ARG78       0.2205
     35  NE       -14.2360   -1.8960   56.8040 N.pl3  78  ARG78      -0.0865
     36  CZ       -14.7270   -1.6340   55.5960 C.cat  78  ARG78       0.5346
     37  NH1      -14.8820   -0.3740   55.1900 N.pl3  78  ARG78       0.1354
     38  NH2      -15.0340   -2.6360   54.7800 N.pl3  78  ARG78       0.1354
     39  N        -18.2360   -6.5630   59.6900 N.3    92  TYR92      -0.1241
     40  CA       -18.5100   -6.9510   58.3100 C.3    92  TYR92       0.1605
     41  C        -19.9350   -7.4730   58.1520 C.2    92  TYR92       0.2264
     42  O        -20.8950   -6.7010   58.1440 O.2    92  TYR92      -0.2867
     43  CB       -17.4960   -8.0180   57.8480 C.3    92  TYR92       0.0534
     44  CG       -16.1380   -7.4670   57.4450 C.ar   92  TYR92      -0.0201
     45  CD1      -16.0350   -6.2260   56.8360 C.ar   92  TYR92      -0.0009
     46  CD2      -14.9620   -8.1800   57.6850 C.ar   92  TYR92      -0.0009
     47  CE1      -14.8080   -5.7040   56.4570 C.ar   92  TYR92       0.0417
     48  CE2      -13.7150   -7.6570   57.3160 C.ar   92  TYR92       0.0417
     49  CZ       -13.6510   -6.4170   56.6970 C.ar   92  TYR92       0.1957
     50  OH       -12.4500   -5.8670   56.2980 O.3    92  TYR92      -0.2866
     51  N        -13.4480  -11.3610   55.3520 N.3    93  ILE93      -0.1245
     52  CA       -12.1320  -11.7380   54.8440 C.3    93  ILE93       0.1561
     53  C        -11.3200  -12.4940   55.8860 C.2    93  ILE93       0.2260
     54  O        -11.5630  -12.3760   57.0860 O.2    93  ILE93      -0.2867
     55  CB       -11.3180  -10.5020   54.3690 C.3    93  ILE93       0.0252
     56  CG1      -11.1280   -9.5150   55.5170 C.3    93  ILE93       0.0019
     57  CG2      -12.0100   -9.8130   53.1820 C.3    93  ILE93       0.0019
     58  CD1       -9.8290   -8.7510   55.4570 C.3    93  ILE93       0.0001
     59  N          3.9380    1.3130   48.2340 N.3   179  TYR179     -0.1241
     60  CA         3.6200    0.6580   49.4900 C.3   179  TYR179      0.1605
     61  C          4.8980    0.2400   50.1780 C.2   179  TYR179      0.2264
     62  O          5.8920   -0.0540   49.5310 O.2   179  TYR179     -0.2867
     63  CB         2.6980   -0.5480   49.2640 C.3   179  TYR179      0.0534
     64  CG         3.3620   -1.7140   48.5580 C.ar  179  TYR179     -0.0201
     65  CD1        4.0360   -2.7070   49.2740 C.ar  179  TYR179     -0.0009
     66  CD2        3.3230   -1.8150   47.1720 C.ar  179  TYR179     -0.0009
     67  CE1        4.6490   -3.7680   48.6190 C.ar  179  TYR179      0.0417
     68  CE2        3.9230   -2.8600   46.5160 C.ar  179  TYR179      0.0417
     69  CZ         4.5800   -3.8310   47.2280 C.ar  179  TYR179      0.1957
     70  OH         5.1640   -4.8610   46.5400 O.3   179  TYR179     -0.2866
     71  N         -9.3270   -6.1970   60.6080 N.3   205  LEU205     -0.1245
     72  CA        -8.3890   -5.5650   59.7070 C.3   205  LEU205      0.1561
     73  C         -8.2060   -4.1570   60.2310 C.2   205  LEU205      0.2260
     74  O         -9.1750   -3.3960   60.3050 O.2   205  LEU205     -0.2867
     75  CB        -8.9180   -5.5340   58.2570 C.3   205  LEU205      0.0270
     76  CG        -8.0100   -4.7470   57.3040 C.3   205  LEU205      0.0019
     77  CD1       -6.6610   -5.4470   57.1490 C.3   205  LEU205      0.0001
     78  CD2       -8.7010   -4.5660   55.9340 C.3   205  LEU205      0.0001
     79  N         -7.0280   -0.3680   60.1570 N.3   207  ILE207     -0.1245
     80  CA        -6.8110    0.6720   59.1670 C.3   207  ILE207      0.1561
     81  C         -6.6430    2.0190   59.8650 C.2   207  ILE207      0.2260
     82  O         -7.4490    2.3690   60.7110 O.2   207  ILE207     -0.2867
     83  CB        -7.9980    0.7750   58.1820 C.3   207  ILE207      0.0252
     84  CG1       -8.2890   -0.5650   57.5030 C.3   207  ILE207      0.0019
     85  CG2       -7.7340    1.8680   57.1290 C.3   207  ILE207      0.0019
     86  CD1       -9.6110   -0.5750   56.7600 C.3   207  ILE207      0.0001
     87  N         -2.2290   -0.0360   57.2350 N.3   216  ILE216     -0.1245
     88  CA        -3.1160   -1.1310   57.5730 C.3   216  ILE216      0.1561
     89  C         -2.3240   -2.2050   58.3190 C.2   216  ILE216      0.2260
     90  O         -1.1100   -2.2350   58.2530 O.2   216  ILE216     -0.2867
     91  CB        -3.7980   -1.7640   56.3220 C.3   216  ILE216      0.0252
     92  CG1       -2.7750   -2.5160   55.4670 C.3   216  ILE216      0.0019
     93  CG2       -4.5710   -0.7110   55.5240 C.3   216  ILE216      0.0019
     94  CD1       -3.4200   -3.3040   54.3110 C.3   216  ILE216      0.0001
     95  N         -2.7120   -6.5380   59.4090 N.3   218  LEU218     -0.1245
     96  CA        -3.4460   -7.7890   59.2880 C.3   218  LEU218      0.1561
     97  C         -2.6820   -8.8850   60.0360 C.2   218  LEU218      0.2260
     98  O         -1.4870   -9.0560   59.8310 O.2   218  LEU218     -0.2867
     99  CB        -3.6020   -8.1590   57.8130 C.3   218  LEU218      0.0270
    100  CG        -4.4540   -9.3770   57.5040 C.3   218  LEU218      0.0019
    101  CD1       -5.8820   -9.1000   57.9220 C.3   218  LEU218      0.0001
    102  CD2       -4.3580   -9.7310   56.0100 C.3   218  LEU218      0.0001
    103  N          1.1820   -8.3920   59.8230 N.3   226  THR226     -0.1218
    104  CA         1.6710   -7.8430   58.5780 C.3   226  THR226      0.1862
    105  C          1.1140   -6.4490   58.4400 C.2   226  THR226      0.2287
    106  O         -0.1010   -6.2720   58.4540 O.2   226  THR226     -0.2866
    107  CB         1.2110   -8.6930   57.3890 C.3   226  THR226      0.1770
    108  OG1        1.8680   -9.9640   57.4450 O.3   226  THR226     -0.2211
    109  CG2        1.5140   -7.9860   56.0870 C.3   226  THR226      0.0375
    110  N          1.1650   -2.5990   56.3330 N.3   228  THR228     -0.1218
    111  CA         1.5280   -1.9760   55.0700 C.3   228  THR228      0.1862
    112  C          1.1720   -0.4970   55.0740 C.2   228  THR228      0.2287
    113  O          0.0550   -0.1250   55.4390 O.2   228  THR228     -0.2866
    114  CB         0.8330   -2.6400   53.8790 C.3   228  THR228      0.1770
    115  OG1        1.0070   -4.0650   53.9300 O.3   228  THR228     -0.2211
    116  CG2        1.4110   -2.0790   52.5630 C.3   228  THR228      0.0375
    117  N          0.6900    2.8590   52.6590 N.3   230  PHE230     -0.1241
    118  CA         0.3990    3.2670   51.2750 C.3   230  PHE230      0.1605
    119  C          0.4640    4.7770   51.1530 C.2   230  PHE230      0.2264
    120  O         -0.1650    5.4720   51.9430 O.2   230  PHE230     -0.2867
    121  CB        -1.0000    2.8290   50.8290 C.3   230  PHE230      0.0534
    122  CG        -1.2110    1.3490   50.8280 C.ar  230  PHE230     -0.0203
    123  CD1       -0.8650    0.5860   49.7180 C.ar  230  PHE230     -0.0042
    124  CD2       -1.7840    0.7210   51.9260 C.ar  230  PHE230     -0.0042
    125  CE1       -1.0770   -0.7940   49.6990 C.ar  230  PHE230     -0.0003
    126  CE2       -1.9910   -0.6530   51.9220 C.ar  230  PHE230     -0.0003
    127  CZ        -1.6370   -1.4070   50.8150 C.ar  230  PHE230     -0.0000
    128  N         -3.5940   -2.2120   44.4140 N.3   305  PRO305     -0.2102
    129  CA        -3.5510   -2.9110   45.7080 C.3   305  PRO305      0.1504
    130  C         -4.5530   -2.3220   46.7190 C.2   305  PRO305      0.2576
    131  O         -4.8250   -1.1260   46.6650 O.2   305  PRO305     -0.2718
    132  CB        -2.1170   -2.6850   46.1880 C.3   305  PRO305      0.0282
    133  CG        -1.3380   -2.3710   44.9600 C.3   305  PRO305      0.0208
    134  CD        -2.2780   -1.7030   43.9950 C.3   305  PRO305      0.0893
    135  N         -5.1050   -3.1810   47.5800 N.am  306  PHE306     -0.1963
    136  CA        -6.0170   -2.8460   48.6770 C.3   306  PHE306      0.1771
    137  C         -7.3800   -2.3650   48.2380 C.2   306  PHE306      0.2620
    138  O         -8.3840   -2.9150   48.6660 O.2   306  PHE306     -0.2715
    139  CB        -5.4350   -1.7840   49.6280 C.3   306  PHE306      0.0574
    140  CG        -6.3100   -1.5470   50.8410 C.ar  306  PHE306     -0.0200
    141  CD1       -6.3060   -2.4540   51.9010 C.ar  306  PHE306     -0.0042
    142  CD2       -7.1860   -0.4680   50.8940 C.ar  306  PHE306     -0.0042
    143  CE1       -7.1300   -2.2600   53.0040 C.ar  306  PHE306     -0.0003
    144  CE2       -8.0170   -0.2700   52.0070 C.ar  306  PHE306     -0.0003
    145  CZ        -7.9840   -1.1690   53.0560 C.ar  306  PHE306     -0.0000
    146  N         -7.4170   -1.3270   47.4080 N.am  307  TYR307     -0.1960
    147  CA        -8.6920   -0.8140   46.9020 C.3   307  TYR307      0.1771
    148  C         -9.2940   -1.8010   45.9310 C.2   307  TYR307      0.2620
    149  O        -10.5160   -1.8710   45.7590 O.2   307  TYR307     -0.2715
    150  CB        -8.5040    0.5720   46.2590 C.3   307  TYR307      0.0574
    151  CG        -7.7840    1.5230   47.1970 C.ar  307  TYR307     -0.0198
    152  CD1       -8.4610    2.1750   48.2290 C.ar  307  TYR307     -0.0009
    153  CD2       -6.4210    1.7360   47.0750 C.ar  307  TYR307     -0.0009
    154  CE1       -7.7870    3.0380   49.1060 C.ar  307  TYR307      0.0417
    155  CE2       -5.7410    2.5870   47.9440 C.ar  307  TYR307      0.0417
    156  CZ        -6.4260    3.2340   48.9590 C.ar  307  TYR307      0.1957
    157  OH        -5.7160    4.0680   49.8140 O.3   307  TYR307     -0.2866
    158  N         -8.4160   -2.5630   45.2910 N.am  308  GLY308     -0.1940
    159  CA        -8.8240   -3.6660   44.4580 C.3   308  GLY308      0.2014
    160  C         -8.3290   -4.9050   45.1710 C.2   308  GLY308      0.2639
    161  O         -7.4510   -4.8000   46.0340 O.2   308  GLY308     -0.2714
    162  N         -8.8890   -6.0660   44.8370 N.am  309  GLN309     -0.1963
    163  CA        -8.4530   -7.3170   45.4600 C.3   309  GLN309      0.1733
    164  C         -8.0940   -8.3290   44.3870 C.2   309  GLN309      0.2616
    165  O         -8.9060   -9.1820   44.0290 O.2   309  GLN309     -0.2715
    166  CB        -9.5390   -7.8520   46.3970 C.3   309  GLN309      0.0408
    167  CG        -9.8410   -6.8780   47.5630 C.3   309  GLN309      0.0908
    168  CD       -10.6840   -7.5080   48.6630 C.2   309  GLN309      0.2608
    169  OE1      -10.4880   -8.6740   49.0180 O.2   309  GLN309     -0.2717
    170  NE2      -11.6180   -6.7330   49.2210 N.am  309  GLN309     -0.0878
    171  N         -6.8610   -8.2200   43.8950 N.am  310  GLY310     -0.1955
    172  CA        -6.4140   -8.9320   42.7170 C.3   310  GLY310      0.1869
    173  C         -6.4280  -10.4450   42.8260 C.2   310  GLY310      0.2309
    174  O         -6.8570  -11.1190   41.8790 O.2   310  GLY310     -0.2863
    175  N         -8.1740  -12.3480   44.8590 N.3   312  ASN312     -0.1240
    176  CA        -9.5550  -12.7930   44.9480 C.3   312  ASN312      0.1653
    177  C        -10.2630  -12.7380   43.5850 C.2   312  ASN312      0.2266
    178  O        -11.0170  -13.6510   43.2200 O.2   312  ASN312     -0.2867
    179  CB       -10.2960  -11.9680   45.9910 C.3   312  ASN312      0.1155
    180  CG        -9.8710  -12.3440   47.4190 C.2   312  ASN312      0.2627
    181  OD1       -9.9920  -13.4940   47.8220 O.2   312  ASN312     -0.2716
    182  ND2       -9.3390  -11.3840   48.1610 N.am  312  ASN312     -0.0877
    183  N        -14.2150    3.2380   46.3410 N.3   357  ASN357     -0.1240
    184  CA       -13.6070    2.8630   47.5990 C.3   357  ASN357      0.1653
    185  C        -12.3860    3.7270   47.9070 C.2   357  ASN357      0.2266
    186  O        -12.1760    4.1300   49.0630 O.2   357  ASN357     -0.2867
    187  CB       -13.2320    1.3850   47.5730 C.3   357  ASN357      0.1155
    188  CG       -14.3740    0.4910   48.0160 C.2   357  ASN357      0.2627
    189  OD1      -15.3670    0.9560   48.5780 O.2   357  ASN357     -0.2716
    190  ND2      -14.2360   -0.8100   47.7780 N.am  357  ASN357     -0.0877
    191  N        -12.2670    6.2610   51.2580 N.3   361  MET361     -0.1245
    192  CA       -11.3390    5.7970   52.2830 C.3   361  MET361      0.1570
    193  C        -10.0610    6.6230   52.3320 C.2   361  MET361      0.2261
    194  O         -9.3910    6.6550   53.3600 O.2   361  MET361     -0.2867
    195  CB       -10.9780    4.3120   52.0760 C.3   361  MET361      0.0387
    196  CG       -12.0160    3.3000   52.5700 C.3   361  MET361      0.0595
    197  SD       -12.3050    3.3080   54.3550 S.3   361  MET361     -0.1393
    198  CE       -10.6270    3.4330   54.9370 C.3   361  MET361      0.0692
@<TRIPOS>BOND
     1   174   173    2
     2   172   173    1
     3   172   171    1
     4   178   177    2
     5   177   176    1
     6   171   164   am
     7   134   128    1
     8   134   133    1
     9   165   164    2
    10   164   163    1
    11   128   129    1
    12   159   160    1
    13   159   158    1
    14   162   160   am
    15   162   163    1
    16   175   176    1
    17   176   179    1
    18   133   132    1
    19   160   161    2
    20   158   148   am
    21   163   166    1
    22   129   132    1
    23   129   130    1
    24   149   148    2
    25   148   147    1
    26   179   180    1
    27   150   147    1
    28   150   151    1
    29   183   184    1
    30   166   167    1
    31    68    66   ar
    32    68    69   ar
    33    70    69    1
    34   131   130    2
    35   130   135   am
    36   147   146    1
    37   153   151   ar
    38   153   155   ar
    39    66    64   ar
    40   151   152   ar
    41    69    67   ar
    42   146   137   am
    43   180   181    2
    44   180   182   am
    45   167   168    1
    46   187   184    1
    47   187   188    1
    48   135   136    1
    49   184   185    1
    50   190   188   am
    51   185   186    2
    52   155   156   ar
    53   188   189    2
    54   152   154   ar
    55    59    60    1
    56   137   138    2
    57   137   136    1
    58    64    63    1
    59    64    65   ar
    60    67    65   ar
    61   168   169    2
    62   168   170   am
    63   136   139    1
    64   156   154   ar
    65   156   157    1
    66     1     2    1
    67    63    60    1
    68    22    20    1
    69    60    61    1
    70    62    61    2
    71   139   140    1
    72   125   123   ar
    73   125   127   ar
    74   123   122   ar
    75     6     5    1
    76    26    25    2
    77    21    20    1
    78     2     5    1
    79     2     3    1
    80    20    19    1
    81     4     3    2
    82   127   126   ar
    83   122   121    1
    84   122   124   ar
    85   121   118    1
    86   140   142   ar
    87   140   141   ar
    88   142   144   ar
    89    19    16    1
    90   119   118    1
    91   119   120    2
    92   191   192    1
    93   118   117    1
    94    25    24    1
    95   141   143   ar
    96   126   124   ar
    97   144   145   ar
    98   195   192    1
    99   195   196    1
   100   192   193    1
   101   193   194    2
   102    23    24    1
   103    23    17   am
   104    16    17    1
   105    16    15    1
   106   116   114    1
   107   196   197    1
   108    24    27    1
   109    17    18    2
   110   143   145   ar
   111    57    55    1
   112    15     9   am
   113    10     9    2
   114     9     8    1
   115   114   115    1
   116   114   111    1
   117    94    92    1
   118   197   198    1
   119    55    52    1
   120    55    56    1
   121     7     8    1
   122     8    11    1
   123    38    36    1
   124    52    51    1
   125    52    53    1
   126   111   112    1
   127   111   110    1
   128   112   113    2
   129    37    36    1
   130    58    56    1
   131    92    91    1
   132    93    91    1
   133    36    35    2
   134    53    54    2
   135    78    76    1
   136   102   100    1
   137   109   107    1
   138    11    12    1
   139    50    49    1
   140    91    88    1
   141    47    49   ar
   142    47    45   ar
   143    49    48   ar
   144    86    84    1
   145    35    34    1
   146    45    44   ar
   147    12    13    2
   148    12    14   am
   149    85    83    1
   150    77    76    1
   151    87    88    1
   152    76    75    1
   153    48    46   ar
   154   107   108    1
   155   107   104    1
   156    44    46   ar
   157    44    43    1
   158    84    83    1
   159   100    99    1
   160   100   101    1
   161    88    89    1
   162    34    33    1
   163    99    96    1
   164    43    40    1
   165    42    41    2
   166    41    40    1
   167    83    80    1
   168    90    89    2
   169    75    72    1
   170    40    39    1
   171   105   106    2
   172   105   104    1
   173   104   103    1
   174    32    33    1
   175    32    29    1
   176    80    81    1
   177    80    79    1
   178    96    95    1
   179    96    97    1
   180    72    73    1
   181    72    71    1
   182    98    97    2
   183    81    82    2
   184    73    74    2
   185    29    28    1
   186    29    30    1
   187    30    31    2
