@<TRIPOS>MOLECULE
tmp/5x6sB00.pdb
 80 76 0 0 0
SMALL
GASTEIGER

@<TRIPOS>ATOM
      1  N         58.2780   26.6510   30.5770 N.3   147  GLY147     -0.1210
      2  CA        59.1910   26.7720   31.6950 C.3   147  GLY147      0.1956
      3  C         60.6580   26.6650   31.3210 C.2   147  GLY147      0.2612
      4  O         61.5020   26.7600   32.1830 O.2   147  GLY147     -0.2717
      5  N         60.9750   26.4690   30.0470 N.am  148  CYS148     -0.1970
      6  CA        62.3610   26.5060   29.6010 C.3   148  CYS148      0.1712
      7  C         62.9750   27.8870   29.7570 C.2   148  CYS148      0.2296
      8  O         64.1850   28.0210   29.9290 O.2   148  CYS148     -0.2864
      9  CB        62.4270   26.0170   28.1490 C.3   148  CYS148      0.0983
     10  SG        64.0780   25.5190   27.5430 S.3   148  CYS148     -0.0798
     11  N         62.1870   29.7990   32.2380 N.3   150  TYR150     -0.1227
     12  CA        62.2340   30.0590   33.6960 C.3   150  TYR150      0.1736
     13  C         63.4570   30.9260   34.0640 C.2   150  TYR150      0.2596
     14  O         64.5940   30.6380   33.6170 O.2   150  TYR150     -0.2718
     15  CB        62.2650   28.7190   34.4290 C.3   150  TYR150      0.0548
     16  CG        62.5710   28.7890   35.8810 C.ar  150  TYR150     -0.0200
     17  CD1       61.5400   29.0120   36.8240 C.ar  150  TYR150     -0.0009
     18  CD2       63.9030   28.6630   36.3500 C.ar  150  TYR150     -0.0009
     19  CE1       61.8220   29.0590   38.1940 C.ar  150  TYR150      0.0417
     20  CE2       64.1880   28.7270   37.7160 C.ar  150  TYR150      0.0417
     21  CZ        63.1560   28.9100   38.6210 C.ar  150  TYR150      0.1957
     22  OH        63.4430   28.9760   39.9520 O.3   150  TYR150     -0.2866
     23  N         63.2130   31.9970   34.8190 N.am  151  SER151     -0.1938
     24  CA        64.2910   32.7980   35.4120 C.3   151  SER151      0.2055
     25  C         64.5220   32.3940   36.8830 C.2   151  SER151      0.2643
     26  O         63.5870   32.4410   37.7150 O.2   151  SER151     -0.2714
     27  CB        63.9890   34.2800   35.3490 C.3   151  SER151      0.2130
     28  OG        64.8620   35.0140   36.2080 O.3   151  SER151     -0.2179
     29  N         65.7590   32.0000   37.1990 N.am  152  ASN152     -0.1971
     30  CA        66.0740   31.5600   38.5720 C.3   152  ASN152      0.1688
     31  C         66.1850   32.6850   39.5820 C.2   152  ASN152      0.2292
     32  O         66.4350   32.4310   40.7620 O.2   152  ASN152     -0.2864
     33  CB        67.2860   30.6110   38.6140 C.3   152  ASN152      0.1181
     34  CG        68.6170   31.2760   38.2210 C.2   152  ASN152      0.2629
     35  OD1       68.7880   32.5070   38.2250 O.2   152  ASN152     -0.2716
     36  ND2       69.5790   30.4230   37.8540 N.am  152  ASN152     -0.0877
     37  N         66.4730   33.4190   28.5410 N.3   160  ASN160     -0.1240
     38  CA        67.2940   32.3370   29.1290 C.3   160  ASN160      0.1653
     39  C         68.1850   31.7190   28.0380 C.2   160  ASN160      0.2266
     40  O         67.7310   30.9320   27.2150 O.2   160  ASN160     -0.2867
     41  CB        66.4060   31.2910   29.7650 C.3   160  ASN160      0.1155
     42  CG        67.1650   30.2410   30.5120 C.2   160  ASN160      0.2627
     43  OD1       68.1150   29.6590   29.9950 O.2   160  ASN160     -0.2716
     44  ND2       66.7580   29.9970   31.7520 N.am  160  ASN160     -0.0877
     45  N         70.7960   29.6640   28.0800 N.3   162  THR162     -0.1218
     46  CA        70.9750   28.2300   28.2140 C.3   162  THR162      0.1862
     47  C         69.9020   27.4510   27.5090 C.2   162  THR162      0.2287
     48  O         70.1860   26.4770   26.7910 O.2   162  THR162     -0.2866
     49  CB        70.9240   27.8150   29.7060 C.3   162  THR162      0.1770
     50  OG1       71.7130   28.7320   30.4570 O.3   162  THR162     -0.2211
     51  CG2       71.4430   26.4200   29.8950 C.3   162  THR162      0.0375
     52  N         69.5330   23.0400   27.6980 N.3   168  VAL168     -0.1245
     53  CA        68.6880   22.4880   28.7310 C.3   168  VAL168      0.1561
     54  C         68.0680   21.2330   28.1810 C.2   168  VAL168      0.2260
     55  O         67.2230   21.2830   27.2800 O.2   168  VAL168     -0.2867
     56  CB        67.6080   23.4930   29.2560 C.3   168  VAL168      0.0252
     57  CG1       66.7780   22.8530   30.3560 C.3   168  VAL168      0.0019
     58  CG2       68.2470   24.7720   29.7520 C.3   168  VAL168      0.0019
     59  N         60.2200   17.5960   32.5240 N.3   175  TRP175     -0.1241
     60  CA        59.4360   18.6090   31.8140 C.3   175  TRP175      0.1605
     61  C         57.9340   18.5840   32.1480 C.2   175  TRP175      0.2264
     62  O         57.3360   19.6610   32.2970 O.2   175  TRP175     -0.2867
     63  CB        59.6140   18.5370   30.2900 C.3   175  TRP175      0.0550
     64  CG        60.9140   19.0590   29.7550 C.ar  175  TRP175      0.0003
     65  CD1       61.8020   18.3510   29.0040 C.ar  175  TRP175      0.0946
     66  CD2       61.4550   20.3910   29.8560 C.ar  175  TRP175      0.0152
     67  NE1       62.8470   19.1440   28.6360 N.ar  175  TRP175     -0.2442
     68  CE2       62.7060   20.3790   29.1930 C.ar  175  TRP175      0.0810
     69  CE3       61.0340   21.5770   30.4780 C.ar  175  TRP175      0.0012
     70  CZ2       63.5220   21.4940   29.1040 C.ar  175  TRP175      0.0191
     71  CZ3       61.8660   22.6860   30.4100 C.ar  175  TRP175      0.0001
     72  CH2       63.1020   22.6430   29.7150 C.ar  175  TRP175      0.0015
     73  N         57.3380   20.0600   35.4950 N.3   178  ILE178     -0.1245
     74  CA        57.4800   21.5240   35.3460 C.3   178  ILE178      0.1561
     75  C         56.1780   22.1730   34.8000 C.2   178  ILE178      0.2260
     76  O         55.7450   23.1970   35.3070 O.2   178  ILE178     -0.2867
     77  CB        58.6920   21.8700   34.4390 C.3   178  ILE178      0.0252
     78  CG1       59.9930   21.6410   35.2300 C.3   178  ILE178      0.0019
     79  CG2       58.6200   23.3030   33.9010 C.3   178  ILE178      0.0019
     80  CD1       61.2480   21.7510   34.3780 C.3   178  ILE178      0.0001
@<TRIPOS>BOND
     1    48    47    2
     2    40    39    2
     3    55    54    2
     4    47    46    1
     5    10     9    1
     6    52    53    1
     7    39    38    1
     8    45    46    1
     9     9     6    1
    10    54    53    1
    11    46    49    1
    12    37    38    1
    13    67    65   ar
    14    67    68   ar
    15    53    56    1
    16    65    64   ar
    17    70    68   ar
    18    70    72   ar
    19    38    41    1
    20    68    66   ar
    21    56    58    1
    22    56    57    1
    23     6     7    1
    24     6     5    1
    25    49    51    1
    26    49    50    1
    27    72    71   ar
    28    64    66   ar
    29    64    63    1
    30     7     8    2
    31    41    42    1
    32    66    69   ar
    33    43    42    2
    34     5     3   am
    35    63    60    1
    36    71    69   ar
    37    42    44   am
    38     1     2    1
    39     3     2    1
    40     3     4    2
    41    60    61    1
    42    60    59    1
    43    61    62    2
    44    11    12    1
    45    14    13    2
    46    12    13    1
    47    12    15    1
    48    79    77    1
    49    13    23   am
    50    80    78    1
    51    15    16    1
    52    77    78    1
    53    77    74    1
    54    75    76    2
    55    75    74    1
    56    23    24    1
    57    74    73    1
    58    27    24    1
    59    27    28    1
    60    24    25    1
    61    16    18   ar
    62    16    17   ar
    63    18    20   ar
    64    17    19   ar
    65    25    29   am
    66    25    26    2
    67    29    30    1
    68    20    21   ar
    69    36    34   am
    70    19    21   ar
    71    34    35    2
    72    34    33    1
    73    30    33    1
    74    30    31    1
    75    21    22    1
    76    31    32    2
