@<TRIPOS>MOLECULE
tmp/5x6yD00.pdb
 101 96 0 0 0
SMALL
GASTEIGER

@<TRIPOS>ATOM
      1  N        -50.9410  -26.3560  -69.0660 N.3    74  ARG74      -0.1245
      2  CA       -49.9330  -25.7740  -69.9480 C.3    74  ARG74       0.1563
      3  C        -48.9840  -24.8910  -69.1500 C.2    74  ARG74       0.2260
      4  O        -47.7640  -24.9360  -69.3440 O.2    74  ARG74      -0.2867
      5  CB       -50.5910  -24.9750  -71.0630 C.3    74  ARG74       0.0307
      6  CG       -51.0490  -25.8150  -72.2300 C.3    74  ARG74       0.0489
      7  CD       -49.8750  -26.5050  -72.9000 C.3    74  ARG74       0.2205
      8  NE       -50.3370  -27.4110  -73.9450 N.pl3  74  ARG74      -0.0865
      9  CZ       -50.3050  -27.1380  -75.2460 C.cat  74  ARG74       0.5346
     10  NH1      -49.8190  -25.9730  -75.6770 N.pl3  74  ARG74       0.1354
     11  NH2      -50.7750  -28.0300  -76.1150 N.pl3  74  ARG74       0.1354
     12  N        -41.7490  -29.0150  -72.0970 N.3   539  LYS539     -0.1245
     13  CA       -41.5080  -27.5940  -71.8650 C.3   539  LYS539      0.1561
     14  C        -40.6320  -27.2980  -70.6470 C.2   539  LYS539      0.2260
     15  O        -40.0990  -26.1900  -70.5560 O.2   539  LYS539     -0.2867
     16  CB       -42.8450  -26.8370  -71.7210 C.3   539  LYS539      0.0271
     17  CG       -43.5650  -26.5180  -73.0520 C.3   539  LYS539      0.0035
     18  CD       -42.7670  -25.4600  -73.8540 C.3   539  LYS539      0.0206
     19  CE       -43.2680  -25.2710  -75.2950 C.3   539  LYS539      0.1093
     20  NZ       -42.1910  -25.6720  -76.2940 N.3   539  LYS539     -0.1314
     21  N        -38.2250  -18.8490  -80.8990 N.3   557  TYR557     -0.1241
     22  CA       -38.7470  -19.2130  -82.2070 C.3   557  TYR557      0.1605
     23  C        -37.9480  -18.5790  -83.3370 C.2   557  TYR557      0.2264
     24  O        -37.8100  -19.1950  -84.3970 O.2   557  TYR557     -0.2867
     25  CB       -40.2300  -18.8400  -82.2930 C.3   557  TYR557      0.0534
     26  CG       -41.0720  -19.5390  -81.2200 C.ar  557  TYR557     -0.0201
     27  CD1      -41.2430  -20.9140  -81.2270 C.ar  557  TYR557     -0.0009
     28  CD2      -41.6660  -18.8160  -80.1990 C.ar  557  TYR557     -0.0009
     29  CE1      -41.9970  -21.5580  -80.2520 C.ar  557  TYR557      0.0417
     30  CE2      -42.4250  -19.4450  -79.2150 C.ar  557  TYR557      0.0417
     31  CZ       -42.5900  -20.8070  -79.2480 C.ar  557  TYR557      0.1957
     32  OH       -43.3450  -21.4160  -78.2730 O.3   557  TYR557     -0.2866
     33  N        -35.2110  -20.8900  -83.8710 N.3   560  ARG560     -0.1245
     34  CA       -35.7170  -22.0130  -84.6530 C.3   560  ARG560      0.1563
     35  C        -35.7250  -21.6830  -86.1470 C.2   560  ARG560      0.2260
     36  O        -35.3770  -22.5270  -86.9830 O.2   560  ARG560     -0.2867
     37  CB       -37.1210  -22.3830  -84.1720 C.3   560  ARG560      0.0307
     38  CG       -37.8320  -23.4100  -85.0400 C.3   560  ARG560      0.0489
     39  CD       -39.2500  -23.6390  -84.5290 C.3   560  ARG560      0.2205
     40  NE       -39.2130  -24.1600  -83.1620 N.pl3 560  ARG560     -0.0865
     41  CZ       -40.2940  -24.4930  -82.4630 C.cat 560  ARG560      0.5346
     42  NH1      -40.1640  -24.9760  -81.2300 N.pl3 560  ARG560      0.1354
     43  NH2      -41.5010  -24.3460  -83.0000 N.pl3 560  ARG560      0.1354
     44  N        -43.9900  -18.7240  -83.3800 N.3   584  GLY584     -0.1225
     45  CA       -44.5260  -19.9690  -82.8510 C.3   584  GLY584      0.1811
     46  C        -45.4640  -20.6850  -83.8090 C.2   584  GLY584      0.2280
     47  O        -45.5210  -21.9180  -83.8210 O.2   584  GLY584     -0.2866
     48  N        -44.7690  -25.2550  -89.9250 N.3   612  ASN612     -0.1225
     49  CA       -44.5890  -25.1120  -88.4810 C.3   612  ASN612      0.1785
     50  C        -43.9970  -26.4280  -87.9770 C.2   612  ASN612      0.2597
     51  O        -44.7200  -27.4120  -87.7950 O.2   612  ASN612     -0.2718
     52  CB       -45.9080  -24.7990  -87.7890 C.3   612  ASN612      0.1169
     53  CG       -45.7560  -24.6150  -86.2790 C.2   612  ASN612      0.2627
     54  OD1      -44.6490  -24.4290  -85.7670 O.2   612  ASN612     -0.2716
     55  ND2      -46.8770  -24.6580  -85.5630 N.am  612  ASN612     -0.0877
     56  N        -42.6850  -26.4570  -87.7480 N.am  613  ILE613     -0.1966
     57  CA       -42.0670  -27.7220  -87.3790 C.3   613  ILE613      0.1727
     58  C        -42.4980  -28.1420  -85.9740 C.2   613  ILE613      0.2617
     59  O        -43.0430  -27.3600  -85.1870 O.2   613  ILE613     -0.2715
     60  CB       -40.5410  -27.6400  -87.5060 C.3   613  ILE613      0.0290
     61  CG1      -39.9460  -26.6120  -86.5410 C.3   613  ILE613      0.0022
     62  CG2      -40.1780  -27.2890  -88.9430 C.3   613  ILE613      0.0023
     63  CD1      -38.4300  -26.7620  -86.3820 C.3   613  ILE613      0.0001
     64  N        -42.2790  -29.4230  -85.6720 N.am  614  SER614     -0.1936
     65  CA       -42.7150  -30.0010  -84.4000 C.3   614  SER614      0.2055
     66  C        -41.6360  -29.7630  -83.3470 C.2   614  SER614      0.2644
     67  O        -40.7260  -30.5670  -83.1670 O.2   614  SER614     -0.2714
     68  CB       -43.0030  -31.4830  -84.5660 C.3   614  SER614      0.2130
     69  OG       -41.8060  -32.1450  -84.9260 O.3   614  SER614     -0.2179
     70  N        -41.7500  -28.6490  -82.6220 N.am  615  GLY615     -0.1939
     71  CA       -40.7410  -28.3090  -81.6290 C.3   615  GLY615      0.2014
     72  C        -40.6400  -29.2780  -80.4660 C.2   615  GLY615      0.2638
     73  O        -39.6000  -29.3170  -79.7980 O.2   615  GLY615     -0.2714
     74  N        -41.6850  -30.0780  -80.2070 N.am  616  HIS616     -0.1973
     75  CA       -41.5780  -31.0250  -79.1000 C.3   616  HIS616      0.1656
     76  C        -40.5510  -32.1090  -79.3760 C.2   616  HIS616      0.2291
     77  O        -39.9910  -32.6760  -78.4290 O.2   616  HIS616     -0.2864
     78  CB       -42.9360  -31.6480  -78.7810 C.3   616  HIS616      0.0771
     79  CG       -43.9070  -30.6830  -78.1770 C.ar  616  HIS616      0.0820
     80  ND1      -45.2450  -30.9720  -78.0160 N.ar  616  HIS616     -0.2267
     81  CD2      -43.7350  -29.4230  -77.7100 C.ar  616  HIS616      0.1154
     82  CE1      -45.8570  -29.9320  -77.4760 C.ar  616  HIS616      0.1986
     83  NE2      -44.9630  -28.9780  -77.2810 N.ar  616  HIS616     -0.2212
     84  N        -47.3160  -39.0710  -83.4730 N.3   638  MET638     -0.1245
     85  CA       -47.2340  -37.9630  -84.4150 C.3   638  MET638      0.1570
     86  C        -47.4610  -38.4530  -85.8470 C.2   638  MET638      0.2261
     87  O        -48.2460  -37.8600  -86.6030 O.2   638  MET638     -0.2867
     88  CB       -45.8830  -37.2670  -84.2550 C.3   638  MET638      0.0387
     89  CG       -45.7790  -35.9540  -84.9840 C.3   638  MET638      0.0595
     90  SD       -47.0150  -34.7280  -84.5630 S.3   638  MET638     -0.1393
     91  CE       -46.6440  -34.4380  -82.8340 C.3   638  MET638      0.0692
     92  N        -49.1810  -32.4900  -87.2960 N.3   671  HIS671     -0.1241
     93  CA       -48.1070  -31.9830  -88.1350 C.3   671  HIS671      0.1621
     94  C        -47.9610  -32.8650  -89.3630 C.2   671  HIS671      0.2264
     95  O        -48.3650  -34.0320  -89.3670 O.2   671  HIS671     -0.2867
     96  CB       -46.7620  -31.9470  -87.3870 C.3   671  HIS671      0.0745
     97  CG       -46.6590  -30.8660  -86.3510 C.ar  671  HIS671      0.0817
     98  ND1      -46.8150  -29.5270  -86.6460 N.ar  671  HIS671     -0.2268
     99  CD2      -46.3730  -30.9270  -85.0300 C.ar  671  HIS671      0.1154
    100  CE1      -46.6530  -28.8110  -85.5470 C.ar  671  HIS671      0.1986
    101  NE2      -46.3850  -29.6370  -84.5520 N.ar  671  HIS671     -0.2212
@<TRIPOS>BOND
     1    48    49    1
     2    95    94    2
     3    94    93    1
     4    62    60    1
     5    49    50    1
     6    49    52    1
     7    93    96    1
     8    93    92    1
     9    50    51    2
    10    50    56   am
    11    52    53    1
    12    56    57    1
    13    60    57    1
    14    60    61    1
    15    96    97    1
    16    57    58    1
    17    36    35    2
    18    98    97   ar
    19    98   100   ar
    20    87    86    2
    21    61    63    1
    22    97    99   ar
    23    53    54    2
    24    53    55   am
    25    35    34    1
    26    58    64   am
    27    58    59    2
    28    86    85    1
    29    64    65    1
    30   100   101   ar
    31    38    39    1
    32    38    37    1
    33    99   101   ar
    34    89    90    1
    35    89    88    1
    36    69    68    1
    37    34    37    1
    38    34    33    1
    39    68    65    1
    40    90    91    1
    41    39    40    1
    42    85    88    1
    43    85    84    1
    44    65    66    1
    45    24    23    2
    46    47    46    2
    47    46    45    1
    48    44    45    1
    49    66    67    2
    50    66    70   am
    51    23    22    1
    52    40    41    2
    53    43    41    1
    54    70    71    1
    55    41    42    1
    56    25    22    1
    57    25    26    1
    58    22    21    1
    59    71    72    1
    60    27    26   ar
    61    27    29   ar
    62    26    28   ar
    63    72    74   am
    64    72    73    2
    65    29    31   ar
    66    74    75    1
    67    28    30   ar
    68    76    75    1
    69    76    77    2
    70    31    30   ar
    71    31    32    1
    72    75    78    1
    73    78    79    1
    74    79    80   ar
    75    79    81   ar
    76    80    82   ar
    77    81    83   ar
    78    82    83   ar
    79    20    19    1
    80    11     9    1
    81    10     9    1
    82    19    18    1
    83     9     8    2
    84     8     7    1
    85    18    17    1
    86    17    16    1
    87     7     6    1
    88     6     5    1
    89    12    13    1
    90    13    16    1
    91    13    14    1
    92     5     2    1
    93    14    15    2
    94     2     3    1
    95     2     1    1
    96     4     3    2
