@<TRIPOS>MOLECULE
tmp/5x6yA02.pdb
 113 109 0 0 0
SMALL
GASTEIGER

@<TRIPOS>ATOM
      1  N         -6.3330   17.2290  -15.6880 N.3    74  ARG74      -0.1245
      2  CA        -5.2360   18.1710  -15.9170 C.3    74  ARG74       0.1563
      3  C         -5.3950   19.3990  -15.0480 C.2    74  ARG74       0.2260
      4  O         -4.4320   19.8720  -14.4390 O.2    74  ARG74      -0.2867
      5  CB        -5.1630   18.6010  -17.3780 C.3    74  ARG74       0.0307
      6  CG        -4.5560   17.5690  -18.2740 C.3    74  ARG74       0.0489
      7  CD        -3.0420   17.4610  -18.0080 C.3    74  ARG74       0.2205
      8  NE        -2.4830   16.3150  -18.7120 N.pl3  74  ARG74      -0.0865
      9  CZ        -1.5390   16.3910  -19.6450 C.cat  74  ARG74       0.5346
     10  NH1       -1.0360   17.5790  -19.9790 N.pl3  74  ARG74       0.1354
     11  NH2       -1.1020   15.2750  -20.2490 N.pl3  74  ARG74       0.1354
     12  N          2.6040   18.6250  -11.4060 N.3   605  LYS605     -0.1245
     13  CA         2.1980   20.0200  -11.5450 C.3   605  LYS605      0.1561
     14  C          1.9190   20.7400  -10.2370 C.2   605  LYS605      0.2260
     15  O          1.9490   21.9760  -10.2270 O.2   605  LYS605     -0.2867
     16  CB         0.9310   20.1600  -12.4060 C.3   605  LYS605      0.0271
     17  CG         0.9360   19.3850  -13.7280 C.3   605  LYS605      0.0035
     18  CD         1.9010   19.9970  -14.7160 C.3   605  LYS605      0.0206
     19  CE         1.6430   21.4780  -14.9390 C.3   605  LYS605      0.1093
     20  NZ         2.1620   21.8460  -16.2870 N.3   605  LYS605     -0.1314
     21  N          7.3790   31.0380  -16.9560 N.3   622  TYR622     -0.1227
     22  CA         7.9670   29.7650  -16.5640 C.3   622  TYR622      0.1736
     23  C          8.7230   29.1280  -17.7280 C.2   622  TYR622      0.2595
     24  O          9.8600   28.6680  -17.5720 O.2   622  TYR622     -0.2718
     25  CB         6.8710   28.8310  -16.0540 C.3   622  TYR622      0.0548
     26  CG         7.3520   27.4780  -15.5760 C.ar  622  TYR622     -0.0200
     27  CD1        7.9160   27.3250  -14.3080 C.ar  622  TYR622     -0.0009
     28  CD2        7.2170   26.3640  -16.3630 C.ar  622  TYR622     -0.0009
     29  CE1        8.3380   26.0860  -13.8560 C.ar  622  TYR622      0.0417
     30  CE2        7.6330   25.1140  -15.9180 C.ar  622  TYR622      0.0417
     31  CZ         8.1980   24.9870  -14.6640 C.ar  622  TYR622      0.1957
     32  OH         8.6050   23.7490  -14.2140 O.3   622  TYR622     -0.2866
     33  N          8.1120   29.1190  -18.9110 N.am  623  TYR623     -0.1976
     34  CA         8.7520   28.4920  -20.0570 C.3   623  TYR623      0.1639
     35  C          9.8960   29.3440  -20.5980 C.2   623  TYR623      0.2290
     36  O         10.8770   28.7930  -21.1130 O.2   623  TYR623     -0.2864
     37  CB         7.7060   28.2050  -21.1420 C.3   623  TYR623      0.0560
     38  CG         6.6950   27.1720  -20.6800 C.ar  623  TYR623     -0.0198
     39  CD1        7.0620   25.8350  -20.5160 C.ar  623  TYR623     -0.0009
     40  CD2        5.3930   27.5380  -20.3640 C.ar  623  TYR623     -0.0009
     41  CE1        6.1710   24.8880  -20.0700 C.ar  623  TYR623      0.0417
     42  CE2        4.4720   26.5820  -19.9290 C.ar  623  TYR623      0.0417
     43  CZ         4.8720   25.2640  -19.7810 C.ar  623  TYR623      0.1957
     44  OH         3.9800   24.3070  -19.3510 O.3   623  TYR623     -0.2866
     45  N         12.8260   28.4330  -18.5300 N.3   626  ARG626     -0.1245
     46  CA        13.3730   27.1480  -18.9400 C.3   626  ARG626      0.1563
     47  C         14.3560   27.3140  -20.0900 C.2   626  ARG626      0.2260
     48  O         15.4180   26.6800  -20.1050 O.2   626  ARG626     -0.2867
     49  CB        12.2340   26.2260  -19.3470 C.3   626  ARG626      0.0307
     50  CG        12.6750   24.8360  -19.7850 C.3   626  ARG626      0.0489
     51  CD        11.4810   24.0310  -20.3240 C.3   626  ARG626      0.2205
     52  NE        10.5600   23.6380  -19.2550 N.pl3 626  ARG626     -0.0865
     53  CZ         9.4110   22.9960  -19.4660 C.cat 626  ARG626      0.5346
     54  NH1        8.6450   22.6710  -18.4400 N.pl3 626  ARG626      0.1354
     55  NH2        9.0170   22.6920  -20.7070 N.pl3 626  ARG626      0.1354
     56  N          6.1270   26.6470  -24.1840 N.3   650  GLY650     -0.1225
     57  CA         5.7150   25.3160  -23.7690 C.3   650  GLY650      0.1811
     58  C          5.9800   24.2460  -24.8090 C.2   650  GLY650      0.2280
     59  O          6.2410   23.0870  -24.4620 O.2   650  GLY650     -0.2866
     60  N         12.2100   20.1550  -27.3800 N.3   678  ASN678     -0.1225
     61  CA        11.2210   20.4120  -26.3240 C.3   678  ASN678      0.1785
     62  C         11.6060   19.5400  -25.1280 C.2   678  ASN678      0.2597
     63  O         11.3710   18.3240  -25.1500 O.2   678  ASN678     -0.2718
     64  CB         9.8020   20.0950  -26.8140 C.3   678  ASN678      0.1169
     65  CG         8.7350   20.3530  -25.7290 C.2   678  ASN678      0.2627
     66  OD1        9.0190   20.9530  -24.6890 O.2   678  ASN678     -0.2716
     67  ND2        7.5080   19.9350  -25.9920 N.am  678  ASN678     -0.0877
     68  N         12.2530   20.1200  -24.1040 N.am  679  ILE679     -0.1966
     69  CA        12.8220   19.2280  -23.0890 C.3   679  ILE679      0.1727
     70  C         11.7060   18.6630  -22.2210 C.2   679  ILE679      0.2617
     71  O         10.5750   19.1570  -22.2090 O.2   679  ILE679     -0.2715
     72  CB        13.8930   19.9000  -22.2160 C.3   679  ILE679      0.0290
     73  CG1       13.2580   20.8730  -21.2270 C.3   679  ILE679      0.0022
     74  CG2       14.9820   20.5360  -23.0640 C.3   679  ILE679      0.0023
     75  CD1       14.3060   21.6570  -20.4280 C.3   679  ILE679      0.0001
     76  N         12.0510   17.6150  -21.4770 N.am  680  SER680     -0.1936
     77  CA        11.1680   16.8400  -20.6120 C.3   680  SER680      0.2055
     78  C         10.9170   17.5860  -19.2940 C.2   680  SER680      0.2644
     79  O         11.6250   17.3960  -18.3100 O.2   680  SER680     -0.2714
     80  CB        11.8180   15.4820  -20.3590 C.3   680  SER680      0.2130
     81  OG        10.9350   14.6530  -19.6600 O.3   680  SER680     -0.2179
     82  N          9.9060   18.4560  -19.2630 N.am  681  GLY681     -0.1939
     83  CA         9.7030   19.3030  -18.0890 C.3   681  GLY681      0.2014
     84  C          9.3070   18.5670  -16.8160 C.2   681  GLY681      0.2638
     85  O          9.6050   19.0400  -15.7050 O.2   681  GLY681     -0.2714
     86  N          8.6600   17.4000  -16.9420 N.am  682  HIS682     -0.1973
     87  CA         8.2400   16.6610  -15.7460 C.3   682  HIS682      0.1656
     88  C          9.4280   16.1320  -14.9330 C.2   682  HIS682      0.2291
     89  O          9.3220   15.9670  -13.7150 O.2   682  HIS682     -0.2864
     90  CB         7.3250   15.5060  -16.1380 C.3   682  HIS682      0.0771
     91  CG         5.9500   15.9420  -16.5500 C.ar  682  HIS682      0.0820
     92  ND1        4.9980   15.0600  -17.0140 N.ar  682  HIS682     -0.2267
     93  CD2        5.3700   17.1690  -16.5700 C.ar  682  HIS682      0.1154
     94  CE1        3.8900   15.7250  -17.3070 C.ar  682  HIS682      0.1986
     95  NE2        4.0900   17.0070  -17.0470 N.ar  682  HIS682     -0.2212
     96  N          9.5930    6.7840  -19.7040 N.3   704  MET704     -0.1245
     97  CA         9.9170    7.7840  -20.7130 C.3   704  MET704      0.1570
     98  C         10.8730    7.2100  -21.7500 C.2   704  MET704      0.2261
     99  O         10.6820    7.4060  -22.9590 O.2   704  MET704     -0.2867
    100  CB        10.5090    9.0180  -20.0520 C.3   704  MET704      0.0387
    101  CG        11.0670   10.0170  -21.0390 C.3   704  MET704      0.0595
    102  SD         9.7800   10.8050  -22.0250 S.3   704  MET704     -0.1393
    103  CE         8.9430   11.8540  -20.8310 C.3   704  MET704      0.0692
    104  N          9.2900   11.7730  -25.8910 N.3   737  HIS737     -0.1241
    105  CA        10.4530   12.6330  -25.9570 C.3   737  HIS737      0.1621
    106  C         11.6290   11.8090  -26.4480 C.2   737  HIS737      0.2264
    107  O         11.6790   10.5880  -26.2780 O.2   737  HIS737     -0.2867
    108  CB        10.7990   13.2510  -24.5900 C.3   737  HIS737      0.0745
    109  CG         9.9820   14.4490  -24.2330 C.ar  737  HIS737      0.0817
    110  ND1       10.1490   15.6740  -24.8370 N.ar  737  HIS737     -0.2268
    111  CD2        8.9920   14.6120  -23.3170 C.ar  737  HIS737      0.1154
    112  CE1        9.2950   16.5430  -24.3120 C.ar  737  HIS737      0.1986
    113  NE2        8.5820   15.9230  -23.3890 N.ar  737  HIS737     -0.2212
@<TRIPOS>BOND
     1    60    61    1
     2    64    61    1
     3    64    65    1
     4   106   107    2
     5   106   105    1
     6    61    62    1
     7    67    65   am
     8   105   104    1
     9   105   108    1
    10    65    66    2
    11    63    62    2
    12    62    68   am
    13   110   112   ar
    14   110   109   ar
    15    58    59    2
    16    58    57    1
    17   108   109    1
    18   112   113   ar
    19   109   111   ar
    20    56    57    1
    21    68    69    1
    22   113   111   ar
    23    69    70    1
    24    69    72    1
    25    74    72    1
    26    99    98    2
    27    70    71    2
    28    70    76   am
    29    72    73    1
    30   102   101    1
    31   102   103    1
    32    98    97    1
    33    76    77    1
    34    73    75    1
    35    37    38    1
    36    37    34    1
    37    36    35    2
    38   101   100    1
    39    97   100    1
    40    97    96    1
    41    55    53    1
    42    38    39   ar
    43    38    40   ar
    44    77    80    1
    45    77    78    1
    46    35    34    1
    47    39    41   ar
    48    40    42   ar
    49    80    81    1
    50    51    50    1
    51    51    52    1
    52    11     9    1
    53    48    47    2
    54    47    46    1
    55    41    43   ar
    56    34    33    1
    57    10     9    1
    58    42    43   ar
    59    50    49    1
    60    43    44    1
    61     9     8    2
    62    53    52    2
    63    53    54    1
    64    49    46    1
    65    78    82   am
    66    78    79    2
    67    82    83    1
    68    46    45    1
    69    33    23   am
    70     8     7    1
    71     6     7    1
    72     6     5    1
    73    83    84    1
    74    23    24    2
    75    23    22    1
    76     5     2    1
    77    94    95   ar
    78    94    92   ar
    79    95    93   ar
    80    92    91   ar
    81    21    22    1
    82    86    84   am
    83    86    87    1
    84    84    85    2
    85    93    91   ar
    86    22    25    1
    87    91    90    1
    88    28    30   ar
    89    28    26   ar
    90    20    19    1
    91    90    87    1
    92    25    26    1
    93    30    31   ar
    94     2     1    1
    95     2     3    1
    96    87    88    1
    97    26    27   ar
    98     3     4    2
    99    19    18    1
   100    88    89    2
   101    18    17    1
   102    31    32    1
   103    31    29   ar
   104    27    29   ar
   105    17    16    1
   106    16    13    1
   107    13    12    1
   108    13    14    1
   109    14    15    2
