@<TRIPOS>MOLECULE
tmp/5x6yB00.pdb
 164 160 0 0 0
SMALL
GASTEIGER

@<TRIPOS>ATOM
      1  N         -4.4000   67.9420    2.9320 N.3   206  VAL206     -0.1231
      2  CA        -3.5950   68.3390    4.0800 C.3   206  VAL206      0.1692
      3  C         -2.2300   67.6740    3.9620 C.2   206  VAL206      0.2593
      4  O         -2.1250   66.4430    3.9130 O.2   206  VAL206     -0.2718
      5  CB        -4.2810   67.9780    5.4020 C.3   206  VAL206      0.0266
      6  CG1       -3.3850   68.3510    6.5660 C.3   206  VAL206      0.0020
      7  CG2       -5.5990   68.6960    5.5200 C.3   206  VAL206      0.0020
      8  N         -1.1800   68.4890    3.9170 N.am  207  GLY207     -0.1942
      9  CA         0.1660   67.9940    3.7180 C.3   207  GLY207      0.2014
     10  C          0.4890   67.9340    2.2440 C.2   207  GLY207      0.2639
     11  O         -0.3390   67.4850    1.4480 O.2   207  GLY207     -0.2714
     12  N          1.6690   68.4000    1.8510 N.am  208  TYR208     -0.1959
     13  CA         1.9730   68.4380    0.4310 C.3   208  TYR208      0.1771
     14  C          2.2480   67.0250   -0.0730 C.2   208  TYR208      0.2619
     15  O          3.0150   66.2740    0.5380 O.2   208  TYR208     -0.2715
     16  CB         3.1570   69.3570    0.1350 C.3   208  TYR208      0.0574
     17  CG         3.5440   69.2540   -1.3110 C.ar  208  TYR208     -0.0198
     18  CD1        2.6100   69.5090   -2.3110 C.ar  208  TYR208     -0.0009
     19  CD2        4.8130   68.8250   -1.6850 C.ar  208  TYR208     -0.0009
     20  CE1        2.9450   69.3720   -3.6450 C.ar  208  TYR208      0.0417
     21  CE2        5.1600   68.6940   -3.0130 C.ar  208  TYR208      0.0417
     22  CZ         4.2230   68.9700   -3.9930 C.ar  208  TYR208      0.1957
     23  OH         4.5650   68.8340   -5.3210 O.3   208  TYR208     -0.2866
     24  N          1.6200   66.6760   -1.2020 N.am  209  ASN209     -0.1972
     25  CA         1.5980   65.3330   -1.7660 C.3   209  ASN209      0.1688
     26  C          1.3100   65.4310   -3.2600 C.2   209  ASN209      0.2292
     27  O          0.1450   65.5480   -3.6590 O.2   209  ASN209     -0.2864
     28  CB         0.5430   64.4970   -1.0450 C.3   209  ASN209      0.1181
     29  CG         0.6950   63.0240   -1.2870 C.2   209  ASN209      0.2629
     30  OD1        1.1550   62.5880   -2.3450 O.2   209  ASN209     -0.2716
     31  ND2        0.3410   62.2400   -0.2830 N.am  209  ASN209     -0.0877
     32  N         -2.8200   72.3500    1.9640 N.3   226  ILE226     -0.1231
     33  CA        -2.6790   73.0750    3.2200 C.3   226  ILE226      0.1692
     34  C         -1.4510   72.5200    3.9270 C.2   226  ILE226      0.2592
     35  O         -1.3750   71.3110    4.1880 O.2   226  ILE226     -0.2718
     36  CB        -3.9210   72.9420    4.1120 C.3   226  ILE226      0.0266
     37  CG1       -5.1910   73.2900    3.3360 C.3   226  ILE226      0.0019
     38  CG2       -3.7800   73.8200    5.3460 C.3   226  ILE226      0.0020
     39  CD1       -6.4720   73.1600    4.1680 C.3   226  ILE226      0.0001
     40  N         -0.4910   73.3920    4.2350 N.am  227  GLU227     -0.1966
     41  CA         0.7550   72.9730    4.8590 C.3   227  GLU227      0.1733
     42  C          1.0630   73.8340    6.0760 C.2   227  GLU227      0.2616
     43  O          0.8810   75.0550    6.0500 O.2   227  GLU227     -0.2715
     44  CB         1.9200   73.0470    3.8680 C.3   227  GLU227      0.0429
     45  CG         2.4070   71.6970    3.3570 C.3   227  GLU227      0.1163
     46  CD         3.1870   70.9100    4.3940 C.2   227  GLU227      0.3649
     47  OE1        3.4900   69.7290    4.1250 O.co2 227  GLU227     -0.2457
     48  OE2        3.4930   71.4590    5.4750 O.co2 227  GLU227     -0.2457
     49  N          1.5450   73.1860    7.1370 N.am  228  LYS228     -0.1963
     50  CA         2.0050   73.8580    8.3470 C.3   228  LYS228      0.1728
     51  C          3.4470   74.3280    8.2200 C.2   228  LYS228      0.2616
     52  O          3.7680   75.4640    8.5880 O.2   228  LYS228     -0.2715
     53  CB         1.8880   72.9130    9.5410 C.3   228  LYS228      0.0311
     54  CG         1.3740   73.5220   10.8450 C.3   228  LYS228      0.0038
     55  CD         0.8260   72.4130   11.7540 C.3   228  LYS228      0.0206
     56  CE         1.7380   71.1700   11.7160 C.3   228  LYS228      0.1093
     57  NZ         1.1940   69.9720   12.4240 N.3   228  LYS228     -0.1314
     58  N          4.3220   73.4690    7.7030 N.am  229  SER229     -0.1950
     59  CA         5.7340   73.7900    7.5180 C.3   229  SER229      0.1924
     60  C          5.9770   74.1070    6.0460 C.2   229  SER229      0.2314
     61  O          5.8480   73.2270    5.1850 O.2   229  SER229     -0.2863
     62  CB         6.6150   72.6310    7.9830 C.3   229  SER229      0.2116
     63  OG         6.8070   72.6740    9.3850 O.3   229  SER229     -0.2180
     64  N         -0.9880   76.9950    6.8990 N.3   369  GLY369     -0.1210
     65  CA        -1.7810   77.0700    8.1120 C.3   369  GLY369      0.1956
     66  C         -1.9690   75.7150    8.7590 C.2   369  GLY369      0.2612
     67  O         -1.6700   74.6670    8.1860 O.2   369  GLY369     -0.2717
     68  N         -2.4760   75.7620    9.9900 N.am  370  ASP370     -0.1959
     69  CA        -2.7750   74.5660   10.7630 C.3   370  ASP370      0.1840
     70  C         -4.1480   74.0490   10.3510 C.2   370  ASP370      0.2622
     71  O         -5.1600   74.7380   10.5210 O.2   370  ASP370     -0.2715
     72  CB        -2.7260   74.8650   12.2620 C.3   370  ASP370      0.1450
     73  CG        -2.9090   73.6160   13.1260 C.2   370  ASP370      0.3671
     74  OD1       -3.0460   72.5080   12.5600 O.co2 370  ASP370     -0.2456
     75  OD2       -2.9190   73.7460   14.3750 O.co2 370  ASP370     -0.2456
     76  N         -4.1770   72.8340    9.8080 N.am  371  ALA371     -0.1963
     77  CA        -5.4220   72.2790    9.2950 C.3   371  ALA371      0.1728
     78  C         -6.4390   72.0690   10.4040 C.2   371  ALA371      0.2616
     79  O         -7.6490   72.1170   10.1530 O.2   371  ALA371     -0.2715
     80  CB        -5.1320   70.9690    8.5700 C.3   371  ALA371      0.0334
     81  N         -5.9700   71.8640   11.6400 N.am  372  LEU372     -0.1977
     82  CA        -6.8650   71.6740   12.7780 C.3   372  LEU372      0.1596
     83  C         -7.6760   72.9170   13.1180 C.2   372  LEU372      0.2287
     84  O         -8.6000   72.8290   13.9350 O.2   372  LEU372     -0.2864
     85  CB        -6.0670   71.2450   14.0100 C.3   372  LEU372      0.0297
     86  CG        -5.3730   69.8810   13.9760 C.3   372  LEU372      0.0022
     87  CD1       -4.6530   69.6520   15.2940 C.3   372  LEU372      0.0001
     88  CD2       -6.3470   68.7330   13.6840 C.3   372  LEU372      0.0001
     89  N         -4.7440   62.7040    4.5050 N.3   385  SER385     -0.1202
     90  CA        -4.0800   61.4390    4.2150 C.3   385  SER385      0.2020
     91  C         -2.6870   61.4500    4.8280 C.2   385  SER385      0.2619
     92  O         -1.7750   62.0830    4.2820 O.2   385  SER385     -0.2717
     93  CB        -3.9840   61.2250    2.7080 C.3   385  SER385      0.2103
     94  OG        -3.0520   62.1400    2.1530 O.3   385  SER385     -0.2182
     95  N         -2.5200   60.7480    5.9560 N.am  386  TYR386     -0.1961
     96  CA        -1.2010   60.5500    6.5730 C.3   386  TYR386      0.1771
     97  C         -0.5880   61.8610    7.0690 C.2   386  TYR386      0.2620
     98  O          0.6360   62.0170    7.0940 O.2   386  TYR386     -0.2715
     99  CB        -0.2300   59.8670    5.6030 C.3   386  TYR386      0.0574
    100  CG        -0.6790   58.5140    5.1140 C.ar  386  TYR386     -0.0198
    101  CD1       -0.3730   58.0830    3.8230 C.ar  386  TYR386     -0.0009
    102  CD2       -1.4180   57.6710    5.9290 C.ar  386  TYR386     -0.0009
    103  CE1       -0.7800   56.8340    3.3640 C.ar  386  TYR386      0.0417
    104  CE2       -1.8360   56.4240    5.4750 C.ar  386  TYR386      0.0417
    105  CZ        -1.5060   56.0060    4.1940 C.ar  386  TYR386      0.1957
    106  OH        -1.9130   54.7650    3.7360 O.3   386  TYR386     -0.2866
    107  N         -1.4210   62.8210    7.4600 N.am  387  SER387     -0.1936
    108  CA        -0.9370   64.1420    7.8480 C.3   387  SER387      0.2055
    109  C         -1.2890   64.4730    9.2900 C.2   387  SER387      0.2642
    110  O         -0.3860   64.6710   10.1120 O.2   387  SER387     -0.2714
    111  CB        -1.5080   65.1970    6.8990 C.3   387  SER387      0.2130
    112  OG        -1.1590   64.9000    5.5630 O.3   387  SER387     -0.2179
    113  N         -2.5800   64.5300    9.6190 N.am  388  LEU388     -0.1977
    114  CA        -3.0150   64.8480   10.9750 C.3   388  LEU388      0.1596
    115  C         -2.6280   63.7770   11.9900 C.2   388  LEU388      0.2287
    116  O         -2.6580   64.0450   13.1980 O.2   388  LEU388     -0.2864
    117  CB        -4.5280   65.0620   10.9950 C.3   388  LEU388      0.0297
    118  CG        -5.0070   66.1850   10.0800 C.3   388  LEU388      0.0022
    119  CD1       -6.5080   66.4040   10.2410 C.3   388  LEU388      0.0001
    120  CD2       -4.2300   67.4680   10.3680 C.3   388  LEU388      0.0001
    121  N          0.3760   62.6940   12.2860 N.3   390  ASN390     -0.1240
    122  CA         1.7340   62.9890   12.7280 C.3   390  ASN390      0.1653
    123  C          1.7180   63.5390   14.1480 C.2   390  ASN390      0.2266
    124  O          0.8190   64.2920   14.5290 O.2   390  ASN390     -0.2867
    125  CB         2.4120   63.9850   11.7850 C.3   390  ASN390      0.1155
    126  CG         3.8920   64.1710   12.1030 C.2   390  ASN390      0.2627
    127  OD1        4.2540   64.7970   13.1110 O.2   390  ASN390     -0.2716
    128  ND2        4.7560   63.6030   11.2570 N.am  390  ASN390     -0.0877
    129  N          3.1050   65.7630   15.8070 N.3   392  SER392     -0.1202
    130  CA         3.0170   67.1860   16.1200 C.3   392  SER392      0.2020
    131  C          1.5810   67.5820   16.4490 C.2   392  SER392      0.2618
    132  O          1.3440   68.4070   17.3410 O.2   392  SER392     -0.2717
    133  CB         3.5750   68.0230   14.9650 C.3   392  SER392      0.2103
    134  OG         2.9040   67.7420   13.7520 O.3   392  SER392     -0.2182
    135  N          0.6060   66.9930   15.7600 N.am  393  ASN393     -0.1974
    136  CA        -0.7870   67.1630   16.1480 C.3   393  ASN393      0.1688
    137  C         -1.1090   66.1820   17.2630 C.2   393  ASN393      0.2292
    138  O         -0.8960   64.9750   17.1130 O.2   393  ASN393     -0.2864
    139  CB        -1.7230   66.9250   14.9690 C.3   393  ASN393      0.1181
    140  CG        -1.2210   67.5410   13.6830 C.2   393  ASN393      0.2629
    141  OD1       -1.5860   68.6650   13.3370 O.2   393  ASN393     -0.2716
    142  ND2       -0.3860   66.8010   12.9580 N.am  393  ASN393     -0.0877
    143  N         10.2060   59.6410   11.1570 N.3   447  TRP447     -0.1241
    144  CA         9.0070   60.3960   11.4970 C.3   447  TRP447      0.1605
    145  C          8.1550   59.6350   12.5060 C.2   447  TRP447      0.2264
    146  O          8.2860   58.4200   12.6500 O.2   447  TRP447     -0.2867
    147  CB         8.1960   60.7250   10.2420 C.3   447  TRP447      0.0550
    148  CG         7.6570   59.5490    9.4680 C.ar  447  TRP447      0.0003
    149  CD1        6.3400   59.2080    9.3210 C.ar  447  TRP447      0.0946
    150  CD2        8.4060   58.5860    8.7020 C.ar  447  TRP447      0.0152
    151  NE1        6.2230   58.0870    8.5300 N.ar  447  TRP447     -0.2442
    152  CE2        7.4730   57.6870    8.1330 C.ar  447  TRP447      0.0810
    153  CE3        9.7710   58.3910    8.4470 C.ar  447  TRP447      0.0012
    154  CZ2        7.8640   56.6060    7.3250 C.ar  447  TRP447      0.0191
    155  CZ3       10.1590   57.3130    7.6460 C.ar  447  TRP447      0.0001
    156  CH2        9.2060   56.4360    7.0980 C.ar  447  TRP447      0.0015
    157  N          4.2080   59.1490   14.2570 N.3   449  ASP449     -0.1239
    158  CA         2.7670   59.3150   14.1790 C.3   449  ASP449      0.1674
    159  C          2.1140   58.7400   15.4260 C.2   449  ASP449      0.2266
    160  O          2.6610   57.8590   16.0970 O.2   449  ASP449     -0.2867
    161  CB         2.1810   58.6150   12.9430 C.3   449  ASP449      0.1410
    162  CG         2.3640   59.4160   11.6690 C.2   449  ASP449      0.3668
    163  OD1        3.4910   59.9000   11.4110 O.co2 449  ASP449     -0.2456
    164  OD2        1.3690   59.5590   10.9280 O.co2 449  ASP449     -0.2456
@<TRIPOS>BOND
     1    23    22    1
     2    22    20   ar
     3    22    21   ar
     4    27    26    2
     5    20    18   ar
     6    26    25    1
     7    21    19   ar
     8    30    29    2
     9    18    17   ar
    10    25    24    1
    11    25    28    1
    12    19    17   ar
    13    17    16    1
    14    29    28    1
    15    29    31   am
    16    24    14   am
    17    14    13    1
    18    14    15    2
    19    16    13    1
    20    13    12    1
    21    11    10    2
    22    12    10   am
    23    32    33    1
    24    94    93    1
    25    10     9    1
    26    93    90    1
    27     1     2    1
    28    33    34    1
    29    33    36    1
    30    37    36    1
    31    37    39    1
    32    45    44    1
    33    45    46    1
    34   103   101   ar
    35   103   105   ar
    36     9     8    1
    37   106   105    1
    38   101   100   ar
    39    44    41    1
    40     4     3    2
    41     8     3   am
    42    34    35    2
    43    34    40   am
    44     3     2    1
    45     2     5    1
    46    36    38    1
    47    47    46   ar
    48   105   104   ar
    49    90    89    1
    50    90    91    1
    51    40    41    1
    52    92    91    2
    53    46    48   ar
    54    91    95   am
    55    41    42    1
    56   100    99    1
    57   100   102   ar
    58    61    60    2
    59     5     7    1
    60     5     6    1
    61   104   102   ar
    62   112   111    1
    63    99    96    1
    64    95    96    1
    65    60    59    1
    66    43    42    2
    67    42    49   am
    68    96    97    1
    69   111   108    1
    70    64    65    1
    71    97    98    2
    72    97   107   am
    73   156   154   ar
    74   156   155   ar
    75    49    50    1
    76   154   152   ar
    77   107   108    1
    78    59    58    1
    79    59    62    1
    80   155   153   ar
    81    58    51   am
    82   108   109    1
    83    62    63    1
    84    65    66    1
    85   152   151   ar
    86   152   150   ar
    87    67    66    2
    88    51    50    1
    89    51    52    2
    90    50    53    1
    91   153   150   ar
    92   151   149   ar
    93    80    77    1
    94   150   148   ar
    95    66    68   am
    96   109   113   am
    97   109   110    2
    98    77    76    1
    99    77    78    1
   100   149   148   ar
   101   148   147    1
   102    53    54    1
   103   113   114    1
   104    76    70   am
   105    68    69    1
   106   118   119    1
   107   118   120    1
   108   118   117    1
   109    79    78    2
   110   147   144    1
   111    70    71    2
   112    70    69    1
   113    78    81   am
   114    69    72    1
   115    54    55    1
   116   164   162   ar
   117   114   117    1
   118   114   115    1
   119   143   144    1
   120   128   126   am
   121   163   162   ar
   122   144   145    1
   123    81    82    1
   124   162   161    1
   125    56    55    1
   126    56    57    1
   127   125   126    1
   128   125   122    1
   129   115   116    2
   130   126   127    2
   131    72    73    1
   132   121   122    1
   133   145   146    2
   134    74    73   ar
   135   122   123    1
   136    82    83    1
   137    82    85    1
   138   161   158    1
   139   142   140   am
   140    83    84    2
   141    73    75   ar
   142   141   140    2
   143   140   139    1
   144    88    86    1
   145   134   133    1
   146    86    85    1
   147    86    87    1
   148   123   124    2
   149   158   157    1
   150   158   159    1
   151   133   130    1
   152   139   136    1
   153   159   160    2
   154   135   136    1
   155   135   131   am
   156   129   130    1
   157   130   131    1
   158   136   137    1
   159   131   132    2
   160   138   137    2
