@<TRIPOS>MOLECULE
tmp/5x6yC01.pdb
 209 211 0 0 0
SMALL
GASTEIGER

@<TRIPOS>ATOM
      1  N        -29.8370   12.2190  -79.2690 N.3   245  GLN245     -0.1245
      2  CA       -29.1970   13.5110  -79.5090 C.3   245  GLN245      0.1566
      3  C        -28.0470   13.7270  -78.5320 C.2   245  GLN245      0.2260
      4  O        -27.8940   14.8030  -77.9400 O.2   245  GLN245     -0.2867
      5  CB       -30.2210   14.6390  -79.4140 C.3   245  GLN245      0.0367
      6  CG       -31.1040   14.7760  -80.6510 C.3   245  GLN245      0.0905
      7  CD       -32.5580   15.0980  -80.3160 C.2   245  GLN245      0.2608
      8  OE1      -32.8470   15.8990  -79.4200 O.2   245  GLN245     -0.2717
      9  NE2      -33.4790   14.4700  -81.0390 N.am  245  GLN245     -0.0878
     10  N        -25.7080   16.7270  -78.4360 N.3   248  LEU248     -0.1245
     11  CA       -26.2470   17.9350  -77.8340 C.3   248  LEU248      0.1561
     12  C        -26.4560   17.7770  -76.3280 C.2   248  LEU248      0.2260
     13  O        -26.3310   18.7670  -75.5960 O.2   248  LEU248     -0.2867
     14  CB       -27.5450   18.3290  -78.5420 C.3   248  LEU248      0.0270
     15  CG       -27.3430   18.8910  -79.9570 C.3   248  LEU248      0.0019
     16  CD1      -28.5010   18.5050  -80.8830 C.3   248  LEU248      0.0001
     17  CD2      -27.1500   20.4140  -79.9180 C.3   248  LEU248      0.0001
     18  N        -29.5030   30.7650  -74.4440 N.3   264  TYR264     -0.1227
     19  CA       -29.4000   29.7170  -75.4530 C.3   264  TYR264      0.1736
     20  C        -29.7170   30.3220  -76.8210 C.2   264  TYR264      0.2595
     21  O        -30.8840   30.5110  -77.1750 O.2   264  TYR264     -0.2718
     22  CB       -30.3280   28.5520  -75.1180 C.3   264  TYR264      0.0548
     23  CG       -29.8750   27.2350  -75.7070 C.ar  264  TYR264     -0.0200
     24  CD1      -29.0080   27.2010  -76.7950 C.ar  264  TYR264     -0.0009
     25  CD2      -30.3060   26.0230  -75.1750 C.ar  264  TYR264     -0.0009
     26  CE1      -28.5900   25.9950  -77.3500 C.ar  264  TYR264      0.0417
     27  CE2      -29.8860   24.8090  -75.7180 C.ar  264  TYR264      0.0417
     28  CZ       -29.0270   24.8000  -76.8000 C.ar  264  TYR264      0.1957
     29  OH       -28.6100   23.6070  -77.3520 O.3   264  TYR264     -0.2866
     30  N        -28.6710   30.6090  -77.5860 N.am  265  ILE265     -0.1966
     31  CA       -28.8030   31.1770  -78.9240 C.3   265  ILE265      0.1727
     32  C        -28.8040   30.0330  -79.9280 C.2   265  ILE265      0.2617
     33  O        -27.7970   29.3300  -80.0840 O.2   265  ILE265     -0.2715
     34  CB       -27.6710   32.1710  -79.2320 C.3   265  ILE265      0.0290
     35  CG1      -27.1960   32.8970  -77.9780 C.3   265  ILE265      0.0022
     36  CG2      -28.1110   33.1750  -80.2500 C.3   265  ILE265      0.0023
     37  CD1      -26.0980   33.9010  -78.2670 C.3   265  ILE265      0.0001
     38  N        -29.9240   29.8610  -80.6210 N.am  266  GLY266     -0.1940
     39  CA       -30.0920   28.7530  -81.5380 C.3   266  GLY266      0.2014
     40  C        -30.7430   27.5710  -80.8510 C.2   266  GLY266      0.2639
     41  O        -30.4200   26.4170  -81.1320 O.2   266  GLY266     -0.2714
     42  N        -31.6780   27.8560  -79.9500 N.am  267  ALA267     -0.1963
     43  CA       -32.1920   26.8570  -79.0280 C.3   267  ALA267      0.1728
     44  C        -33.2100   25.9140  -79.6580 C.2   267  ALA267      0.2616
     45  O        -33.5440   24.9020  -79.0380 O.2   267  ALA267     -0.2715
     46  CB       -32.8110   27.5530  -77.8080 C.3   267  ALA267      0.0334
     47  N        -33.7080   26.2020  -80.8770 N.am  268  TYR268     -0.1960
     48  CA       -34.8030   25.3560  -81.3550 C.3   268  TYR268      0.1756
     49  C        -34.2480   24.1540  -82.1030 C.2   268  TYR268      0.2461
     50  O        -33.3750   24.3220  -82.9620 O.2   268  TYR268     -0.2730
     51  CB       -35.7370   26.1370  -82.2680 C.3   268  TYR268      0.0574
     52  CG       -37.0200   25.4090  -82.6400 C.ar  268  TYR268     -0.0198
     53  CD1      -38.1850   25.6060  -81.9160 C.ar  268  TYR268     -0.0009
     54  CD2      -37.0630   24.5350  -83.7230 C.ar  268  TYR268     -0.0009
     55  CE1      -39.3590   24.9490  -82.2530 C.ar  268  TYR268      0.0417
     56  CE2      -38.2330   23.8750  -84.0670 C.ar  268  TYR268      0.0417
     57  CZ       -39.3770   24.0890  -83.3290 C.ar  268  TYR268      0.1957
     58  OH       -40.5450   23.4430  -83.6630 O.3   268  TYR268     -0.2866
     59  N        -34.7400   22.9340  -81.8350 N.am  269  PRO269     -0.2716
     60  CA       -35.7960   22.5870  -80.8730 C.3   269  PRO269      0.1536
     61  C        -35.2890   22.1450  -79.4900 C.2   269  PRO269      0.2598
     62  O        -36.0600   22.1940  -78.5230 O.2   269  PRO269     -0.2715
     63  CB       -36.4980   21.4240  -81.5580 C.3   269  PRO269      0.0310
     64  CG       -35.3850   20.7230  -82.2770 C.3   269  PRO269      0.0237
     65  CD       -34.3910   21.7860  -82.6920 C.3   269  PRO269      0.0939
     66  N        -34.0270   21.7140  -79.4070 N.am  270  ALA270     -0.1964
     67  CA       -33.4320   21.2170  -78.1630 C.3   270  ALA270      0.1728
     68  C        -34.3590   20.2080  -77.4790 C.2   270  ALA270      0.2617
     69  O        -34.6300   20.2750  -76.2720 O.2   270  ALA270     -0.2715
     70  CB       -33.0720   22.3710  -77.2200 C.3   270  ALA270      0.0334
     71  N        -34.8600   19.2650  -78.2810 N.am  271  THR271     -0.1937
     72  CA       -35.7540   18.2440  -77.7490 C.3   271  THR271      0.2028
     73  C        -35.0700   17.4100  -76.6680 C.2   271  THR271      0.2642
     74  O        -35.7420   16.8950  -75.7650 O.2   271  THR271     -0.2714
     75  CB       -36.2500   17.3540  -78.8900 C.3   271  THR271      0.1808
     76  OG1      -35.1230   16.8320  -79.6060 O.3   271  THR271     -0.2208
     77  CG2      -37.1100   18.1620  -79.8600 C.3   271  THR271      0.0379
     78  N        -33.7390   17.2840  -76.7300 N.am  272  HIS272     -0.1973
     79  CA       -33.0110   16.5150  -75.7270 C.3   272  HIS272      0.1656
     80  C        -33.1420   17.1130  -74.3350 C.2   272  HIS272      0.2291
     81  O        -32.9590   16.3950  -73.3470 O.2   272  HIS272     -0.2864
     82  CB       -31.5350   16.4230  -76.0980 C.3   272  HIS272      0.0771
     83  CG       -30.8660   17.7550  -76.1870 C.ar  272  HIS272      0.0820
     84  ND1      -31.0700   18.6170  -77.2430 N.ar  272  HIS272     -0.2267
     85  CD2      -30.0190   18.3870  -75.3410 C.ar  272  HIS272      0.1154
     86  CE1      -30.3710   19.7210  -77.0470 C.ar  272  HIS272      0.1986
     87  NE2      -29.7250   19.6080  -75.8990 N.ar  272  HIS272     -0.2212
     88  N        -33.2410   32.2590  -77.7820 N.3   286  PHE286     -0.1227
     89  CA       -33.3950   33.0230  -79.0160 C.3   286  PHE286      0.1736
     90  C        -33.3560   32.0670  -80.2020 C.2   286  PHE286      0.2595
     91  O        -32.3640   31.3510  -80.3920 O.2   286  PHE286     -0.2718
     92  CB       -32.2860   34.0700  -79.1640 C.3   286  PHE286      0.0547
     93  CG       -32.5840   35.3770  -78.4910 C.ar  286  PHE286     -0.0202
     94  CD1      -32.5190   35.4920  -77.1150 C.ar  286  PHE286     -0.0042
     95  CD2      -32.9010   36.5010  -79.2410 C.ar  286  PHE286     -0.0042
     96  CE1      -32.7770   36.7030  -76.4910 C.ar  286  PHE286     -0.0003
     97  CE2      -33.1640   37.7060  -78.6290 C.ar  286  PHE286     -0.0003
     98  CZ       -33.0990   37.8140  -77.2510 C.ar  286  PHE286     -0.0000
     99  N        -34.4240   32.0680  -80.9970 N.am  287  ASP287     -0.1960
    100  CA       -34.5190   31.3120  -82.2400 C.3   287  ASP287      0.1825
    101  C        -35.8010   31.7010  -82.9640 C.2   287  ASP287      0.2464
    102  O        -36.8900   31.5760  -82.3920 O.2   287  ASP287     -0.2730
    103  CB       -34.5070   29.8050  -81.9830 C.3   287  ASP287      0.1450
    104  CG       -34.0660   29.0160  -83.1970 C.2   287  ASP287      0.3671
    105  OD1      -34.7270   29.1380  -84.2540 O.co2 287  ASP287     -0.2456
    106  OD2      -33.0550   28.2840  -83.0990 O.co2 287  ASP287     -0.2456
    107  N        -35.7210   32.1590  -84.2190 N.am  288  PRO288     -0.2715
    108  CA       -36.9450   32.5440  -84.9430 C.3   288  PRO288      0.1536
    109  C        -37.8950   31.3860  -85.2010 C.2   288  PRO288      0.2598
    110  O        -39.0370   31.6290  -85.6110 O.2   288  PRO288     -0.2715
    111  CB       -36.4080   33.1280  -86.2580 C.3   288  PRO288      0.0310
    112  CG       -35.0860   32.4700  -86.4490 C.3   288  PRO288      0.0237
    113  CD       -34.5180   32.2940  -85.0610 C.3   288  PRO288      0.0939
    114  N        -37.4640   30.1420  -84.9850 N.am  289  LYS289     -0.1978
    115  CA       -38.3440   28.9890  -85.0950 C.3   289  LYS289      0.1596
    116  C        -39.1010   28.7190  -83.8030 C.2   289  LYS289      0.2287
    117  O        -39.9370   27.8080  -83.7610 O.2   289  LYS289     -0.2864
    118  CB       -37.5420   27.7470  -85.5070 C.3   289  LYS289      0.0298
    119  CG       -36.7020   27.9270  -86.7780 C.3   289  LYS289      0.0038
    120  CD       -35.9480   26.6490  -87.1840 C.3   289  LYS289      0.0206
    121  CE       -34.8710   26.9630  -88.2270 C.3   289  LYS289      0.1093
    122  NZ       -34.0760   25.7800  -88.6700 N.3   289  LYS289     -0.1314
    123  N        -34.2240   36.5010  -84.2000 N.3   312  GLU312     -0.1231
    124  CA       -32.8040   36.2150  -84.3050 C.3   312  GLU312      0.1699
    125  C        -32.0210   37.1690  -83.4100 C.2   312  GLU312      0.2592
    126  O        -32.3250   38.3610  -83.3220 O.2   312  GLU312     -0.2718
    127  CB       -32.3260   36.2980  -85.7580 C.3   312  GLU312      0.0402
    128  CG       -32.1560   37.6940  -86.3200 C.3   312  GLU312      0.1161
    129  CD       -31.6000   37.6880  -87.7370 C.2   312  GLU312      0.3649
    130  OE1      -31.9770   36.7920  -88.5250 O.co2 312  GLU312     -0.2457
    131  OE2      -30.7860   38.5810  -88.0620 O.co2 312  GLU312     -0.2457
    132  N        -31.0310   36.6160  -82.7190 N.am  313  PHE313     -0.1976
    133  CA       -30.2490   37.3520  -81.7390 C.3   313  PHE313      0.1639
    134  C        -29.4140   38.4290  -82.4250 C.2   313  PHE313      0.2290
    135  O        -28.7670   38.1740  -83.4460 O.2   313  PHE313     -0.2864
    136  CB       -29.3580   36.3620  -80.9890 C.3   313  PHE313      0.0560
    137  CG       -28.6630   36.9270  -79.7940 C.ar  313  PHE313     -0.0200
    138  CD1      -29.2860   36.9560  -78.5560 C.ar  313  PHE313     -0.0042
    139  CD2      -27.3690   37.3900  -79.8940 C.ar  313  PHE313     -0.0042
    140  CE1      -28.6280   37.4650  -77.4390 C.ar  313  PHE313     -0.0003
    141  CE2      -26.7140   37.9000  -78.7860 C.ar  313  PHE313     -0.0003
    142  CZ       -27.3470   37.9340  -77.5580 C.ar  313  PHE313     -0.0000
    143  N        -26.3510   40.1660  -82.5920 N.3   315  PHE315     -0.1241
    144  CA       -24.9480   40.1610  -82.1950 C.3   315  PHE315      0.1605
    145  C        -24.2530   41.5000  -82.4290 C.2   315  PHE315      0.2264
    146  O        -23.0740   41.6350  -82.0740 O.2   315  PHE315     -0.2867
    147  CB       -24.2000   39.0540  -82.9460 C.3   315  PHE315      0.0534
    148  CG       -24.6370   37.6580  -82.5670 C.ar  315  PHE315     -0.0203
    149  CD1      -23.9930   36.9650  -81.5460 C.ar  315  PHE315     -0.0042
    150  CD2      -25.6910   37.0450  -83.2280 C.ar  315  PHE315     -0.0042
    151  CE1      -24.3950   35.6880  -81.1900 C.ar  315  PHE315     -0.0003
    152  CE2      -26.0980   35.7640  -82.8810 C.ar  315  PHE315     -0.0003
    153  CZ       -25.4510   35.0890  -81.8570 C.ar  315  PHE315     -0.0000
    154  N        -25.6070   27.9350  -80.3990 N.3   338  ASP338     -0.1225
    155  CA       -25.7460   26.8710  -81.3850 C.3   338  ASP338      0.1805
    156  C        -26.2530   27.4060  -82.7240 C.2   338  ASP338      0.2598
    157  O        -26.8530   26.6660  -83.5080 O.2   338  ASP338     -0.2718
    158  CB       -26.6740   25.7770  -80.8670 C.3   338  ASP338      0.1424
    159  CG       -26.3410   24.4180  -81.4420 C.2   338  ASP338      0.3668
    160  OD1      -27.2730   23.6160  -81.6710 O.co2 338  ASP338     -0.2456
    161  OD2      -25.1420   24.1570  -81.6650 O.co2 338  ASP338     -0.2456
    162  N        -26.0160   28.6870  -83.0020 N.am  339  THR339     -0.1939
    163  CA       -26.5250   29.3010  -84.2190 C.3   339  THR339      0.2028
    164  C        -25.6440   28.9650  -85.4120 C.2   339  THR339      0.2642
    165  O        -24.4120   28.9270  -85.3070 O.2   339  THR339     -0.2714
    166  CB       -26.6030   30.8160  -84.0660 C.3   339  THR339      0.1808
    167  OG1      -25.2910   31.3250  -83.8110 O.3   339  THR339     -0.2208
    168  CG2      -27.5120   31.1700  -82.9310 C.3   339  THR339      0.0379
    169  N        -26.2900   28.7480  -86.5550 N.am  340  TRP340     -0.1959
    170  CA       -25.6110   28.4360  -87.8020 C.3   340  TRP340      0.1771
    171  C        -26.4320   29.0090  -88.9490 C.2   340  TRP340      0.2619
    172  O        -27.6590   29.1190  -88.8520 O.2   340  TRP340     -0.2715
    173  CB       -25.4260   26.9210  -87.9500 C.3   340  TRP340      0.0590
    174  CG       -25.0650   26.4590  -89.3220 C.ar  340  TRP340      0.0006
    175  CD1      -23.8110   26.2440  -89.8090 C.ar  340  TRP340      0.0946
    176  CD2      -25.9700   26.1330  -90.3820 C.ar  340  TRP340      0.0152
    177  NE1      -23.8760   25.8130  -91.1090 N.ar  340  TRP340     -0.2442
    178  CE2      -25.1920   25.7360  -91.4860 C.ar  340  TRP340      0.0810
    179  CE3      -27.3630   26.1460  -90.5080 C.ar  340  TRP340      0.0012
    180  CZ2      -25.7590   25.3540  -92.7020 C.ar  340  TRP340      0.0191
    181  CZ3      -27.9260   25.7650  -91.7140 C.ar  340  TRP340      0.0001
    182  CH2      -27.1250   25.3730  -92.7940 C.ar  340  TRP340      0.0015
    183  N        -25.7480   29.3900  -90.0330 N.am  341  VAL341     -0.1977
    184  CA       -26.4180   29.9270  -91.2140 C.3   341  VAL341      0.1596
    185  C        -25.8030   29.3460  -92.4840 C.2   341  VAL341      0.2287
    186  O        -24.6180   28.9970  -92.5260 O.2   341  VAL341     -0.2864
    187  CB       -26.3680   31.4700  -91.2680 C.3   341  VAL341      0.0276
    188  CG1      -27.3430   32.0740  -90.2700 C.3   341  VAL341      0.0022
    189  CG2      -24.9540   31.9580  -91.0270 C.3   341  VAL341      0.0022
    190  N        -20.3530   35.4260  -90.2300 N.3   348  PHE348     -0.1241
    191  CA       -21.2750   35.2960  -89.1050 C.3   348  PHE348      0.1605
    192  C        -20.5310   34.9960  -87.8120 C.2   348  PHE348      0.2264
    193  O        -20.8030   35.6110  -86.7760 O.2   348  PHE348     -0.2867
    194  CB       -22.2980   34.1980  -89.3950 C.3   348  PHE348      0.0534
    195  CG       -23.4150   34.1280  -88.3920 C.ar  348  PHE348     -0.0203
    196  CD1      -24.0670   35.2800  -87.9760 C.ar  348  PHE348     -0.0042
    197  CD2      -23.8200   32.9050  -87.8660 C.ar  348  PHE348     -0.0042
    198  CE1      -25.1060   35.2190  -87.0540 C.ar  348  PHE348     -0.0003
    199  CE2      -24.8590   32.8340  -86.9390 C.ar  348  PHE348     -0.0003
    200  CZ       -25.5030   33.9940  -86.5340 C.ar  348  PHE348     -0.0000
    201  N        -19.9920   27.3490  -81.5600 N.3   373  LYS373     -0.1245
    202  CA       -19.5270   26.5000  -82.6460 C.3   373  LYS373      0.1561
    203  C        -18.3710   27.1850  -83.3660 C.2   373  LYS373      0.2260
    204  O        -18.4400   28.3770  -83.6810 O.2   373  LYS373     -0.2867
    205  CB       -20.6670   26.2020  -83.6260 C.3   373  LYS373      0.0271
    206  CG       -21.7200   25.2240  -83.0890 C.3   373  LYS373      0.0035
    207  CD       -22.5470   24.5790  -84.2090 C.3   373  LYS373      0.0206
    208  CE       -23.8130   25.3730  -84.5350 C.3   373  LYS373      0.1093
    209  NZ       -23.5520   26.8180  -84.8070 N.3   373  LYS373     -0.1314
@<TRIPOS>BOND
     1   182   180   ar
     2   182   181   ar
     3   180   178   ar
     4   186   185    2
     5   185   184    1
     6   181   179   ar
     7   178   177   ar
     8   178   176   ar
     9   187   184    1
    10   187   189    1
    11   187   188    1
    12   184   183    1
    13   177   175   ar
    14   179   176   ar
    15   176   174   ar
    16   190   191    1
    17   183   171   am
    18   175   174   ar
    19   194   191    1
    20   194   195    1
    21   174   173    1
    22   191   192    1
    23   171   172    2
    24   171   170    1
    25   122   121    1
    26   130   129   ar
    27   195   196   ar
    28   195   197   ar
    29   121   120    1
    30   131   129   ar
    31   196   198   ar
    32   173   170    1
    33   197   199   ar
    34   192   193    2
    35   170   169    1
    36   129   128    1
    37   120   119    1
    38   198   200   ar
    39   199   200   ar
    40   119   118    1
    41   169   164   am
    42   112   111    1
    43   112   113    1
    44   128   127    1
    45   111   108    1
    46   127   124    1
    47   110   109    2
    48   118   115    1
    49   164   165    2
    50   164   163    1
    51   109   114   am
    52   109   108    1
    53   115   114    1
    54   115   116    1
    55   113   107    1
    56   108   107    1
    57   209   208    1
    58   208   207    1
    59   124   123    1
    60   124   125    1
    61   105   104   ar
    62   107   101   am
    63   163   166    1
    64   163   162    1
    65   207   206    1
    66    56    54   ar
    67    56    57   ar
    68   166   167    1
    69   166   168    1
    70   116   117    2
    71    54    52   ar
    72   204   203    2
    73    58    57    1
    74   205   206    1
    75   205   202    1
    76   157   156    2
    77   135   134    2
    78   125   126    2
    79   125   132   am
    80   203   202    1
    81    57    55   ar
    82   150   152   ar
    83   150   148   ar
    84   104   106   ar
    85   104   103    1
    86   162   156   am
    87   101   102    2
    88   101   100    1
    89    50    49    2
    90   147   148    1
    91   147   144    1
    92   152   153   ar
    93   156   155    1
    94   132   133    1
    95    65    64    1
    96    65    59    1
    97   202   201    1
    98    52    51    1
    99    52    53   ar
   100   143   144    1
   101   148   149   ar
   102   145   144    1
   103   145   146    2
   104   134   133    1
   105    64    63    1
   106    51    48    1
   107    55    53   ar
   108   100   103    1
   109   100    99    1
   110    49    59   am
   111    49    48    1
   112   153   151   ar
   113    59    60    1
   114   133   136    1
   115   160   159   ar
   116   161   159   ar
   117    63    60    1
   118   149   151   ar
   119    39    40    1
   120    39    38    1
   121   159   158    1
   122   155   158    1
   123   155   154    1
   124    48    47    1
   125    41    40    2
   126     9     7   am
   127    99    90   am
   128   136   137    1
   129    16    15    1
   130    47    44   am
   131    60    61    1
   132    40    42   am
   133     6     7    1
   134     6     5    1
   135    38    32   am
   136    91    90    2
   137     7     8    2
   138    36    34    1
   139    90    89    1
   140    33    32    2
   141    15    17    1
   142    15    14    1
   143    42    43    1
   144    32    31    1
   145   139   137   ar
   146   139   141   ar
   147    77    75    1
   148   137   138   ar
   149    44    45    2
   150    44    43    1
   151    76    75    1
   152     2     5    1
   153     2     1    1
   154     2     3    1
   155    61    66   am
   156    61    62    2
   157    66    67    1
   158    95    97   ar
   159    95    93   ar
   160    34    31    1
   161    34    35    1
   162    92    89    1
   163    92    93    1
   164    43    46    1
   165    89    88    1
   166    31    30    1
   167    75    72    1
   168   141   142   ar
   169    97    98   ar
   170   138   140   ar
   171    14    11    1
   172     3     4    2
   173    93    94   ar
   174    10    11    1
   175    71    72    1
   176    71    68   am
   177    37    35    1
   178    67    68    1
   179    67    70    1
   180    11    12    1
   181    72    73    1
   182    30    20   am
   183   142   140   ar
   184    68    69    2
   185    29    28    1
   186    26    28   ar
   187    26    24   ar
   188    98    96   ar
   189    84    86   ar
   190    84    83   ar
   191    21    20    2
   192    94    96   ar
   193    86    87   ar
   194    20    19    1
   195    28    27   ar
   196    24    23   ar
   197    78    73   am
   198    78    79    1
   199    73    74    2
   200    12    13    2
   201    83    82    1
   202    83    85   ar
   203    82    79    1
   204    87    85   ar
   205    79    80    1
   206    27    25   ar
   207    23    25   ar
   208    23    22    1
   209    19    22    1
   210    19    18    1
   211    80    81    2
