@<TRIPOS>MOLECULE
tmp/5x6yC00.pdb
 156 153 0 0 0
SMALL
GASTEIGER

@<TRIPOS>ATOM
      1  N        -16.2910   12.9660  -56.1080 N.3   203  VAL203     -0.1231
      2  CA       -14.8730   12.7080  -55.8650 C.3   203  VAL203      0.1692
      3  C        -14.3290   11.8120  -56.9750 C.2   203  VAL203      0.2593
      4  O        -14.7930   10.6770  -57.1720 O.2   203  VAL203     -0.2718
      5  CB       -14.6310   12.0810  -54.4870 C.3   203  VAL203      0.0266
      6  CG1      -13.1460   11.8150  -54.2940 C.3   203  VAL203      0.0020
      7  CG2      -15.1400   12.9760  -53.3860 C.3   203  VAL203      0.0020
      8  N        -13.3310   12.3140  -57.6910 N.am  204  GLY204     -0.1942
      9  CA       -12.7400   11.5720  -58.7810 C.3   204  GLY204      0.2014
     10  C        -13.4840   11.8230  -60.0700 C.2   204  GLY204      0.2639
     11  O        -14.7220   11.8120  -60.0810 O.2   204  GLY204     -0.2714
     12  N        -12.7490   12.0710  -61.1540 N.am  205  TYR205     -0.1959
     13  CA       -13.3950   12.3780  -62.4190 C.3   205  TYR205      0.1771
     14  C        -14.2050   11.1780  -62.8860 C.2   205  TYR205      0.2619
     15  O        -13.6930   10.0620  -62.9440 O.2   205  TYR205     -0.2715
     16  CB       -12.3680   12.7670  -63.4780 C.3   205  TYR205      0.0574
     17  CG       -13.0510   12.9800  -64.7990 C.ar  205  TYR205     -0.0198
     18  CD1      -14.1460   13.8400  -64.8930 C.ar  205  TYR205     -0.0009
     19  CD2      -12.6460   12.3000  -65.9370 C.ar  205  TYR205     -0.0009
     20  CE1      -14.8090   14.0350  -66.0850 C.ar  205  TYR205      0.0417
     21  CE2      -13.3090   12.4970  -67.1590 C.ar  205  TYR205      0.0417
     22  CZ       -14.3830   13.3680  -67.2180 C.ar  205  TYR205      0.1957
     23  OH       -15.0630   13.5700  -68.3980 O.3   205  TYR205     -0.2866
     24  N        -15.4730   11.4100  -63.2260 N.am  206  ASN206     -0.1972
     25  CA       -16.4150   10.3190  -63.4810 C.3   206  ASN206      0.1688
     26  C        -17.5080   10.8270  -64.4180 C.2   206  ASN206      0.2292
     27  O        -18.5670   11.2880  -63.9720 O.2   206  ASN206     -0.2864
     28  CB       -17.0040    9.8020  -62.1710 C.3   206  ASN206      0.1181
     29  CG       -17.3400    8.3340  -62.2210 C.2   206  ASN206      0.2629
     30  OD1      -18.0060    7.8770  -63.1450 O.2   206  ASN206     -0.2716
     31  ND2      -16.8980    7.5870  -61.2180 N.am  206  ASN206     -0.0877
     32  N        -14.0480   16.8650  -58.0120 N.3   223  ILE223     -0.1231
     33  CA       -12.8390   17.1450  -57.2510 C.3   223  ILE223      0.1692
     34  C        -11.8870   15.9950  -57.5130 C.2   223  ILE223      0.2592
     35  O        -12.2400   14.8310  -57.2810 O.2   223  ILE223     -0.2718
     36  CB       -13.1090   17.3110  -55.7490 C.3   223  ILE223      0.0266
     37  CG1      -14.1270   18.4380  -55.5540 C.3   223  ILE223      0.0019
     38  CG2      -11.7800   17.5930  -54.9920 C.3   223  ILE223      0.0020
     39  CD1      -14.4710   18.7450  -54.1140 C.3   223  ILE223      0.0001
     40  N        -10.7000   16.3130  -58.0240 N.am  224  GLU224     -0.1966
     41  CA        -9.7850   15.2940  -58.5110 C.3   224  GLU224      0.1733
     42  C         -8.3900   15.5550  -57.9740 C.2   224  GLU224      0.2616
     43  O         -7.9250   16.7000  -57.9380 O.2   224  GLU224     -0.2715
     44  CB        -9.7890   15.2470  -60.0500 C.3   224  GLU224      0.0429
     45  CG        -8.8110   14.2980  -60.7120 C.3   224  GLU224      0.1163
     46  CD        -9.0460   12.8330  -60.3770 C.2   224  GLU224      0.3649
     47  OE1       -8.1350   12.2260  -59.7690 O.co2 224  GLU224     -0.2457
     48  OE2      -10.1190   12.2800  -60.7290 O.co2 224  GLU224     -0.2457
     49  N         -7.7450   14.4740  -57.5330 N.am  225  LYS225     -0.1963
     50  CA        -6.3660   14.5390  -57.0610 C.3   225  LYS225      0.1728
     51  C         -5.3950   14.7100  -58.2260 C.2   225  LYS225      0.2616
     52  O         -4.4770   15.5400  -58.1620 O.2   225  LYS225     -0.2715
     53  CB        -6.0350   13.2650  -56.2730 C.3   225  LYS225      0.0311
     54  CG        -5.0900   13.4770  -55.0930 C.3   225  LYS225      0.0038
     55  CD        -4.8870   12.2020  -54.2480 C.3   225  LYS225      0.0206
     56  CE        -6.0950   11.2690  -54.2820 C.3   225  LYS225      0.1093
     57  NZ        -5.9040   10.0020  -53.4910 N.3   225  LYS225     -0.1314
     58  N         -5.6010   13.9500  -59.3060 N.am  226  SER226     -0.1950
     59  CA        -4.6540   13.8860  -60.4160 C.3   226  SER226      0.1924
     60  C         -4.5490   15.2340  -61.1190 C.2   226  SER226      0.2314
     61  O         -5.5440   15.7580  -61.6360 O.2   226  SER226     -0.2863
     62  CB        -5.0810   12.8020  -61.4130 C.3   226  SER226      0.2116
     63  OG        -4.9820   11.4980  -60.8520 O.3   226  SER226     -0.2180
     64  N         -7.4460   18.9320  -56.2840 N.3   449  GLY449     -0.1210
     65  CA        -7.2220   18.9060  -54.8560 C.3   449  GLY449      0.1956
     66  C         -7.6500   17.5850  -54.2670 C.2   449  GLY449      0.2612
     67  O         -8.2290   16.7300  -54.9400 O.2   449  GLY449     -0.2717
     68  N         -7.3540   17.4400  -52.9770 N.am  450  ASP450     -0.1959
     69  CA        -7.6170   16.2180  -52.2310 C.3   450  ASP450      0.1840
     70  C         -8.9700   16.3320  -51.5420 C.2   450  ASP450      0.2622
     71  O         -9.2010   17.2510  -50.7470 O.2   450  ASP450     -0.2715
     72  CB        -6.5140   15.9520  -51.2040 C.3   450  ASP450      0.1450
     73  CG        -6.6930   14.6140  -50.4730 C.2   450  ASP450      0.3671
     74  OD1       -7.7470   13.9530  -50.6290 O.co2 450  ASP450     -0.2456
     75  OD2       -5.7770   14.2200  -49.7240 O.co2 450  ASP450     -0.2456
     76  N         -9.8550   15.3790  -51.8340 N.am  451  ALA451     -0.1963
     77  CA       -11.1890   15.4070  -51.2510 C.3   451  ALA451      0.1728
     78  C        -11.1460   15.3340  -49.7300 C.2   451  ALA451      0.2616
     79  O        -12.0240   15.8830  -49.0580 O.2   451  ALA451     -0.2715
     80  CB       -12.0240   14.2570  -51.8170 C.3   451  ALA451      0.0334
     81  N        -10.1460   14.6610  -49.1600 N.am  452  LEU452     -0.1977
     82  CA       -10.1140   14.5570  -47.7070 C.3   452  LEU452      0.1596
     83  C         -9.8640   15.9030  -47.0410 C.2   452  LEU452      0.2287
     84  O        -10.1130   16.0350  -45.8430 O.2   452  LEU452     -0.2864
     85  CB        -9.0600   13.5470  -47.2770 C.3   452  LEU452      0.0297
     86  CG        -9.2870   12.1430  -47.8260 C.3   452  LEU452      0.0022
     87  CD1       -8.2150   11.2210  -47.2970 C.3   452  LEU452      0.0001
     88  CD2      -10.6630   11.6170  -47.4510 C.3   452  LEU452      0.0001
     89  N        -17.7900    7.6830  -54.6610 N.3   465  SER465     -0.1202
     90  CA       -17.9920    6.3470  -55.2040 C.3   465  SER465      0.2020
     91  C        -16.7250    5.8950  -55.9140 C.2   465  SER465      0.2619
     92  O        -16.1930    6.6210  -56.7650 O.2   465  SER465     -0.2717
     93  CB       -19.1560    6.3340  -56.1920 C.3   465  SER465      0.2103
     94  OG       -18.8730    7.1690  -57.3150 O.3   465  SER465     -0.2182
     95  N        -16.2490    4.7010  -55.5740 N.am  466  TYR466     -0.1961
     96  CA       -15.1480    4.0970  -56.3180 C.3   466  TYR466      0.1771
     97  C        -13.9270    5.0250  -56.3400 C.2   466  TYR466      0.2620
     98  O        -13.2660    5.1880  -57.3760 O.2   466  TYR466     -0.2715
     99  CB       -15.5800    3.7470  -57.7550 C.3   466  TYR466      0.0574
    100  CG       -16.9170    3.0050  -57.9210 C.ar  466  TYR466     -0.0198
    101  CD1      -17.0850    1.6950  -57.4630 C.ar  466  TYR466     -0.0009
    102  CD2      -17.9870    3.6020  -58.5860 C.ar  466  TYR466     -0.0009
    103  CE1      -18.2900    1.0140  -57.6460 C.ar  466  TYR466      0.0417
    104  CE2      -19.1990    2.9360  -58.7700 C.ar  466  TYR466      0.0417
    105  CZ       -19.3480    1.6450  -58.2940 C.ar  466  TYR466      0.1957
    106  OH       -20.5480    0.9810  -58.4800 O.3   466  TYR466     -0.2866
    107  N        -13.6380    5.6780  -55.2080 N.am  467  SER467     -0.1936
    108  CA       -12.5820    6.6900  -55.2600 C.3   467  SER467      0.2055
    109  C        -11.8230    6.8060  -53.9420 C.2   467  SER467      0.2642
    110  O        -10.6730    6.3610  -53.8590 O.2   467  SER467     -0.2714
    111  CB       -13.1630    8.0480  -55.6910 C.3   467  SER467      0.2130
    112  OG       -14.4840    8.2590  -55.2080 O.3   467  SER467     -0.2179
    113  N        -12.4490    7.3800  -52.9050 N.am  468  LEU468     -0.1977
    114  CA       -11.8240    7.4280  -51.5850 C.3   468  LEU468      0.1596
    115  C        -11.4240    6.0440  -51.0790 C.2   468  LEU468      0.2287
    116  O        -10.5010    5.9330  -50.2740 O.2   468  LEU468     -0.2864
    117  CB       -12.7560    8.0970  -50.5740 C.3   468  LEU468      0.0297
    118  CG       -12.9280    9.6170  -50.6680 C.3   468  LEU468      0.0022
    119  CD1      -13.5860   10.1480  -49.4000 C.3   468  LEU468      0.0001
    120  CD2      -11.5930   10.3160  -50.9060 C.3   468  LEU468      0.0001
    121  N         -9.8800    3.9210  -52.8420 N.3   470  ASN470     -0.1240
    122  CA        -8.6030    3.6240  -53.4950 C.3   470  ASN470      0.1653
    123  C         -7.4800    3.5750  -52.4620 C.2   470  ASN470      0.2266
    124  O         -7.4170    4.4120  -51.5550 O.2   470  ASN470     -0.2867
    125  CB        -8.2660    4.6880  -54.5580 C.3   470  ASN470      0.1155
    126  CG        -9.2530    4.7160  -55.7410 C.2   470  ASN470      0.2627
    127  OD1       -9.2680    5.6790  -56.5120 O.2   470  ASN470     -0.2716
    128  ND2      -10.0720    3.6750  -55.8830 N.am  470  ASN470     -0.0877
    129  N         -4.6120    4.5230  -52.4520 N.3   472  SER472     -0.1202
    130  CA        -3.7970    5.7290  -52.3240 C.3   472  SER472      0.2020
    131  C         -4.2570    6.6250  -51.1780 C.2   472  SER472      0.2618
    132  O         -3.5260    7.5460  -50.8130 O.2   472  SER472     -0.2717
    133  CB        -3.8080    6.5320  -53.6200 C.3   472  SER472      0.2103
    134  OG        -5.1350    6.9090  -53.9630 O.3   472  SER472     -0.2182
    135  N         -5.4660    6.4150  -50.6450 N.am  473  ASN473     -0.1974
    136  CA        -5.9190    7.0730  -49.4210 C.3   473  ASN473      0.1688
    137  C         -5.8420    6.0510  -48.3030 C.2   473  ASN473      0.2292
    138  O         -6.4550    4.9850  -48.4020 O.2   473  ASN473     -0.2864
    139  CB        -7.3570    7.5940  -49.5180 C.3   473  ASN473      0.1181
    140  CG        -7.6260    8.3800  -50.7810 C.2   473  ASN473      0.2629
    141  OD1       -7.3290    9.5770  -50.8550 O.2   473  ASN473     -0.2716
    142  ND2       -8.2240    7.7190  -51.7770 N.am  473  ASN473     -0.0877
    143  N         -8.2910   -0.1980  -59.2700 N.3   527  TRP527     -0.1241
    144  CA        -7.4110   -1.3600  -59.4070 C.3   527  TRP527      0.1605
    145  C         -6.8640   -1.8200  -58.0540 C.2   527  TRP527      0.2264
    146  O         -6.7740   -3.0130  -57.8200 O.2   527  TRP527     -0.2867
    147  CB        -6.2830   -1.0490  -60.3970 C.3   527  TRP527      0.0550
    148  CG        -4.9220   -1.6430  -60.0900 C.ar  527  TRP527      0.0003
    149  CD1       -4.5060   -2.9300  -60.3270 C.ar  527  TRP527      0.0946
    150  CD2       -3.7830   -0.9470  -59.5520 C.ar  527  TRP527      0.0152
    151  NE1       -3.1910   -3.0830  -59.9390 N.ar  527  TRP527     -0.2442
    152  CE2       -2.7210   -1.8830  -59.4640 C.ar  527  TRP527      0.0810
    153  CE3       -3.5610    0.3730  -59.1230 C.ar  527  TRP527      0.0012
    154  CZ2       -1.4490   -1.5400  -58.9610 C.ar  527  TRP527      0.0191
    155  CZ3       -2.2950    0.7140  -58.6200 C.ar  527  TRP527      0.0001
    156  CH2       -1.2560   -0.2440  -58.5490 C.ar  527  TRP527      0.0015
@<TRIPOS>BOND
     1    23    22    1
     2    22    21   ar
     3    22    20   ar
     4    21    19   ar
     5    20    18   ar
     6    19    17   ar
     7    18    17   ar
     8    17    16    1
     9    26    27    2
    10    26    25    1
    11    25    24    1
    12    25    28    1
    13    16    13    1
    14    24    14   am
    15    30    29    2
    16    15    14    2
    17    14    13    1
    18    13    12    1
    19    29    28    1
    20    29    31   am
    21    61    60    2
    22    62    63    1
    23    62    59    1
    24    12    10   am
    25    60    59    1
    26    48    46   ar
    27    45    46    1
    28    45    44    1
    29    59    58    1
    30   147   148    1
    31   147   144    1
    32    46    47   ar
    33   149   148   ar
    34   149   151   ar
    35   148   150   ar
    36    11    10    2
    37    10     9    1
    38    44    41    1
    39   151   152   ar
    40   150   152   ar
    41   150   153   ar
    42   152   154   ar
    43   144   143    1
    44   144   145    1
    45    58    51   am
    46   153   155   ar
    47   154   156   ar
    48     9     8    1
    49   104   102   ar
    50   104   105   ar
    51   155   156   ar
    52   102   100   ar
    53    41    40    1
    54    41    42    1
    55   106   105    1
    56   105   103   ar
    57    51    52    2
    58    51    50    1
    59   145   146    2
    60    40    34   am
    61    32    33    1
    62    42    43    2
    63    42    49   am
    64   100    99    1
    65   100   101   ar
    66    99    96    1
    67     8     3   am
    68   103   101   ar
    69    49    50    1
    70    34    35    2
    71    34    33    1
    72    98    97    2
    73    94    93    1
    74    33    36    1
    75     4     3    2
    76    50    53    1
    77     3     2    1
    78    92    91    2
    79   127   126    2
    80    97    96    1
    81    97   107   am
    82    96    95    1
    83    64    65    1
    84    53    54    1
    85    93    90    1
    86     1     2    1
    87    91    95   am
    88    91    90    1
    89   128   126   am
    90     2     5    1
    91    36    37    1
    92    36    38    1
    93   126   125    1
    94   111   108    1
    95   111   112    1
    96    37    39    1
    97   108   107    1
    98   108   109    1
    99    90    89    1
   100    54    55    1
   101    67    66    2
   102    65    66    1
   103   125   122    1
   104     5     6    1
   105     5     7    1
   106    56    55    1
   107    56    57    1
   108    66    68   am
   109   134   133    1
   110   109   110    2
   111   109   113   am
   112   133   130    1
   113   122   121    1
   114   122   123    1
   115    68    69    1
   116   113   114    1
   117   123   124    2
   118   129   130    1
   119   130   131    1
   120    69    70    1
   121    69    72    1
   122    76    70   am
   123    76    77    1
   124    80    77    1
   125   142   140   am
   126   114   115    1
   127   114   117    1
   128    70    71    2
   129    77    78    1
   130    72    73    1
   131   131   132    2
   132   131   135   am
   133   115   116    2
   134   120   118    1
   135   141   140    2
   136   140   139    1
   137   118   117    1
   138   118   119    1
   139   135   136    1
   140    74    73   ar
   141    73    75   ar
   142    78    81   am
   143    78    79    2
   144   139   136    1
   145   136   137    1
   146    81    82    1
   147   138   137    2
   148    86    88    1
   149    86    87    1
   150    86    85    1
   151    82    85    1
   152    82    83    1
   153    83    84    2
