@<TRIPOS>MOLECULE
tmp/5x6yB01.pdb
 113 109 0 0 0
SMALL
GASTEIGER

@<TRIPOS>ATOM
      1  N        -20.9530   34.0150   -3.7180 N.3    74  ARG74      -0.1245
      2  CA       -20.8650   33.3350   -2.4290 C.3    74  ARG74       0.1563
      3  C        -19.7190   32.3290   -2.4330 C.2    74  ARG74       0.2260
      4  O        -18.9640   32.2110   -1.4560 O.2    74  ARG74      -0.2867
      5  CB       -22.1660   32.6040   -2.1160 C.3    74  ARG74       0.0307
      6  CG       -23.2410   33.4850   -1.5310 C.3    74  ARG74       0.0489
      7  CD       -22.7810   34.1700   -0.2470 C.3    74  ARG74       0.2205
      8  NE       -23.6980   35.2570    0.0830 N.pl3  74  ARG74      -0.0865
      9  CZ       -24.4350   35.3180    1.1930 C.cat  74  ARG74       0.5346
     10  NH1      -24.3380   34.3590    2.1220 N.pl3  74  ARG74       0.1354
     11  NH2      -25.2770   36.3450    1.3690 N.pl3  74  ARG74       0.1354
     12  N        -15.7570   35.7910    4.6640 N.3   520  LYS520     -0.1245
     13  CA       -15.5910   34.3420    4.5880 C.3   520  LYS520      0.1561
     14  C        -14.1660   33.8660    4.3190 C.2   520  LYS520      0.2260
     15  O        -13.8950   32.6840    4.5250 O.2   520  LYS520     -0.2867
     16  CB       -16.4800   33.7380    3.4790 C.3   520  LYS520      0.0271
     17  CG       -17.9620   34.1250    3.4700 C.3   520  LYS520      0.0035
     18  CD       -18.6660   33.7170    4.7430 C.3   520  LYS520      0.0206
     19  CE       -18.6980   32.2130    4.9330 C.3   520  LYS520      0.1093
     20  NZ       -19.9110   31.8850    5.7600 N.3   520  LYS520     -0.1314
     21  N        -18.0610   23.9430   12.6610 N.3   537  TYR537     -0.1227
     22  CA       -17.8860   25.3680   12.9230 C.3   537  TYR537      0.1736
     23  C        -19.1040   25.9390   13.6490 C.2   537  TYR537      0.2595
     24  O        -18.9640   26.5960   14.6820 O.2   537  TYR537     -0.2718
     25  CB       -17.6200   26.0900   11.6070 C.3   537  TYR537      0.0548
     26  CG       -17.4480   27.5810   11.6890 C.ar  537  TYR537     -0.0200
     27  CD1      -16.2310   28.1410   12.0490 C.ar  537  TYR537     -0.0009
     28  CD2      -18.4970   28.4320   11.3800 C.ar  537  TYR537     -0.0009
     29  CE1      -16.0550   29.5200   12.0880 C.ar  537  TYR537      0.0417
     30  CE2      -18.3360   29.8240   11.4360 C.ar  537  TYR537      0.0417
     31  CZ       -17.1280   30.3510   11.7870 C.ar  537  TYR537      0.1957
     32  OH       -16.9640   31.7110   11.8390 O.3   537  TYR537     -0.2866
     33  N        -20.3150   25.6440   13.1550 N.am  538  TYR538     -0.1976
     34  CA       -21.5300   26.0780   13.8570 C.3   538  TYR538      0.1639
     35  C        -21.7830   25.3080   15.1540 C.2   538  TYR538      0.2290
     36  O        -22.4630   25.8340   16.0420 O.2   538  TYR538     -0.2864
     37  CB       -22.7460   25.9930   12.9290 C.3   538  TYR538      0.0560
     38  CG       -22.5370   26.8050   11.6450 C.ar  538  TYR538     -0.0198
     39  CD1      -22.5810   28.2070   11.6560 C.ar  538  TYR538     -0.0009
     40  CD2      -22.2480   26.1710   10.4410 C.ar  538  TYR538     -0.0009
     41  CE1      -22.3620   28.9500   10.5100 C.ar  538  TYR538      0.0417
     42  CE2      -22.0220   26.9100    9.2780 C.ar  538  TYR538      0.0417
     43  CZ       -22.0870   28.2880    9.3150 C.ar  538  TYR538      0.1957
     44  OH       -21.8570   28.9970    8.1590 O.3   538  TYR538     -0.2866
     45  N        -19.7120   27.3580   17.4460 N.3   541  ARG541     -0.1245
     46  CA       -20.4450   28.5800   17.7460 C.3   541  ARG541      0.1563
     47  C        -21.4530   28.3400   18.8630 C.2   541  ARG541      0.2260
     48  O        -21.5870   29.1600   19.7720 O.2   541  ARG541     -0.2867
     49  CB       -21.1380   29.1070   16.4900 C.3   541  ARG541      0.0307
     50  CG       -22.0800   30.2540   16.7590 C.3   541  ARG541      0.0489
     51  CD       -22.8700   30.6460   15.5030 C.3   541  ARG541      0.2205
     52  NE       -21.9670   31.1300   14.4500 N.pl3 541  ARG541     -0.0865
     53  CZ       -22.3700   31.4530   13.2220 C.cat 541  ARG541      0.5346
     54  NH1      -23.6650   31.3350   12.8870 N.pl3 541  ARG541      0.1354
     55  NH2      -21.4830   31.8850   12.3290 N.pl3 541  ARG541      0.1354
     56  N        -26.2260   26.2400   11.2300 N.3   565  GLY565     -0.1225
     57  CA       -26.0930   27.4780   10.4930 C.3   565  GLY565      0.1811
     58  C        -27.2960   28.3750   10.6620 C.2   565  GLY565      0.2280
     59  O        -27.1680   29.6050   10.6830 O.2   565  GLY565     -0.2866
     60  N        -30.2470   33.2110   16.0640 N.3   593  ASN593     -0.1225
     61  CA       -29.1890   32.9330   15.0920 C.3   593  ASN593      0.1785
     62  C        -28.2620   34.1490   15.0960 C.2   593  ASN593      0.2597
     63  O        -28.6040   35.1830   14.5150 O.2   593  ASN593     -0.2718
     64  CB       -29.8020   32.6470   13.7110 C.3   593  ASN593      0.1169
     65  CG       -28.7490   32.4300   12.6260 C.2   593  ASN593      0.2627
     66  OD1      -27.5790   32.1580   12.9090 O.2   593  ASN593     -0.2716
     67  ND2      -29.1700   32.5260   11.3760 N.am  593  ASN593     -0.0877
     68  N        -27.1130   34.0440   15.7890 N.am  594  ILE594     -0.1966
     69  CA       -26.2440   35.2240   16.0060 C.3   594  ILE594      0.1727
     70  C        -25.5890   35.6570   14.6980 C.2   594  ILE594      0.2617
     71  O        -25.4310   34.8800   13.7590 O.2   594  ILE594     -0.2715
     72  CB       -25.1850   34.9430   17.0820 C.3   594  ILE594      0.0290
     73  CG1      -24.2130   33.8610   16.6060 C.3   594  ILE594      0.0022
     74  CG2      -25.8580   34.5450   18.4160 C.3   594  ILE594      0.0023
     75  CD1      -23.0630   33.5630   17.5980 C.3   594  ILE594      0.0001
     76  N        -25.1930   36.9280   14.6410 N.am  595  SER595     -0.1936
     77  CA       -24.6290   37.4730   13.4100 C.3   595  SER595      0.2055
     78  C        -23.1740   37.0250   13.3090 C.2   595  SER595      0.2644
     79  O        -22.2640   37.6500   13.8500 O.2   595  SER595     -0.2714
     80  CB       -24.7700   38.9870   13.3730 C.3   595  SER595      0.2130
     81  OG       -24.3000   39.5970   14.5690 O.3   595  SER595     -0.2179
     82  N        -22.9510   35.9210   12.5930 N.am  596  GLY596     -0.1939
     83  CA       -21.6160   35.3610   12.4870 C.3   596  GLY596      0.2014
     84  C        -20.6180   36.2480   11.7740 C.2   596  GLY596      0.2638
     85  O        -19.4140   36.1220   12.0120 O.2   596  GLY596     -0.2714
     86  N        -21.0760   37.1510   10.9120 N.am  597  HIS597     -0.1973
     87  CA       -20.0860   37.9740   10.2230 C.3   597  HIS597      0.1656
     88  C        -19.3810   38.9400   11.1640 C.2   597  HIS597      0.2291
     89  O        -18.2880   39.4000   10.8380 O.2   597  HIS597     -0.2864
     90  CB       -20.7310   38.7350    9.0660 C.3   597  HIS597      0.0771
     91  CG       -21.1270   37.8520    7.9260 C.ar  597  HIS597      0.0820
     92  ND1      -21.9700   38.2670    6.9180 N.ar  597  HIS597     -0.2267
     93  CD2      -20.8310   36.5560    7.6630 C.ar  597  HIS597      0.1154
     94  CE1      -22.1500   37.2730    6.0640 C.ar  597  HIS597      0.1986
     95  NE2      -21.4720   36.2240    6.4940 N.ar  597  HIS597     -0.2212
     96  N        -26.1470   46.9070    9.9180 N.3   619  MET619     -0.1245
     97  CA       -26.8470   45.8650   10.6520 C.3   619  MET619      0.1570
     98  C        -27.8840   46.4630   11.6010 C.2   619  MET619      0.2261
     99  O        -28.9980   45.9440   11.7140 O.2   619  MET619     -0.2867
    100  CB       -25.8330   45.0080   11.4060 C.3   619  MET619      0.0387
    101  CG       -26.4340   43.8120   12.1280 C.3   619  MET619      0.0595
    102  SD       -27.2650   42.6030   11.0910 S.3   619  MET619     -0.1393
    103  CE       -25.8910   41.9160   10.1840 C.3   619  MET619      0.0692
    104  N        -30.8770   40.8210   11.4110 N.3   652  HIS652     -0.1241
    105  CA       -30.7430   40.2230   12.7300 C.3   652  HIS652      0.1621
    106  C        -31.3310   41.1690   13.7620 C.2   652  HIS652      0.2264
    107  O        -31.4370   42.3770   13.5420 O.2   652  HIS652     -0.2867
    108  CB       -29.2660   39.9330   13.0820 C.3   652  HIS652      0.0745
    109  CG       -28.7080   38.7320   12.3900 C.ar  652  HIS652      0.0817
    110  ND1      -29.0600   37.4440   12.7400 N.ar  652  HIS652     -0.2268
    111  CD2      -27.8430   38.6220   11.3510 C.ar  652  HIS652      0.1154
    112  CE1      -28.4160   36.5910   11.9550 C.ar  652  HIS652      0.1986
    113  NE2      -27.6680   37.2790   11.1100 N.ar  652  HIS652     -0.2212
@<TRIPOS>BOND
     1     1     2    1
     2     3     2    1
     3     3     4    2
     4     2     5    1
     5     5     6    1
     6     6     7    1
     7     7     8    1
     8     8     9    2
     9     9    11    1
    10     9    10    1
    11    17    16    1
    12    17    18    1
    13    16    13    1
    14    14    15    2
    15    14    13    1
    16    13    12    1
    17    18    19    1
    18    19    20    1
    19    94    95   ar
    20    94    92   ar
    21    95    93   ar
    22    92    91   ar
    23    93    91   ar
    24    91    90    1
    25    44    43    1
    26    90    87    1
    27    42    43   ar
    28    42    40   ar
    29    43    41   ar
    30    96    97    1
    31   103   102    1
    32    87    86    1
    33    87    88    1
    34    40    38   ar
    35    57    58    1
    36    57    56    1
    37    41    39   ar
    38    97   100    1
    39    97    98    1
    40    58    59    2
    41    89    88    2
    42    86    84   am
    43   102   101    1
    44   113   111   ar
    45   113   112   ar
    46   111   109   ar
    47    67    65   am
    48    28    30   ar
    49    28    26   ar
    50   100   101    1
    51   104   105    1
    52    30    31   ar
    53    98    99    2
    54    25    26    1
    55    25    22    1
    56    38    39   ar
    57    38    37    1
    58    26    27   ar
    59    84    85    2
    60    84    83    1
    61    31    32    1
    62    31    29   ar
    63   112   110   ar
    64    27    29   ar
    65    55    53    1
    66   109   110   ar
    67   109   108    1
    68    83    82    1
    69    82    78   am
    70    65    66    2
    71    65    64    1
    72    21    22    1
    73   105   108    1
    74   105   106    1
    75    54    53    1
    76    22    23    1
    77    37    34    1
    78    33    23   am
    79    33    34    1
    80    53    52    2
    81    78    77    1
    82    78    79    2
    83    80    77    1
    84    80    81    1
    85    77    76    1
    86   107   106    2
    87    23    24    2
    88    64    61    1
    89    71    70    2
    90    34    35    1
    91    52    51    1
    92    63    62    2
    93    76    70   am
    94    70    69    1
    95    61    62    1
    96    61    60    1
    97    62    68   am
    98    35    36    2
    99    51    50    1
   100    68    69    1
   101    69    72    1
   102    49    50    1
   103    49    46    1
   104    73    72    1
   105    73    75    1
   106    72    74    1
   107    45    46    1
   108    46    47    1
   109    47    48    2
