@<TRIPOS>MOLECULE
tmp/5x6zD01.pdb
 194 190 0 0 0
SMALL
GASTEIGER

@<TRIPOS>ATOM
      1  N         -0.9340   -7.5230  -26.5230 N.3    73  ARG73      -0.1245
      2  CA         0.0890   -7.2830  -25.5120 C.3    73  ARG73       0.1563
      3  C          1.4580   -7.6930  -26.0340 C.2    73  ARG73       0.2260
      4  O          2.4480   -6.9790  -25.8400 O.2    73  ARG73      -0.2867
      5  CB        -0.2340   -8.0330  -24.2150 C.3    73  ARG73       0.0307
      6  CG        -1.1890   -7.2930  -23.2920 C.3    73  ARG73       0.0489
      7  CD        -0.5610   -6.0370  -22.6570 C.3    73  ARG73       0.2205
      8  NE        -1.3600   -5.5600  -21.5180 N.pl3  73  ARG73      -0.0865
      9  CZ        -1.7890   -4.3100  -21.3460 C.cat  73  ARG73       0.5346
     10  NH1       -1.5010   -3.3580  -22.2330 N.pl3  73  ARG73       0.1354
     11  NH2       -2.5130   -4.0040  -20.2720 N.pl3  73  ARG73       0.1354
     12  N        -11.0410    5.3980  -21.3340 N.3   591  GLN591     -0.1245
     13  CA       -10.1370    5.0050  -22.4100 C.3   591  GLN591      0.1566
     14  C        -10.4260    3.5750  -22.8590 C.2   591  GLN591      0.2260
     15  O        -10.2550    2.6310  -22.0800 O.2   591  GLN591     -0.2867
     16  CB        -8.6840    5.1280  -21.9500 C.3   591  GLN591      0.0367
     17  CG        -7.6220    4.8200  -23.0180 C.3   591  GLN591      0.0905
     18  CD        -6.3720    4.1780  -22.4220 C.2   591  GLN591      0.2608
     19  OE1       -6.2920    2.9580  -22.2910 O.2   591  GLN591     -0.2717
     20  NE2       -5.4040    5.0010  -22.0410 N.am  591  GLN591     -0.0878
     21  N         -5.8150    4.4030  -26.3500 N.3   596  SER596     -0.1203
     22  CA        -4.8050    3.7800  -25.5110 C.3   596  SER596      0.2005
     23  C         -3.3910    4.1240  -25.9840 C.2   596  SER596      0.2460
     24  O         -3.1360    4.2610  -27.1850 O.2   596  SER596     -0.2732
     25  CB        -4.9990    2.2680  -25.5210 C.3   596  SER596      0.2103
     26  OG        -3.8140    1.6000  -25.1270 O.3   596  SER596     -0.2182
     27  N         -2.4430    4.2630  -25.0560 N.am  597  PRO597     -0.2728
     28  CA        -1.0490    4.4460  -25.4640 C.3   597  PRO597      0.1401
     29  C         -0.2920    3.1360  -25.6390 C.2   597  PRO597      0.2269
     30  O          0.9390    3.1500  -25.6980 O.2   597  PRO597     -0.2865
     31  CB        -0.4710    5.2810  -24.3160 C.3   597  PRO597      0.0296
     32  CG        -1.1890    4.7810  -23.1230 C.3   597  PRO597      0.0237
     33  CD        -2.6000    4.3820  -23.5950 C.3   597  PRO597      0.0939
     34  N          5.3020    0.0660  -24.4190 N.3   602  LYS602     -0.1245
     35  CA         6.1560   -1.0980  -24.2310 C.3   602  LYS602      0.1561
     36  C          7.2850   -1.2060  -25.2410 C.2   602  LYS602      0.2260
     37  O          8.2910   -1.8390  -24.9230 O.2   602  LYS602     -0.2867
     38  CB         5.3430   -2.4090  -24.2850 C.3   602  LYS602      0.0271
     39  CG         4.2220   -2.5640  -23.2510 C.3   602  LYS602      0.0035
     40  CD         4.7720   -2.7170  -21.8400 C.3   602  LYS602      0.0206
     41  CE         3.8390   -2.0900  -20.7920 C.3   602  LYS602      0.1093
     42  NZ         2.4520   -2.6280  -20.8110 N.3   602  LYS602     -0.1314
     43  N         14.5190   -5.4190  -14.3020 N.3   619  TYR619     -0.1227
     44  CA        13.9470   -4.1000  -14.5760 C.3   619  TYR619      0.1736
     45  C         13.1180   -3.6020  -13.3910 C.2   619  TYR619      0.2595
     46  O         13.2330   -2.4400  -12.9930 O.2   619  TYR619     -0.2718
     47  CB        13.0930   -4.1730  -15.8440 C.3   619  TYR619      0.0548
     48  CG        12.3550   -2.9030  -16.2340 C.ar  619  TYR619     -0.0200
     49  CD1       13.0150   -1.8590  -16.8710 C.ar  619  TYR619     -0.0009
     50  CD2       10.9890   -2.7800  -16.0220 C.ar  619  TYR619     -0.0009
     51  CE1       12.3410   -0.6950  -17.2500 C.ar  619  TYR619      0.0417
     52  CE2       10.2960   -1.6140  -16.4090 C.ar  619  TYR619      0.0417
     53  CZ        10.9830   -0.5850  -17.0190 C.ar  619  TYR619      0.1957
     54  OH        10.3310    0.5660  -17.3920 O.3   619  TYR619     -0.2866
     55  N         12.2940   -4.4790  -12.8040 N.am  620  TYR620     -0.1976
     56  CA        11.4850   -4.0940  -11.6470 C.3   620  TYR620      0.1639
     57  C         12.3180   -3.9460  -10.3730 C.2   620  TYR620      0.2290
     58  O         11.9560   -3.1460   -9.5000 O.2   620  TYR620     -0.2864
     59  CB        10.3570   -5.0980  -11.4400 C.3   620  TYR620      0.0560
     60  CG         9.3800   -5.0910  -12.6030 C.ar  620  TYR620     -0.0198
     61  CD1        8.6180   -3.9540  -12.8980 C.ar  620  TYR620     -0.0009
     62  CD2        9.2540   -6.1920  -13.4290 C.ar  620  TYR620     -0.0009
     63  CE1        7.7350   -3.9310  -13.9830 C.ar  620  TYR620      0.0417
     64  CE2        8.3740   -6.1820  -14.5180 C.ar  620  TYR620      0.0417
     65  CZ         7.6270   -5.0450  -14.7930 C.ar  620  TYR620      0.1957
     66  OH         6.7650   -5.0400  -15.8650 O.3   620  TYR620     -0.2866
     67  N         13.5540   -0.3990  -10.5250 N.3   623  ARG623     -0.1245
     68  CA        12.5640    0.5990  -10.1330 C.3   623  ARG623      0.1563
     69  C         12.4280    0.6700   -8.6170 C.2   623  ARG623      0.2260
     70  O         12.3250    1.7660   -8.0500 O.2   623  ARG623     -0.2867
     71  CB        11.2250    0.2940  -10.7950 C.3   623  ARG623      0.0307
     72  CG        11.3760    0.1330  -12.3100 C.3   623  ARG623      0.0489
     73  CD        10.1640    0.5660  -13.0990 C.3   623  ARG623      0.2205
     74  NE         8.9210    0.0880  -12.5150 N.pl3 623  ARG623     -0.0865
     75  CZ         7.8120   -0.1080  -13.2240 C.cat 623  ARG623      0.5346
     76  NH1        7.8180    0.1250  -14.5300 N.pl3 623  ARG623      0.1354
     77  NH2        6.7060   -0.5530  -12.6360 N.pl3 623  ARG623      0.1354
     78  N          7.2250   -6.8510  -10.1510 N.3   647  GLY647     -0.1225
     79  CA         6.2510   -6.2610  -11.0530 C.3   647  GLY647      0.1811
     80  C          4.9690   -5.8830  -10.3400 C.2   647  GLY647      0.2280
     81  O          4.3770   -4.8350  -10.6190 O.2   647  GLY647     -0.2866
     82  N          2.5250    0.0140   -5.7400 N.3   675  ASN675     -0.1225
     83  CA         2.9530   -0.3730   -7.0830 C.3   675  ASN675      0.1785
     84  C          2.8980    0.8770   -7.9520 C.2   675  ASN675      0.2597
     85  O          1.8110    1.3360   -8.3120 O.2   675  ASN675     -0.2718
     86  CB         2.0510   -1.4850   -7.6380 C.3   675  ASN675      0.1169
     87  CG         2.6540   -2.1970   -8.8470 C.2   675  ASN675      0.2627
     88  OD1        3.8360   -2.5520   -8.8540 O.2   675  ASN675     -0.2716
     89  ND2        1.8340   -2.4210   -9.8710 N.am  675  ASN675     -0.0877
     90  N          4.0530    1.4460   -8.2720 N.am  676  ILE676     -0.1966
     91  CA         4.0620    2.7000   -9.0130 C.3   676  ILE676      0.1727
     92  C          3.7100    2.4450  -10.4810 C.2   676  ILE676      0.2617
     93  O          3.7150    1.3110  -10.9600 O.2   676  ILE676     -0.2715
     94  CB         5.4160    3.4090   -8.8660 C.3   676  ILE676      0.0290
     95  CG1        6.5170    2.6620   -9.6240 C.3   676  ILE676      0.0022
     96  CG2        5.7920    3.5170   -7.3800 C.3   676  ILE676      0.0023
     97  CD1        7.7730    3.5120   -9.8380 C.3   676  ILE676      0.0001
     98  N          3.3650    3.5190  -11.1940 N.am  677  SER677     -0.1936
     99  CA         2.8160    3.4120  -12.5460 C.3   677  SER677      0.2055
    100  C          3.9490    3.2730  -13.5580 C.2   677  SER677      0.2644
    101  O          4.6610    4.2370  -13.8480 O.2   677  SER677     -0.2714
    102  CB         1.9490    4.6280  -12.8700 C.3   677  SER677      0.2130
    103  OG         1.6920    4.7120  -14.2650 O.3   677  SER677     -0.2179
    104  N          4.1060    2.0810  -14.1210 N.am  678  GLY678     -0.1939
    105  CA         5.0970    1.9110  -15.1780 C.3   678  GLY678      0.2014
    106  C          4.8270    2.7620  -16.4110 C.2   678  GLY678      0.2638
    107  O          5.7630    3.2420  -17.0580 O.2   678  GLY678     -0.2714
    108  N          3.5490    2.9610  -16.7570 N.am  679  HIS679     -0.1973
    109  CA         3.2150    3.6780  -17.9950 C.3   679  HIS679      0.1656
    110  C          3.8190    5.0720  -18.0050 C.2   679  HIS679      0.2291
    111  O          4.3270    5.5370  -19.0320 O.2   679  HIS679     -0.2864
    112  CB         1.7010    3.7980  -18.1610 C.3   679  HIS679      0.0771
    113  CG         1.0350    2.5770  -18.7030 C.ar  679  HIS679      0.0820
    114  ND1        1.5690    1.3140  -18.5790 N.ar  679  HIS679     -0.2267
    115  CD2       -0.1400    2.4270  -19.3640 C.ar  679  HIS679      0.1154
    116  CE1        0.7530    0.4370  -19.1410 C.ar  679  HIS679      0.1986
    117  NE2       -0.2950    1.0880  -19.6180 N.ar  679  HIS679     -0.2212
    118  N          7.5000    4.7490  -18.7860 N.3   682  SER682     -0.1217
    119  CA         7.6560    4.3780  -20.1980 C.3   682  SER682      0.1889
    120  C          7.2940    5.5320  -21.1290 C.2   682  SER682      0.2288
    121  O          8.0400    5.8520  -22.0610 O.2   682  SER682     -0.2866
    122  CB         6.7880    3.1580  -20.5340 C.3   682  SER682      0.2089
    123  OG         6.9280    2.1310  -19.5660 O.3   682  SER682     -0.2183
    124  N         -3.1800   10.4750  -21.3210 N.3   697  TRP697     -0.1241
    125  CA        -3.1160    9.2920  -20.4690 C.3   697  TRP697      0.1605
    126  C         -3.2910    9.6700  -18.9990 C.2   697  TRP697      0.2264
    127  O         -3.9810    8.9740  -18.2490 O.2   697  TRP697     -0.2867
    128  CB        -1.7950    8.5480  -20.6750 C.3   697  TRP697      0.0550
    129  CG        -1.5600    7.5510  -19.5910 C.ar  697  TRP697      0.0003
    130  CD1       -2.0540    6.2780  -19.5260 C.ar  697  TRP697      0.0946
    131  CD2       -0.8040    7.7470  -18.3910 C.ar  697  TRP697      0.0152
    132  NE1       -1.6360    5.6660  -18.3750 N.ar  697  TRP697     -0.2442
    133  CE2       -0.8710    6.5430  -17.6550 C.ar  697  TRP697      0.0810
    134  CE3       -0.0800    8.8180  -17.8670 C.ar  697  TRP697      0.0012
    135  CZ2       -0.2400    6.3810  -16.4140 C.ar  697  TRP697      0.0191
    136  CZ3        0.5470    8.6580  -16.6350 C.ar  697  TRP697      0.0001
    137  CH2        0.4630    7.4440  -15.9230 C.ar  697  TRP697      0.0015
    138  N         -5.9430    8.3380  -16.3850 N.3   701  MET701     -0.1245
    139  CA        -5.4830    7.6140  -15.1990 C.3   701  MET701      0.1570
    140  C         -6.1610    8.1560  -13.9420 C.2   701  MET701      0.2261
    141  O         -6.7520    7.3920  -13.1690 O.2   701  MET701     -0.2867
    142  CB        -3.9560    7.7020  -15.1020 C.3   701  MET701      0.0387
    143  CG        -3.3500    7.3250  -13.7470 C.3   701  MET701      0.0595
    144  SD        -3.7340    5.6510  -13.2360 S.3   701  MET701     -0.1393
    145  CE        -2.5340    4.7130  -14.1960 C.3   701  MET701      0.0692
    146  N         -8.2660   -4.5560  -23.5200 N.3   721  ASP721     -0.1225
    147  CA        -7.0440   -4.2370  -22.7980 C.3   721  ASP721      0.1805
    148  C         -7.3240   -3.5000  -21.4890 C.2   721  ASP721      0.2598
    149  O         -6.4110   -2.9100  -20.9100 O.2   721  ASP721     -0.2718
    150  CB        -6.1090   -3.4150  -23.6990 C.3   721  ASP721      0.1424
    151  CG        -4.6260   -3.6010  -23.3560 C.2   721  ASP721      0.3668
    152  OD1       -4.2070   -4.7240  -22.9960 O.co2 721  ASP721     -0.2456
    153  OD2       -3.8660   -2.6170  -23.4540 O.co2 721  ASP721     -0.2456
    154  N         -8.5700   -3.5210  -21.0200 N.am  722  ASN722     -0.1960
    155  CA        -8.9630   -2.9290  -19.7470 C.3   722  ASN722      0.1819
    156  C         -9.2560   -4.0560  -18.7630 C.2   722  ASN722      0.2621
    157  O        -10.0110   -4.9830  -19.0830 O.2   722  ASN722     -0.2715
    158  CB       -10.1930   -2.0210  -19.9060 C.3   722  ASN722      0.1195
    159  CG        -9.9500   -0.8470  -20.8590 C.2   722  ASN722      0.2630
    160  OD1       -9.7000   -1.0340  -22.0590 O.2   722  ASN722     -0.2716
    161  ND2      -10.0310    0.3640  -20.3340 N.am  722  ASN722     -0.0877
    162  N         -8.6370   -4.0030  -17.5830 N.am  723  LYS723     -0.1977
    163  CA        -8.8480   -5.0670  -16.6100 C.3   723  LYS723      0.1596
    164  C        -10.2160   -4.9150  -15.9530 C.2   723  LYS723      0.2287
    165  O        -10.6900   -3.7970  -15.7120 O.2   723  LYS723     -0.2864
    166  CB        -7.7350   -5.0930  -15.5590 C.3   723  LYS723      0.0298
    167  CG        -7.3410   -3.7490  -14.9880 C.3   723  LYS723      0.0038
    168  CD        -6.2530   -3.9070  -13.9220 C.3   723  LYS723      0.0206
    169  CE        -6.0050   -2.5840  -13.1770 C.3   723  LYS723      0.1093
    170  NZ        -5.3280   -2.7760  -11.8480 N.3   723  LYS723     -0.1314
    171  N         -7.0640    1.7540  -11.8430 N.3   733  TRP733     -0.1227
    172  CA        -5.7050    1.4940  -12.3110 C.3   733  TRP733      0.1737
    173  C         -4.6790    1.6920  -11.2070 C.2   733  TRP733      0.2595
    174  O         -4.0680    0.7270  -10.7350 O.2   733  TRP733     -0.2718
    175  CB        -5.3530    2.3930  -13.4920 C.3   733  TRP733      0.0564
    176  CG        -6.1380    2.1410  -14.7410 C.ar  733  TRP733      0.0003
    177  CD1       -6.9930    1.1060  -14.9920 C.ar  733  TRP733      0.0946
    178  CD2       -6.1320    2.9580  -15.9190 C.ar  733  TRP733      0.0152
    179  NE1       -7.5230    1.2300  -16.2610 N.ar  733  TRP733     -0.2442
    180  CE2       -7.0130    2.3630  -16.8460 C.ar  733  TRP733      0.0810
    181  CE3       -5.4720    4.1410  -16.2710 C.ar  733  TRP733      0.0012
    182  CZ2       -7.2420    2.9070  -18.1190 C.ar  733  TRP733      0.0191
    183  CZ3       -5.6980    4.6820  -17.5280 C.ar  733  TRP733      0.0001
    184  CH2       -6.5810    4.0640  -18.4380 C.ar  733  TRP733      0.0015
    185  N         -4.4580    2.9420  -10.8120 N.am  734  HIS734     -0.1975
    186  CA        -3.4970    3.2390   -9.7650 C.3   734  HIS734      0.1656
    187  C         -4.0820    4.2880   -8.8360 C.2   734  HIS734      0.2291
    188  O         -5.0570    4.9710   -9.1650 O.2   734  HIS734     -0.2864
    189  CB        -2.1630    3.7400  -10.3290 C.3   734  HIS734      0.0771
    190  CG        -1.2400    2.6450  -10.7640 C.ar  734  HIS734      0.0820
    191  ND1       -0.9760    1.5390   -9.9870 N.ar  734  HIS734     -0.2267
    192  CD2       -0.5230    2.4840  -11.9030 C.ar  734  HIS734      0.1154
    193  CE1       -0.1380    0.7430  -10.6250 C.ar  734  HIS734      0.1986
    194  NE2        0.1550    1.2950  -11.7890 N.ar  734  HIS734     -0.2212
@<TRIPOS>BOND
     1    24    23    2
     2     1     2    1
     3    21    22    1
     4     3     4    2
     5     3     2    1
     6    23    22    1
     7    23    27   am
     8    30    29    2
     9    29    28    1
    10    25    22    1
    11    25    26    1
    12     2     5    1
    13    28    27    1
    14    28    31    1
    15    36    37    2
    16    36    35    1
    17    27    33    1
    18    34    35    1
    19    31    32    1
    20    38    35    1
    21    38    39    1
    22     5     6    1
    23   150   151    1
    24   150   147    1
    25    33    32    1
    26   146   147    1
    27   153   151   ar
    28   151   152   ar
    29     6     7    1
    30    39    40    1
    31    17    18    1
    32    17    16    1
    33    14    13    1
    34    14    15    2
    35   147   148    1
    36     7     8    1
    37    18    19    2
    38    18    20   am
    39    13    16    1
    40    13    12    1
    41    10     9    1
    42   121   120    2
    43   160   159    2
    44    40    41    1
    45     8     9    2
    46   148   154   am
    47   148   149    2
    48     9    11    1
    49   124   125    1
    50   120   119    1
    51   154   155    1
    52   159   161   am
    53   159   158    1
    54    42    41    1
    55   128   125    1
    56   128   129    1
    57   122   119    1
    58   122   123    1
    59   125   126    1
    60   119   118    1
    61   158   155    1
    62   155   156    1
    63   117   115   ar
    64   117   116   ar
    65   129   130   ar
    66   129   131   ar
    67   130   132   ar
    68   115   113   ar
    69   116   114   ar
    70   157   156    2
    71   111   110    2
    72   126   127    2
    73   156   162   am
    74   113   114   ar
    75   113   112    1
    76   184   182   ar
    77   184   183   ar
    78   131   134   ar
    79   131   133   ar
    80   132   133   ar
    81   112   109    1
    82   182   180   ar
    83   110   109    1
    84   109   108    1
    85   134   136   ar
    86   133   135   ar
    87   162   163    1
    88   183   181   ar
    89    54    53    1
    90    51    53   ar
    91    51    49   ar
    92   107   106    2
    93    53    52   ar
    94    49    48   ar
    95   180   179   ar
    96   180   178   ar
    97   108   106   am
    98   136   137   ar
    99   163   164    1
   100   163   166    1
   101   135   137   ar
   102   106   105    1
   103    52    50   ar
   104   138   139    1
   105   181   178   ar
   106   179   177   ar
   107    48    50   ar
   108    48    47    1
   109   164   165    2
   110   178   176   ar
   111    66    65    1
   112    47    44    1
   113   166   167    1
   114   139   142    1
   115   139   140    1
   116   105   104    1
   117   142   143    1
   118   177   176   ar
   119   167   168    1
   120    65    64   ar
   121    65    63   ar
   122   176   175    1
   123    44    43    1
   124    44    45    1
   125    76    75    1
   126    64    62   ar
   127   103   102    1
   128   145   144    1
   129   104   100   am
   130    63    61   ar
   131   140   141    2
   132   168   169    1
   133   101   100    2
   134   143   144    1
   135   100    99    1
   136   175   172    1
   137    62    60   ar
   138    45    46    2
   139    45    55   am
   140    75    77    1
   141    75    74    2
   142   169   170    1
   143    73    74    1
   144    73    72    1
   145    61    60   ar
   146   102    99    1
   147    55    56    1
   148    60    59    1
   149    99    98    1
   150   172   171    1
   151   172   173    1
   152    72    71    1
   153   192   194   ar
   154   192   190   ar
   155   194   193   ar
   156    56    59    1
   157    56    57    1
   158   173   185   am
   159   173   174    2
   160    98    92   am
   161    79    80    1
   162    79    78    1
   163    93    92    2
   164   185   186    1
   165    71    68    1
   166   190   189    1
   167   190   191   ar
   168   193   191   ar
   169    81    80    2
   170    67    68    1
   171    92    91    1
   172    57    58    2
   173   189   186    1
   174    68    69    1
   175    89    87   am
   176    97    95    1
   177   186   187    1
   178    95    94    1
   179   188   187    2
   180    91    94    1
   181    91    90    1
   182    94    96    1
   183    88    87    2
   184    87    86    1
   185    69    70    2
   186    85    84    2
   187    90    84   am
   188    84    83    1
   189    86    83    1
   190    83    82    1
