@<TRIPOS>MOLECULE
tmp/5x71A00.pdb
 157 155 0 0 0
SMALL
GASTEIGER

@<TRIPOS>ATOM
      1  N         -3.2550    8.7200   39.3080 N.3   611  GLN611     -0.1231
      2  CA        -2.3100    9.7130   38.8120 C.3   611  GLN611      0.1698
      3  C         -1.8940   10.6530   39.9350 C.2   611  GLN611      0.2592
      4  O         -2.7140   11.4060   40.4670 O.2   611  GLN611     -0.2718
      5  CB        -2.9270   10.4990   37.6630 C.3   611  GLN611      0.0381
      6  CG        -2.0530   11.6520   37.1840 C.3   611  GLN611      0.0905
      7  CD        -2.8550   12.7380   36.4930 C.2   611  GLN611      0.2608
      8  OE1       -2.9740   13.8520   37.0050 O.2   611  GLN611     -0.2717
      9  NE2       -3.4130   12.4210   35.3240 N.am  611  GLN611     -0.0878
     10  N         -0.6230   10.6130   40.2930 N.am  612  ASP612     -0.1974
     11  CA         0.0020   11.6610   41.0740 C.3   612  ASP612      0.1709
     12  C          0.7540   12.5720   40.1090 C.2   612  ASP612      0.2293
     13  O          0.6050   12.4710   38.8880 O.2   612  ASP612     -0.2864
     14  CB         0.9210   11.0590   42.1310 C.3   612  ASP612      0.1436
     15  CG         2.0110   10.2040   41.5190 C.2   612  ASP612      0.3671
     16  OD1        1.7760    9.6370   40.4290 O.co2 612  ASP612     -0.2456
     17  OD2        3.1040   10.1120   42.1130 O.co2 612  ASP612     -0.2456
     18  N          1.3520   13.2120   35.6670 N.3   616  SER616     -0.1203
     19  CA         0.4210   14.2750   35.3420 C.3   616  SER616      0.2005
     20  C          0.6610   14.7860   33.9260 C.2   616  SER616      0.2460
     21  O          1.7950   14.7910   33.4450 O.2   616  SER616     -0.2732
     22  CB         0.5540   15.4350   36.3160 C.3   616  SER616      0.2103
     23  OG        -0.2620   16.5030   35.8850 O.3   616  SER616     -0.2182
     24  N         -0.3990   15.2230   33.2350 N.am  617  PRO617     -0.2728
     25  CA        -0.2100   15.9160   31.9560 C.3   617  PRO617      0.1401
     26  C         -0.1370   17.4210   32.1330 C.2   617  PRO617      0.2269
     27  O         -0.3160   18.1650   31.1630 O.2   617  PRO617     -0.2865
     28  CB        -1.4550   15.5150   31.1640 C.3   617  PRO617      0.0296
     29  CG        -2.5080   15.3820   32.2240 C.3   617  PRO617      0.0237
     30  CD        -1.8180   14.9150   33.4860 C.3   617  PRO617      0.0939
     31  N         -1.8340   23.0600   29.6550 N.3   622  LYS622     -0.1245
     32  CA        -2.0440   24.4820   29.8830 C.3   622  LYS622      0.1561
     33  C         -1.2320   25.3830   28.9660 C.2   622  LYS622      0.2260
     34  O         -1.7240   26.4500   28.5970 O.2   622  LYS622     -0.2867
     35  CB        -1.7180   24.8340   31.3470 C.3   622  LYS622      0.0271
     36  CG        -2.9340   25.0520   32.2460 C.3   622  LYS622      0.0035
     37  CD        -3.8960   23.8800   32.2120 C.3   622  LYS622      0.0206
     38  CE        -5.0410   24.0790   33.2000 C.3   622  LYS622      0.1093
     39  NZ        -6.1330   23.0810   33.0010 N.3   622  LYS622     -0.1314
     40  N        -16.3790   27.4410   24.8310 N.3   643  ARG643     -0.1245
     41  CA       -16.7120   26.0380   25.0620 C.3   643  ARG643      0.1563
     42  C        -18.2210   25.8300   25.1320 C.2   643  ARG643      0.2260
     43  O        -18.7350   24.8260   24.6310 O.2   643  ARG643     -0.2867
     44  CB       -16.0300   25.5330   26.3320 C.3   643  ARG643      0.0307
     45  CG       -14.5510   25.8640   26.3750 C.3   643  ARG643      0.0489
     46  CD       -13.7630   24.8090   27.1180 C.3   643  ARG643      0.2205
     47  NE       -14.4190   24.4390   28.3650 N.pl3 643  ARG643     -0.0865
     48  CZ       -13.7730   24.0420   29.4570 C.cat 643  ARG643      0.5346
     49  NH1      -12.4460   23.9730   29.4560 N.pl3 643  ARG643      0.1354
     50  NH2      -14.4540   23.7220   30.5520 N.pl3 643  ARG643      0.1354
     51  N        -20.3380   20.0880   33.2180 N.3   695  ASN695     -0.1225
     52  CA       -19.0530   20.7610   33.0580 C.3   695  ASN695      0.1785
     53  C        -18.1420   19.8180   32.2810 C.2   695  ASN695      0.2597
     54  O        -17.6980   18.8010   32.8210 O.2   695  ASN695     -0.2718
     55  CB       -18.4590   21.1160   34.4240 C.3   695  ASN695      0.1169
     56  CG       -17.2630   22.0310   34.3230 C.2   695  ASN695      0.2627
     57  OD1      -17.2840   23.0180   33.5860 O.2   695  ASN695     -0.2716
     58  ND2      -16.2060   21.7100   35.0660 N.am  695  ASN695     -0.0877
     59  N        -17.8680   20.1400   31.0140 N.am  696  ILE696     -0.1966
     60  CA       -17.1230   19.2160   30.1660 C.3   696  ILE696      0.1727
     61  C        -15.6270   19.3300   30.4460 C.2   696  ILE696      0.2617
     62  O        -15.1360   20.3120   31.0090 O.2   696  ILE696     -0.2715
     63  CB       -17.4240   19.4430   28.6750 C.3   696  ILE696      0.0290
     64  CG1      -17.0010   20.8490   28.2520 C.3   696  ILE696      0.0022
     65  CG2      -18.8940   19.1710   28.3680 C.3   696  ILE696      0.0023
     66  CD1      -16.6950   20.9650   26.7750 C.3   696  ILE696      0.0001
     67  N        -14.8920   18.3070   30.0120 N.am  697  SER697     -0.1936
     68  CA       -13.4780   18.1770   30.3380 C.3   697  SER697      0.2055
     69  C        -12.6350   19.0910   29.4620 C.2   697  SER697      0.2644
     70  O        -12.5740   18.9110   28.2400 O.2   697  SER697     -0.2714
     71  CB       -13.0220   16.7330   30.1660 C.3   697  SER697      0.2130
     72  OG       -11.6240   16.6380   30.3750 O.3   697  SER697     -0.2179
     73  N        -11.9690   20.0600   30.0920 N.am  698  GLY698     -0.1939
     74  CA       -11.0070   20.8800   29.3840 C.3   698  GLY698      0.2014
     75  C         -9.6850   20.1980   29.1270 C.2   698  GLY698      0.2638
     76  O         -8.9990   20.5470   28.1620 O.2   698  GLY698     -0.2714
     77  N         -9.3100   19.2340   29.9710 N.am  699  HIS699     -0.1973
     78  CA        -8.0810   18.4860   29.7320 C.3   699  HIS699      0.1656
     79  C         -8.1170   17.7950   28.3760 C.2   699  HIS699      0.2291
     80  O         -7.1240   17.8110   27.6370 O.2   699  HIS699     -0.2864
     81  CB        -7.8630   17.4640   30.8440 C.3   699  HIS699      0.0771
     82  CG        -7.1450   18.0130   32.0360 C.ar  699  HIS699      0.0820
     83  ND1       -7.6180   19.0870   32.7580 N.ar  699  HIS699     -0.2267
     84  CD2       -5.9970   17.6270   32.6450 C.ar  699  HIS699      0.1154
     85  CE1       -6.7910   19.3450   33.7550 C.ar  699  HIS699      0.1986
     86  NE2       -5.7990   18.4730   33.7090 N.ar  699  HIS699     -0.2212
     87  N         -4.0360    9.5900   30.2280 N.3   717  TRP717     -0.1241
     88  CA        -4.9040   10.4650   31.0050 C.3   717  TRP717      0.1605
     89  C         -6.3410    9.9670   30.9830 C.2   717  TRP717      0.2264
     90  O         -7.0420   10.0280   31.9990 O.2   717  TRP717     -0.2867
     91  CB        -4.8330   11.8940   30.4680 C.3   717  TRP717      0.0550
     92  CG        -5.9720   12.7400   30.9530 C.ar  717  TRP717      0.0003
     93  CD1       -6.0180   13.4550   32.1090 C.ar  717  TRP717      0.0946
     94  CD2       -7.2340   12.9500   30.3000 C.ar  717  TRP717      0.0152
     95  NE1       -7.2230   14.1010   32.2180 N.ar  717  TRP717     -0.2442
     96  CE2       -7.9900   13.8040   31.1230 C.ar  717  TRP717      0.0810
     97  CE3       -7.7970   12.4930   29.1030 C.ar  717  TRP717      0.0012
     98  CZ2       -9.2780   14.2150   30.7880 C.ar  717  TRP717      0.0191
     99  CZ3       -9.0690   12.9020   28.7710 C.ar  717  TRP717      0.0001
    100  CH2       -9.7990   13.7570   29.6090 C.ar  717  TRP717      0.0015
    101  N         -8.7600    9.2450   34.0260 N.3   721  MET721     -0.1245
    102  CA       -10.0220    9.9630   34.1530 C.3   721  MET721      0.1570
    103  C        -11.1700    9.0010   34.4300 C.2   721  MET721      0.2261
    104  O        -11.9890    9.2490   35.3210 O.2   721  MET721     -0.2867
    105  CB       -10.2850   10.7850   32.8900 C.3   721  MET721      0.0387
    106  CG       -11.6730   11.4020   32.8150 C.3   721  MET721      0.0595
    107  SD       -12.0440   12.5200   34.1850 S.3   721  MET721     -0.1393
    108  CE       -11.2960   14.0530   33.6420 C.3   721  MET721      0.0692
    109  N         -1.6650   18.5850   43.1490 N.3   741  ASP741     -0.1225
    110  CA        -2.5340   18.9650   42.0440 C.3   741  ASP741      0.1805
    111  C         -3.7520   18.0550   41.9230 C.2   741  ASP741      0.2598
    112  O         -4.4640   18.1170   40.9160 O.2   741  ASP741     -0.2718
    113  CB        -1.7320   18.9790   40.7380 C.3   741  ASP741      0.1424
    114  CG        -2.4420   19.7140   39.6120 C.2   741  ASP741      0.3668
    115  OD1       -2.2290   19.3410   38.4370 O.co2 741  ASP741     -0.2456
    116  OD2       -3.2090   20.6590   39.9020 O.co2 741  ASP741     -0.2456
    117  N         -4.0110   17.2100   42.9190 N.am  742  ASN742     -0.1960
    118  CA        -5.2340   16.4150   42.9770 C.3   742  ASN742      0.1819
    119  C         -6.1880   17.0910   43.9520 C.2   742  ASN742      0.2621
    120  O         -5.8720   17.2200   45.1410 O.2   742  ASN742     -0.2715
    121  CB        -4.9490   14.9780   43.4180 C.3   742  ASN742      0.1195
    122  CG        -3.9650   14.2570   42.5060 C.2   742  ASN742      0.2630
    123  OD1       -2.8110   14.6690   42.3640 O.2   742  ASN742     -0.2716
    124  ND2       -4.4100   13.1560   41.9080 N.am  742  ASN742     -0.0877
    125  N         -7.3370   17.5410   43.4540 N.am  743  LYS743     -0.1977
    126  CA        -8.2710   18.2390   44.3270 C.3   743  LYS743      0.1596
    127  C         -8.8740   17.2680   45.3370 C.2   743  LYS743      0.2287
    128  O         -8.9530   16.0580   45.1070 O.2   743  LYS743     -0.2864
    129  CB        -9.3640   18.9410   43.5180 C.3   743  LYS743      0.0298
    130  CG       -10.3480   18.0300   42.8140 C.3   743  LYS743      0.0038
    131  CD       -11.4480   18.8640   42.1630 C.3   743  LYS743      0.0206
    132  CE       -12.3400   18.0320   41.2630 C.3   743  LYS743      0.1093
    133  NZ       -13.4340   18.8550   40.6730 N.3   743  LYS743     -0.1314
    134  N        -13.2780   13.6020   39.2260 N.3   753  TRP753     -0.1227
    135  CA       -12.9170   14.6150   38.2250 C.3   753  TRP753      0.1737
    136  C        -14.1130   14.9520   37.3420 C.2   753  TRP753      0.2595
    137  O        -14.6290   16.0730   37.3800 O.2   753  TRP753     -0.2718
    138  CB       -11.7380   14.1260   37.3870 C.3   753  TRP753      0.0564
    139  CG       -10.4500   14.0780   38.1310 C.ar  753  TRP753      0.0003
    140  CD1      -10.2070   14.5660   39.3830 C.ar  753  TRP753      0.0946
    141  CD2       -9.2310   13.4800   37.6870 C.ar  753  TRP753      0.0152
    142  NE1       -8.9030   14.3250   39.7360 N.ar  753  TRP753     -0.2442
    143  CE2       -8.2830   13.6550   38.7140 C.ar  753  TRP753      0.0810
    144  CE3       -8.8470   12.8180   36.5160 C.ar  753  TRP753      0.0012
    145  CZ2       -6.9750   13.1910   38.6080 C.ar  753  TRP753      0.0191
    146  CZ3       -7.5530   12.3560   36.4120 C.ar  753  TRP753      0.0001
    147  CH2       -6.6290   12.5440   37.4520 C.ar  753  TRP753      0.0015
    148  N        -14.5600   13.9910   36.5370 N.am  754  HIS754     -0.1975
    149  CA       -15.6320   14.2340   35.5860 C.3   754  HIS754      0.1656
    150  C        -16.4680   12.9770   35.4270 C.2   754  HIS754      0.2291
    151  O        -15.9910   11.8600   35.6410 O.2   754  HIS754     -0.2864
    152  CB       -15.0810   14.6580   34.2230 C.3   754  HIS754      0.0771
    153  CG       -14.8520   16.1290   34.1010 C.ar  754  HIS754      0.0820
    154  ND1      -15.7270   17.0610   34.6160 N.ar  754  HIS754     -0.2267
    155  CD2      -13.8430   16.8310   33.5360 C.ar  754  HIS754      0.1154
    156  CE1      -15.2690   18.2750   34.3660 C.ar  754  HIS754      0.1986
    157  NE2      -14.1290   18.1630   33.7090 N.ar  754  HIS754     -0.2212
@<TRIPOS>BOND
     1    43    42    2
     2    40    41    1
     3    41    42    1
     4    41    44    1
     5    44    45    1
     6    45    46    1
     7    66    64    1
     8    46    47    1
     9    80    79    2
    10    76    75    2
    11    70    69    2
    12    64    63    1
    13    47    48    2
    14    65    63    1
    15    79    78    1
    16    34    33    2
    17    63    60    1
    18    99    97   ar
    19    99   100   ar
    20    33    32    1
    21    97    94   ar
    22    75    74    1
    23    75    77   am
    24    74    73    1
    25    49    48    1
    26    48    50    1
    27    69    73   am
    28    69    68    1
    29   100    98   ar
    30    31    32    1
    31    78    77    1
    32    78    81    1
    33    32    35    1
    34    67    68    1
    35    67    61   am
    36    71    68    1
    37    71    72    1
    38    60    61    1
    39    60    59    1
    40    87    88    1
    41    94    92   ar
    42    94    96   ar
    43    61    62    2
    44    91    92    1
    45    91    88    1
    46    98    96   ar
    47    81    82    1
    48    92    93   ar
    49    89    88    1
    50    89    90    2
    51    59    53   am
    52    96    95   ar
    53    27    26    2
    54    28    25    1
    55    28    29    1
    56    35    36    1
    57    25    26    1
    58    25    24    1
    59    82    84   ar
    60    82    83   ar
    61    93    95   ar
    62    37    36    1
    63    37    38    1
    64    29    30    1
    65    53    54    2
    66    53    52    1
    67    84    86   ar
    68    83    85   ar
    69   106   105    1
    70   106   107    1
    71   105   102    1
    72    39    38    1
    73    52    51    1
    74    52    55    1
    75    24    30    1
    76    24    20   am
    77    21    20    2
    78   155   157   ar
    79   155   153   ar
    80    57    56    2
    81   108   107    1
    82    86    85   ar
    83   157   156   ar
    84    20    19    1
    85   101   102    1
    86   153   152    1
    87   153   154   ar
    88   102   103    1
    89   152   149    1
    90    56    55    1
    91    56    58   am
    92   156   154   ar
    93   103   104    2
    94     9     7   am
    95    19    18    1
    96    19    22    1
    97   150   149    1
    98   150   151    2
    99   149   148    1
   100    23    22    1
   101   146   144   ar
   102   146   147   ar
   103     7     8    2
   104     7     6    1
   105   144   141   ar
   106   148   136   am
   107     6     5    1
   108   136   137    2
   109   136   135    1
   110   138   139    1
   111   138   135    1
   112   147   145   ar
   113     5     2    1
   114   141   139   ar
   115   141   143   ar
   116   139   140   ar
   117   135   134    1
   118   115   114   ar
   119   145   143   ar
   120   143   142   ar
   121     2     1    1
   122     2     3    1
   123    13    12    2
   124   140   142   ar
   125   114   116   ar
   126   114   113    1
   127     3    10   am
   128     3     4    2
   129    12    11    1
   130    10    11    1
   131    16    15   ar
   132   133   132    1
   133   113   110    1
   134   112   111    2
   135    11    14    1
   136   132   131    1
   137    15    17   ar
   138    15    14    1
   139   124   122   am
   140   111   110    1
   141   111   117   am
   142   110   109    1
   143   131   130    1
   144   123   122    2
   145   122   121    1
   146   130   129    1
   147   117   118    1
   148   118   121    1
   149   118   119    1
   150   125   119   am
   151   125   126    1
   152   129   126    1
   153   119   120    2
   154   126   127    1
   155   128   127    2
