@<TRIPOS>MOLECULE
tmp/5x72A00.pdb
 184 168 0 0 0
SMALL
GASTEIGER

@<TRIPOS>ATOM
      1  N        -30.5290   19.9230  123.7130 N.3    17  LEU17      -0.1245
      2  CA       -29.7110   18.7140  123.7370 C.3    17  LEU17       0.1561
      3  C        -30.6230   17.6660  124.3300 C.2    17  LEU17       0.2260
      4  O        -31.0770   17.7900  125.4540 O.2    17  LEU17      -0.2867
      5  CB       -28.5110   18.9850  124.6020 C.3    17  LEU17       0.0270
      6  CG       -27.4650   17.8890  124.8210 C.3    17  LEU17       0.0019
      7  CD1      -27.0140   17.4060  123.4890 C.3    17  LEU17       0.0001
      8  CD2      -26.2290   18.4390  125.4970 C.3    17  LEU17       0.0001
      9  N        -27.1010   12.3900  125.5420 N.3    20  MET20      -0.1245
     10  CA       -25.7070   12.3070  125.2890 C.3    20  MET20       0.1570
     11  C        -25.1000   11.1450  126.0170 C.2    20  MET20       0.2261
     12  O        -25.5510   10.7880  127.0830 O.2    20  MET20      -0.2867
     13  CB       -25.0010   13.6040  125.7630 C.3    20  MET20       0.0387
     14  CG       -23.4810   13.5760  125.6650 C.3    20  MET20       0.0595
     15  SD       -22.7370   15.2680  125.8680 S.3    20  MET20      -0.1393
     16  CE       -23.4490   15.8890  127.4120 C.3    20  MET20       0.0692
     17  N        -20.9050    8.9990  126.6400 N.3    22  LEU22      -0.1245
     18  CA       -19.4660    9.0640  126.4970 C.3    22  LEU22       0.1561
     19  C        -19.0180    7.6380  126.5120 C.2    22  LEU22       0.2260
     20  O        -19.6320    6.8780  127.2880 O.2    22  LEU22      -0.2867
     21  CB       -18.8570    9.7630  127.7160 C.3    22  LEU22       0.0270
     22  CG       -19.0950   11.2610  127.8180 C.3    22  LEU22       0.0019
     23  CD1      -18.3150   11.8060  129.0410 C.3    22  LEU22       0.0001
     24  CD2      -18.6540   11.9820  126.5870 C.3    22  LEU22       0.0001
     25  N        -20.6170    7.0550  130.4950 N.3    32  TRP32      -0.1241
     26  CA       -21.6330    7.9210  131.0720 C.3    32  TRP32       0.1605
     27  C        -22.7860    8.1370  130.0610 C.2    32  TRP32       0.2264
     28  O        -22.5420    8.2390  128.8890 O.2    32  TRP32      -0.2867
     29  CB       -20.9660    9.2440  131.4350 C.3    32  TRP32       0.0550
     30  CG       -21.8420   10.2460  132.0660 C.ar   32  TRP32       0.0003
     31  CD1      -22.0740   10.4320  133.4240 C.ar   32  TRP32       0.0946
     32  CD2      -22.6690   11.1870  131.3920 C.ar   32  TRP32       0.0152
     33  NE1      -22.9770   11.4550  133.6030 N.ar   32  TRP32      -0.2442
     34  CE2      -23.3440   11.9540  132.3880 C.ar   32  TRP32       0.0810
     35  CE3      -22.9250   11.4620  130.0440 C.ar   32  TRP32       0.0012
     36  CZ2      -24.2710   12.9850  132.0530 C.ar   32  TRP32       0.0191
     37  CZ3      -23.8110   12.5020  129.7280 C.ar   32  TRP32       0.0001
     38  CH2      -24.5090   13.2210  130.7450 C.ar   32  TRP32       0.0015
     39  N        -27.4480   19.4240  129.5700 N.3    38  LEU38      -0.1231
     40  CA       -26.2690   20.0820  130.2060 C.3    38  LEU38       0.1693
     41  C        -25.8150   21.3450  129.5100 C.2    38  LEU38       0.2592
     42  O        -24.9370   22.0280  130.0510 O.2    38  LEU38      -0.2718
     43  CB       -25.0840   19.0970  130.3710 C.3    38  LEU38       0.0284
     44  CG       -25.3340   17.8390  131.1470 C.3    38  LEU38       0.0019
     45  CD1      -24.1000   16.9680  131.0280 C.3    38  LEU38       0.0001
     46  CD2      -25.6400   18.1250  132.6110 C.3    38  LEU38       0.0001
     47  N        -26.4380   21.6810  128.3880 N.am   39  SER39      -0.1952
     48  CA       -26.1550   22.9350  127.6840 C.3    39  SER39       0.1924
     49  C        -26.9200   24.1390  128.1300 C.2    39  SER39       0.2314
     50  O        -26.6270   25.2350  127.6720 O.2    39  SER39      -0.2863
     51  CB       -26.3700   22.8120  126.2050 C.3    39  SER39       0.2116
     52  OG       -27.7220   22.6550  125.8700 O.3    39  SER39      -0.2180
     53  N        -22.3400   16.5660  137.2470 N.3    47  ALA47      -0.1245
     54  CA       -22.3320   15.2490  136.6670 C.3    47  ALA47       0.1562
     55  C        -21.3740   14.4150  137.4510 C.2    47  ALA47       0.2260
     56  O        -20.2740   14.8440  137.7770 O.2    47  ALA47      -0.2867
     57  CB       -21.8540   15.3020  135.2210 C.3    47  ALA47       0.0290
     58  N        -19.0900   11.0400  137.0760 N.3    49  VAL49      -0.1245
     59  CA       -18.4970   10.2730  136.0000 C.3    49  VAL49       0.1561
     60  C        -17.5680    9.3210  136.6160 C.2    49  VAL49       0.2260
     61  O        -17.0490    9.6020  137.6790 O.2    49  VAL49      -0.2867
     62  CB       -17.7490   11.1570  134.9290 C.3    49  VAL49       0.0252
     63  CG1      -18.6720   12.1620  134.3330 C.3    49  VAL49       0.0019
     64  CG2      -16.6320   11.9520  135.5510 C.3    49  VAL49       0.0019
     65  N        -12.4310    7.1820  133.5770 N.3    53  ILE53      -0.1245
     66  CA       -12.3480    8.0380  132.4420 C.3    53  ILE53       0.1561
     67  C        -11.0440    8.7730  132.4580 C.2    53  ILE53       0.2260
     68  O        -10.4940    9.0470  131.3880 O.2    53  ILE53      -0.2867
     69  CB       -13.4770    9.1000  132.3660 C.3    53  ILE53       0.0252
     70  CG1      -13.4790    9.7430  130.9970 C.3    53  ILE53       0.0019
     71  CG2      -13.3470   10.1990  133.4630 C.3    53  ILE53       0.0019
     72  CD1      -14.7220   10.5160  130.6620 C.3    53  ILE53       0.0001
     73  N        -11.8310    9.5850  124.5880 N.3    59  VAL59      -0.1245
     74  CA       -13.2250    9.2270  124.7420 C.3    59  VAL59       0.1561
     75  C        -14.0380    9.5640  123.4600 C.2    59  VAL59       0.2260
     76  O        -13.7370   10.5800  122.8090 O.2    59  VAL59      -0.2867
     77  CB       -13.7880    9.9860  125.9670 C.3    59  VAL59       0.0252
     78  CG1      -15.2990   10.0310  125.9880 C.3    59  VAL59       0.0019
     79  CG2      -13.2590    9.3140  127.2210 C.3    59  VAL59       0.0019
     80  N        -17.8070   10.6500  122.0060 N.3    61  ARG61      -0.1245
     81  CA       -19.0310   11.3100  122.5440 C.3    61  ARG61       0.1563
     82  C        -20.1140   11.1740  121.5110 C.2    61  ARG61       0.2260
     83  O        -19.8090   11.2270  120.3250 O.2    61  ARG61      -0.2867
     84  CB       -18.7290   12.7640  122.8010 C.3    61  ARG61       0.0307
     85  CG       -19.9680   13.5980  123.1540 C.3    61  ARG61       0.0489
     86  CD       -19.5550   15.0300  123.3710 C.3    61  ARG61       0.2205
     87  NE       -19.0800   15.6660  122.1380 N.pl3  61  ARG61      -0.0865
     88  CZ       -18.2450   16.7040  122.1210 C.cat  61  ARG61       0.5346
     89  NH1      -17.8360   17.2810  123.2740 N.pl3  61  ARG61       0.1354
     90  NH2      -17.7760   17.1820  120.9590 N.pl3  61  ARG61       0.1354
     91  N        -23.6990   13.0990  120.8920 N.3    63  LEU63      -0.1245
     92  CA       -24.4920   14.2050  121.3710 C.3    63  LEU63       0.1561
     93  C        -25.6970   14.3300  120.4160 C.2    63  LEU63       0.2260
     94  O        -25.4860   14.4860  119.1680 O.2    63  LEU63      -0.2867
     95  CB       -23.5480   15.3690  121.2710 C.3    63  LEU63       0.0270
     96  CG       -23.8950   16.6280  121.9500 C.3    63  LEU63       0.0019
     97  CD1      -22.6450   17.4720  122.1040 C.3    63  LEU63       0.0001
     98  CD2      -25.0010   17.2960  121.1460 C.3    63  LEU63       0.0001
     99  N        -18.3500   24.0140  118.8260 N.3    76  LEU76      -0.1245
    100  CA       -18.2320   24.1320  120.2660 C.3    76  LEU76       0.1561
    101  C        -16.8030   24.4570  120.6340 C.2    76  LEU76       0.2260
    102  O        -15.8910   23.9340  119.9650 O.2    76  LEU76      -0.2867
    103  CB       -18.4360   22.7820  120.9390 C.3    76  LEU76       0.0270
    104  CG       -19.7740   22.1210  120.7790 C.3    76  LEU76       0.0019
    105  CD1      -19.7840   20.7710  121.4570 C.3    76  LEU76       0.0001
    106  CD2      -20.9140   22.9640  121.2750 C.3    76  LEU76       0.0001
    107  N        -14.6760   23.9230  124.1950 N.3    78  GLN78      -0.1245
    108  CA       -14.7980   23.3560  125.4840 C.3    78  GLN78       0.1566
    109  C        -13.4500   23.4230  126.2660 C.2    78  GLN78       0.2260
    110  O        -12.3780   23.2940  125.6550 O.2    78  GLN78      -0.2867
    111  CB       -15.3680   21.9740  125.3810 C.3    78  GLN78       0.0367
    112  CG       -16.7530   21.9580  124.8710 C.3    78  GLN78       0.0905
    113  CD       -17.1890   20.5610  124.5710 C.2    78  GLN78       0.2608
    114  OE1      -16.5480   19.8540  123.7890 O.2    78  GLN78      -0.2717
    115  NE2      -18.3090   20.1530  125.1700 N.am   78  GLN78      -0.0878
    116  N        -10.6250   22.3010  123.8750 N.3    90  TRP90      -0.1241
    117  CA       -10.9450   21.5340  122.6430 C.3    90  TRP90       0.1605
    118  C        -11.8740   22.3450  121.7710 C.2    90  TRP90       0.2264
    119  O        -12.6580   23.1750  122.3080 O.2    90  TRP90      -0.2867
    120  CB       -11.6860   20.2480  122.9990 C.3    90  TRP90       0.0550
    121  CG       -10.9080   19.2760  123.7770 C.ar   90  TRP90       0.0003
    122  CD1      -10.0210   18.3560  123.3040 C.ar   90  TRP90       0.0946
    123  CD2      -10.9670   19.0910  125.1770 C.ar   90  TRP90       0.0152
    124  NE1       -9.5170   17.6040  124.3420 N.ar   90  TRP90      -0.2442
    125  CE2      -10.0880   18.0390  125.5070 C.ar   90  TRP90       0.0810
    126  CE3      -11.6320   19.7450  126.1930 C.ar   90  TRP90       0.0012
    127  CZ2       -9.8840   17.6120  126.8410 C.ar   90  TRP90       0.0191
    128  CZ3      -11.4460   19.3200  127.5020 C.ar   90  TRP90       0.0001
    129  CH2      -10.5610   18.2530  127.8210 C.ar   90  TRP90       0.0015
    130  N        -14.4830   21.7500  118.4060 N.3    92  PHE92      -0.1241
    131  CA       -15.1740   20.7180  117.6430 C.3    92  PHE92       0.1605
    132  C        -16.1630   21.4110  116.6930 C.2    92  PHE92       0.2264
    133  O        -16.8460   22.3620  117.1000 O.2    92  PHE92      -0.2867
    134  CB       -15.9590   19.7460  118.5090 C.3    92  PHE92       0.0534
    135  CG       -15.1070   18.9380  119.4780 C.ar   92  PHE92      -0.0203
    136  CD1      -14.2280   17.9540  119.0100 C.ar   92  PHE92      -0.0042
    137  CD2      -15.1570   19.2150  120.8270 C.ar   92  PHE92      -0.0042
    138  CE1      -13.3990   17.2500  119.8860 C.ar   92  PHE92      -0.0003
    139  CE2      -14.3470   18.5080  121.7110 C.ar   92  PHE92      -0.0003
    140  CZ       -13.4820   17.5380  121.2530 C.ar   92  PHE92      -0.0000
    141  N        -12.6340   12.6860  121.5220 N.3   109  ILE109     -0.1245
    142  CA       -11.9880   13.6310  122.4170 C.3   109  ILE109      0.1561
    143  C        -10.7270   13.0470  123.0540 C.2   109  ILE109      0.2260
    144  O        -10.8170   12.0640  123.7750 O.2   109  ILE109     -0.2867
    145  CB       -12.9380   14.0020  123.5090 C.3   109  ILE109      0.0252
    146  CG1      -14.3550   14.2270  122.9240 C.3   109  ILE109      0.0019
    147  CG2      -12.3770   15.2070  124.2430 C.3   109  ILE109      0.0019
    148  CD1      -15.4040   14.3350  124.0110 C.3   109  ILE109      0.0001
    149  N        -16.2990   21.8810  133.4630 N.3   128  ILE128     -0.1245
    150  CA       -16.2140   21.9400  132.0060 C.3   128  ILE128      0.1561
    151  C        -17.0810   23.0600  131.5100 C.2   128  ILE128      0.2260
    152  O        -18.3060   23.0470  131.7720 O.2   128  ILE128     -0.2867
    153  CB       -16.6670   20.6200  131.3580 C.3   128  ILE128      0.0252
    154  CG1      -15.9770   19.4410  132.0220 C.3   128  ILE128      0.0019
    155  CG2      -16.3590   20.6010  129.8670 C.3   128  ILE128      0.0019
    156  CD1      -14.4680   19.4580  131.8100 C.3   128  ILE128      0.0001
    157  N        -18.6050   24.9310  128.2940 N.3   130  THR130     -0.1218
    158  CA       -18.9510   24.6620  126.8960 C.3   130  THR130      0.1862
    159  C        -19.5270   25.9270  126.2760 C.2   130  THR130      0.2287
    160  O        -20.4960   26.5040  126.8130 O.2   130  THR130     -0.2866
    161  CB       -19.9380   23.4900  126.7600 C.3   130  THR130      0.1770
    162  OG1      -19.2760   22.2690  127.0770 O.3   130  THR130     -0.2211
    163  CG2      -20.4590   23.3240  125.3560 C.3   130  THR130      0.0375
    164  N        -22.3090   27.2970  128.9180 N.3   142  SER142     -0.1217
    165  CA       -22.7660   26.5500  130.0440 C.3   142  SER142      0.1889
    166  C        -21.6480   25.8550  130.7590 C.2   142  SER142      0.2288
    167  O        -20.5290   25.7280  130.2130 O.2   142  SER142     -0.2866
    168  CB       -23.7440   25.5320  129.5310 C.3   142  SER142      0.2089
    169  OG       -23.2140   24.7370  128.4830 O.3   142  SER142     -0.2183
    170  N        -20.5690   22.5200  133.6850 N.3   144  VAL144     -0.1245
    171  CA       -20.8500   21.2920  134.3760 C.3   144  VAL144      0.1561
    172  C        -19.7430   21.0880  135.3950 C.2   144  VAL144      0.2260
    173  O        -18.5840   21.1210  134.9980 O.2   144  VAL144     -0.2867
    174  CB       -20.8370   20.0860  133.4270 C.3   144  VAL144      0.0252
    175  CG1      -21.2490   18.8500  134.2010 C.3   144  VAL144      0.0019
    176  CG2      -21.8220   20.3770  132.2880 C.3   144  VAL144      0.0019
    177  N        -17.8500   18.5220  137.6830 N.3   146  LEU146     -0.1245
    178  CA       -17.5980   17.0500  137.7240 C.3   146  LEU146      0.1561
    179  C        -17.2430   16.4420  139.0340 C.2   146  LEU146      0.2260
    180  O        -16.3920   16.9420  139.7320 O.2   146  LEU146     -0.2867
    181  CB       -16.5340   16.6470  136.7150 C.3   146  LEU146      0.0270
    182  CG       -16.8540   17.0240  135.2680 C.3   146  LEU146      0.0019
    183  CD1      -15.7550   16.4870  134.3580 C.3   146  LEU146      0.0001
    184  CD2      -18.1470   16.3970  134.8160 C.3   146  LEU146      0.0001
@<TRIPOS>BOND
     1   132   133    2
     2   132   131    1
     3   131   130    1
     4   131   134    1
     5   134   135    1
     6    99   100    1
     7   136   135   ar
     8   136   138   ar
     9    94    93    2
    10   135   137   ar
    11   138   140   ar
    12   102   101    2
    13   100   101    1
    14   100   103    1
    15    83    82    2
    16    93    92    1
    17   104   103    1
    18   104   106    1
    19   104   105    1
    20   137   139   ar
    21    91    92    1
    22    90    88    1
    23    98    96    1
    24   140   139   ar
    25    95    92    1
    26    95    96    1
    27    82    81    1
    28   141   142    1
    29   118   119    2
    30   118   117    1
    31    96    97    1
    32    80    81    1
    33    88    87    2
    34    88    89    1
    35    87    86    1
    36   142   143    1
    37   142   145    1
    38    81    84    1
    39   117   120    1
    40   117   116    1
    41    84    85    1
    42    76    75    2
    43   146   145    1
    44   146   148    1
    45   120   121    1
    46   143   144    2
    47    85    86    1
    48   122   121   ar
    49   122   124   ar
    50    75    74    1
    51     7     6    1
    52   145   147    1
    53     1     2    1
    54     2     3    1
    55     2     5    1
    56   121   123   ar
    57   114   113    2
    58   107   108    1
    59     3     4    2
    60   124   125   ar
    61   113   112    1
    62   113   115   am
    63    73    74    1
    64     5     6    1
    65    74    77    1
    66     6     8    1
    67   112   111    1
    68   123   125   ar
    69   123   126   ar
    70    10     9    1
    71    10    13    1
    72    10    11    1
    73   163   161    1
    74   111   108    1
    75   108   109    1
    76   125   127   ar
    77   110   109    2
    78    14    13    1
    79    14    15    1
    80    15    16    1
    81    52    51    1
    82    77    78    1
    83    77    79    1
    84    11    12    2
    85   126   128   ar
    86    51    48    1
    87   159   160    2
    88   159   158    1
    89    18    19    1
    90    18    17    1
    91    18    21    1
    92    19    20    2
    93    24    22    1
    94   161   158    1
    95   161   162    1
    96   127   129   ar
    97   158   157    1
    98   128   129   ar
    99    50    49    2
   100    48    49    1
   101    48    47    1
   102    21    22    1
   103    22    23    1
   104    47    41   am
   105   169   168    1
   106    28    27    2
   107   164   165    1
   108    41    42    2
   109    41    40    1
   110   168   165    1
   111    39    40    1
   112    37    35   ar
   113    37    38   ar
   114   155   153    1
   115   165   166    1
   116    35    32   ar
   117    27    26    1
   118    40    43    1
   119   167   166    2
   120    43    44    1
   121    25    26    1
   122    72    70    1
   123    38    36   ar
   124    70    69    1
   125    45    44    1
   126    26    29    1
   127    44    46    1
   128   153   150    1
   129   153   154    1
   130    68    67    2
   131    32    30   ar
   132    32    34   ar
   133    29    30    1
   134   151   152    2
   135   151   150    1
   136   156   154    1
   137   150   149    1
   138    36    34   ar
   139    30    31   ar
   140   176   174    1
   141    69    66    1
   142    69    71    1
   143    34    33   ar
   144    66    67    1
   145    66    65    1
   146    31    33   ar
   147   174   175    1
   148   174   171    1
   149   170   171    1
   150    63    62    1
   151   183   182    1
   152   171   172    1
   153   184   182    1
   154    62    64    1
   155    62    59    1
   156   173   172    2
   157    57    54    1
   158   182   181    1
   159    59    60    1
   160    59    58    1
   161    60    61    2
   162    54    53    1
   163    54    55    1
   164   181   178    1
   165    55    56    2
   166   177   178    1
   167   178   179    1
   168   179   180    2
