@<TRIPOS>MOLECULE
tmp/5x72A01.pdb
 162 149 0 0 0
SMALL
GASTEIGER

@<TRIPOS>ATOM
      1  N        -20.9050    8.9990  126.6400 N.3    22  LEU22      -0.1245
      2  CA       -19.4660    9.0640  126.4970 C.3    22  LEU22       0.1561
      3  C        -19.0180    7.6380  126.5120 C.2    22  LEU22       0.2260
      4  O        -19.6320    6.8780  127.2880 O.2    22  LEU22      -0.2867
      5  CB       -18.8570    9.7630  127.7160 C.3    22  LEU22       0.0270
      6  CG       -19.0950   11.2610  127.8180 C.3    22  LEU22       0.0019
      7  CD1      -18.3150   11.8060  129.0410 C.3    22  LEU22       0.0001
      8  CD2      -18.6540   11.9820  126.5870 C.3    22  LEU22       0.0001
      9  N        -19.0900   11.0400  137.0760 N.3    49  VAL49      -0.1245
     10  CA       -18.4970   10.2730  136.0000 C.3    49  VAL49       0.1561
     11  C        -17.5680    9.3210  136.6160 C.2    49  VAL49       0.2260
     12  O        -17.0490    9.6020  137.6790 O.2    49  VAL49      -0.2867
     13  CB       -17.7490   11.1570  134.9290 C.3    49  VAL49       0.0252
     14  CG1      -18.6720   12.1620  134.3330 C.3    49  VAL49       0.0019
     15  CG2      -16.6320   11.9520  135.5510 C.3    49  VAL49       0.0019
     16  N        -12.4310    7.1820  133.5770 N.3    53  ILE53      -0.1231
     17  CA       -12.3480    8.0380  132.4420 C.3    53  ILE53       0.1692
     18  C        -11.0440    8.7730  132.4580 C.2    53  ILE53       0.2591
     19  O        -10.4940    9.0470  131.3880 O.2    53  ILE53      -0.2718
     20  CB       -13.4770    9.1000  132.3660 C.3    53  ILE53       0.0266
     21  CG1      -13.4790    9.7430  130.9970 C.3    53  ILE53       0.0019
     22  CG2      -13.3470   10.1990  133.4630 C.3    53  ILE53       0.0020
     23  CD1      -14.7220   10.5160  130.6620 C.3    53  ILE53       0.0001
     24  N        -10.5140    9.0710  133.6640 N.am   54  LEU54      -0.1980
     25  CA        -9.2660    9.7890  133.7370 C.3    54  LEU54       0.1596
     26  C         -8.1130    8.9270  133.2010 C.2    54  LEU54       0.2287
     27  O         -7.0390    9.4520  132.9560 O.2    54  LEU54      -0.2864
     28  CB        -8.9690   10.2700  135.1650 C.3    54  LEU54       0.0297
     29  CG        -9.9670   11.3350  135.7050 C.3    54  LEU54       0.0022
     30  CD1       -9.8120   11.4970  137.2250 C.3    54  LEU54       0.0001
     31  CD2       -9.8870   12.6650  134.9770 C.3    54  LEU54       0.0001
     32  N         -8.1990    7.1940  130.4000 N.3    56  CYS56      -0.1221
     33  CA        -8.4650    6.9050  128.9860 C.3    56  CYS56       0.1808
     34  C         -7.6660    7.8830  128.2150 C.2    56  CYS56       0.2601
     35  O         -7.8070    9.1130  128.4770 O.2    56  CYS56      -0.2717
     36  CB        -9.9330    7.2130  128.6400 C.3    56  CYS56       0.0970
     37  SG       -11.1100    5.9750  129.1850 S.3    56  CYS56      -0.0800
     38  N         -6.9720    7.4190  127.1720 N.am   57  LYS57      -0.1979
     39  CA        -6.3250    8.3510  126.2310 C.3    57  LYS57       0.1596
     40  C         -7.3380    9.2190  125.4840 C.2    57  LYS57       0.2287
     41  O         -7.1550   10.4460  125.4020 O.2    57  LYS57      -0.2864
     42  CB        -5.3870    7.6750  125.2460 C.3    57  LYS57       0.0298
     43  CG        -4.0220    7.3640  125.8840 C.3    57  LYS57       0.0038
     44  CD        -2.8590    7.2580  124.8670 C.3    57  LYS57       0.0206
     45  CE        -2.3940    5.8380  124.5260 C.3    57  LYS57       0.1093
     46  NZ        -1.4230    5.2570  125.5020 N.3    57  LYS57      -0.1314
     47  N        -11.8310    9.5850  124.5880 N.3    59  VAL59      -0.1245
     48  CA       -13.2250    9.2270  124.7420 C.3    59  VAL59       0.1561
     49  C        -14.0380    9.5640  123.4600 C.2    59  VAL59       0.2260
     50  O        -13.7370   10.5800  122.8090 O.2    59  VAL59      -0.2867
     51  CB       -13.7880    9.9860  125.9670 C.3    59  VAL59       0.0252
     52  CG1      -15.2990   10.0310  125.9880 C.3    59  VAL59       0.0019
     53  CG2      -13.2590    9.3140  127.2210 C.3    59  VAL59       0.0019
     54  N        -11.5060   22.6110  130.1970 N.3    80  VAL80      -0.1245
     55  CA       -11.4870   22.0740  131.5070 C.3    80  VAL80       0.1561
     56  C        -10.8760   23.1190  132.4260 C.2    80  VAL80       0.2260
     57  O         -9.7670   23.5740  132.1560 O.2    80  VAL80      -0.2867
     58  CB       -10.5790   20.8410  131.6080 C.3    80  VAL80       0.0252
     59  CG1      -10.5700   20.3430  133.0500 C.3    80  VAL80       0.0019
     60  CG2      -11.0720   19.7380  130.7500 C.3    80  VAL80       0.0019
     61  N         -6.9950   24.0210  132.2410 N.3    87  LEU87      -0.1231
     62  CA        -5.9700   22.9690  132.0160 C.3    87  LEU87       0.1693
     63  C         -5.9230   22.5030  130.5640 C.2    87  LEU87       0.2591
     64  O         -4.9040   21.9950  130.1480 O.2    87  LEU87      -0.2718
     65  CB        -6.2710   21.6830  132.7960 C.3    87  LEU87       0.0284
     66  CG        -6.4450   21.7590  134.3130 C.3    87  LEU87       0.0019
     67  CD1       -6.5350   20.3410  134.8740 C.3    87  LEU87       0.0001
     68  CD2       -5.2460   22.5070  134.8460 C.3    87  LEU87       0.0001
     69  N         -7.0370   22.5860  129.8300 N.am   88  GLU88      -0.1979
     70  CA        -7.0860   21.9960  128.5010 C.3    88  GLU88       0.1602
     71  C         -8.2760   22.6370  127.7560 C.2    88  GLU88       0.2287
     72  O         -9.3010   22.9350  128.4250 O.2    88  GLU88      -0.2864
     73  CB        -7.2990   20.4680  128.6170 C.3    88  GLU88       0.0415
     74  CG        -7.3900   19.8220  127.2510 C.3    88  GLU88       0.1163
     75  CD        -6.7110   18.4790  127.0810 C.2    88  GLU88       0.3649
     76  OE1       -5.9250   18.1020  127.9500 O.co2  88  GLU88      -0.2457
     77  OE2       -6.9400   17.8160  126.0330 O.co2  88  GLU88      -0.2457
     78  N        -10.6250   22.3010  123.8750 N.3    90  TRP90      -0.1241
     79  CA       -10.9450   21.5340  122.6430 C.3    90  TRP90       0.1605
     80  C        -11.8740   22.3450  121.7710 C.2    90  TRP90       0.2264
     81  O        -12.6580   23.1750  122.3080 O.2    90  TRP90      -0.2867
     82  CB       -11.6860   20.2480  122.9990 C.3    90  TRP90       0.0550
     83  CG       -10.9080   19.2760  123.7770 C.ar   90  TRP90       0.0003
     84  CD1      -10.0210   18.3560  123.3040 C.ar   90  TRP90       0.0946
     85  CD2      -10.9670   19.0910  125.1770 C.ar   90  TRP90       0.0152
     86  NE1       -9.5170   17.6040  124.3420 N.ar   90  TRP90      -0.2442
     87  CE2      -10.0880   18.0390  125.5070 C.ar   90  TRP90       0.0810
     88  CE3      -11.6320   19.7450  126.1930 C.ar   90  TRP90       0.0012
     89  CZ2       -9.8840   17.6120  126.8410 C.ar   90  TRP90       0.0191
     90  CZ3      -11.4460   19.3200  127.5020 C.ar   90  TRP90       0.0001
     91  CH2      -10.5610   18.2530  127.8210 C.ar   90  TRP90       0.0015
     92  N        -12.6340   12.6860  121.5220 N.3   109  ILE109     -0.1245
     93  CA       -11.9880   13.6310  122.4170 C.3   109  ILE109      0.1561
     94  C        -10.7270   13.0470  123.0540 C.2   109  ILE109      0.2260
     95  O        -10.8170   12.0640  123.7750 O.2   109  ILE109     -0.2867
     96  CB       -12.9380   14.0020  123.5090 C.3   109  ILE109      0.0252
     97  CG1      -14.3550   14.2270  122.9240 C.3   109  ILE109      0.0019
     98  CG2      -12.3770   15.2070  124.2430 C.3   109  ILE109      0.0019
     99  CD1      -15.4040   14.3350  124.0110 C.3   109  ILE109      0.0001
    100  N         -7.4110   13.4180  125.4280 N.3   111  ALA111     -0.1245
    101  CA        -6.8010   14.1560  126.5420 C.3   111  ALA111      0.1562
    102  C         -5.3080   14.2850  126.2700 C.2   111  ALA111      0.2260
    103  O         -4.7110   13.3520  125.7730 O.2   111  ALA111     -0.2867
    104  CB        -7.0480   13.4200  127.8450 C.3   111  ALA111      0.0290
    105  N         -2.4720   17.0680  131.5680 N.3   114  SER114     -0.1202
    106  CA        -3.7980   17.1470  132.2460 C.3   114  SER114      0.2020
    107  C         -4.2030   15.7230  132.7520 C.2   114  SER114      0.2618
    108  O         -3.4410   14.7930  132.5150 O.2   114  SER114     -0.2717
    109  CB        -4.8500   17.7810  131.2950 C.3   114  SER114      0.2103
    110  OG        -5.3100   16.8880  130.2710 O.3   114  SER114     -0.2182
    111  N         -5.3430   15.5640  133.4590 N.am  115  GLN115     -0.1979
    112  CA        -5.9020   14.2200  133.9300 C.3   115  GLN115      0.1601
    113  C         -4.7280   13.3140  134.2950 C.2   115  GLN115      0.2287
    114  O         -4.5320   12.2400  133.7680 O.2   115  GLN115     -0.2864
    115  CB        -6.8440   13.5120  132.9160 C.3   115  GLN115      0.0394
    116  CG        -6.2710   13.2120  131.5150 C.3   115  GLN115      0.0908
    117  CD        -6.7400   11.8810  130.8470 C.2   115  GLN115      0.2608
    118  OE1       -7.9420   11.6570  130.6300 O.2   115  GLN115     -0.2717
    119  NE2       -5.7730   11.0320  130.4600 N.am  115  GLN115     -0.0878
    120  N         -9.1720   16.0060  141.9870 N.3   122  LEU122     -0.1245
    121  CA       -10.0030   16.5990  141.0140 C.3   122  LEU122      0.1561
    122  C        -11.4530   16.7760  141.3850 C.2   122  LEU122      0.2260
    123  O        -12.1130   17.7290  140.9210 O.2   122  LEU122     -0.2867
    124  CB        -9.9070   15.7910  139.6450 C.3   122  LEU122      0.0270
    125  CG        -8.5310   15.7550  139.0100 C.3   122  LEU122      0.0019
    126  CD1       -8.5260   14.8830  137.7280 C.3   122  LEU122      0.0001
    127  CD2       -8.2240   17.1910  138.5790 C.3   122  LEU122      0.0001
    128  N        -13.4160   20.3770  139.3110 N.3   126  VAL126     -0.1245
    129  CA       -13.3280   20.5420  137.8390 C.3   126  VAL126      0.1561
    130  C        -14.6820   21.0730  137.2860 C.2   126  VAL126      0.2260
    131  O        -15.8000   20.5660  137.6480 O.2   126  VAL126     -0.2867
    132  CB       -12.9510   19.2240  137.1970 C.3   126  VAL126      0.0252
    133  CG1      -13.1040   19.3210  135.6810 C.3   126  VAL126      0.0019
    134  CG2      -11.5450   18.8200  137.5850 C.3   126  VAL126      0.0019
    135  N        -16.2990   21.8810  133.4630 N.3   128  ILE128     -0.1245
    136  CA       -16.2140   21.9400  132.0060 C.3   128  ILE128      0.1561
    137  C        -17.0810   23.0600  131.5100 C.2   128  ILE128      0.2260
    138  O        -18.3060   23.0470  131.7720 O.2   128  ILE128     -0.2867
    139  CB       -16.6670   20.6200  131.3580 C.3   128  ILE128      0.0252
    140  CG1      -15.9770   19.4410  132.0220 C.3   128  ILE128      0.0019
    141  CG2      -16.3590   20.6010  129.8670 C.3   128  ILE128      0.0019
    142  CD1      -14.4680   19.4580  131.8100 C.3   128  ILE128      0.0001
    143  N        -17.8500   18.5220  137.6830 N.3   146  LEU146     -0.1245
    144  CA       -17.5980   17.0500  137.7240 C.3   146  LEU146      0.1561
    145  C        -17.2430   16.4420  139.0340 C.2   146  LEU146      0.2260
    146  O        -16.3920   16.9420  139.7320 O.2   146  LEU146     -0.2867
    147  CB       -16.5340   16.6470  136.7150 C.3   146  LEU146      0.0270
    148  CG       -16.8540   17.0240  135.2680 C.3   146  LEU146      0.0019
    149  CD1      -15.7550   16.4870  134.3580 C.3   146  LEU146      0.0001
    150  CD2      -18.1470   16.3970  134.8160 C.3   146  LEU146      0.0001
    151  N        -15.9000   12.6720  140.3140 N.3   148  TYR148     -0.1241
    152  CA       -15.3850   11.3750  139.8740 C.3   148  TYR148      0.1605
    153  C        -15.7120   10.3550  140.8840 C.2   148  TYR148      0.2264
    154  O        -15.2830   10.4350  142.0330 O.2   148  TYR148     -0.2867
    155  CB       -13.8350   11.4290  139.6280 C.3   148  TYR148      0.0534
    156  CG       -13.4680   12.5270  138.6760 C.ar  148  TYR148     -0.0201
    157  CD1      -13.5600   12.3350  137.2540 C.ar  148  TYR148     -0.0009
    158  CD2      -13.2220   13.8210  139.1390 C.ar  148  TYR148     -0.0009
    159  CE1      -13.2830   13.3270  136.3840 C.ar  148  TYR148      0.0417
    160  CE2      -12.9810   14.8520  138.2610 C.ar  148  TYR148      0.0417
    161  CZ       -13.0180   14.5990  136.8960 C.ar  148  TYR148      0.1957
    162  OH       -12.7700   15.5890  136.0190 O.3   148  TYR148     -0.2866
@<TRIPOS>BOND
     1    92    93    1
     2    80    81    2
     3    80    79    1
     4    93    94    1
     5    93    96    1
     6    79    82    1
     7    79    78    1
     8    50    49    2
     9    97    96    1
    10    97    99    1
    11    82    83    1
    12    94    95    2
    13    84    83   ar
    14    84    86   ar
    15    49    48    1
    16    96    98    1
    17    83    85   ar
    18    86    87   ar
    19    45    44    1
    20    45    46    1
    21    47    48    1
    22    48    51    1
    23    44    43    1
    24    85    87   ar
    25    85    88   ar
    26    42    43    1
    27    42    39    1
    28    41    40    2
    29   100   101    1
    30    40    39    1
    31    87    89   ar
    32   103   102    2
    33    51    52    1
    34    51    53    1
    35    77    75   ar
    36    88    90   ar
    37    39    38    1
    38   102   101    1
    39     2     3    1
    40     2     1    1
    41     2     5    1
    42     3     4    2
    43   101   104    1
    44     8     6    1
    45    89    91   ar
    46    75    74    1
    47    75    76   ar
    48    38    34   am
    49    74    73    1
    50    90    91   ar
    51     5     6    1
    52    71    72    2
    53    71    70    1
    54     6     7    1
    55    34    35    2
    56    34    33    1
    57    70    73    1
    58    70    69    1
    59    36    33    1
    60    36    37    1
    61    33    32    1
    62    69    63   am
    63   141   139    1
    64    64    63    2
    65    54    55    1
    66   110   109    1
    67   119   117   am
    68    63    62    1
    69   118   117    2
    70    23    21    1
    71    60    58    1
    72   117   116    1
    73    21    20    1
    74   109   106    1
    75   139   136    1
    76   139   140    1
    77    19    18    2
    78    55    58    1
    79    55    56    1
    80   137   138    2
    81   137   136    1
    82   116   115    1
    83   105   106    1
    84    58    59    1
    85   142   140    1
    86   136   135    1
    87    62    61    1
    88    62    65    1
    89    57    56    2
    90   106   107    1
    91    20    17    1
    92    20    22    1
    93    17    18    1
    94    17    16    1
    95    18    24   am
    96   108   107    2
    97   107   111   am
    98    65    66    1
    99   115   112    1
   100    27    26    2
   101    26    25    1
   102   111   112    1
   103    24    25    1
   104    25    28    1
   105   114   113    2
   106   112   113    1
   107    66    68    1
   108    66    67    1
   109    14    13    1
   110   149   148    1
   111   150   148    1
   112    13    15    1
   113    13    10    1
   114    31    29    1
   115    28    29    1
   116   148   147    1
   117   133   132    1
   118    29    30    1
   119    10    11    1
   120    10     9    1
   121   162   161    1
   122   159   161   ar
   123   159   157   ar
   124    11    12    2
   125   147   144    1
   126   161   160   ar
   127   132   134    1
   128   132   129    1
   129   157   156   ar
   130   130   131    2
   131   130   129    1
   132   143   144    1
   133   144   145    1
   134   126   125    1
   135   129   128    1
   136   160   158   ar
   137   127   125    1
   138   156   158   ar
   139   156   155    1
   140   125   124    1
   141   145   146    2
   142   155   152    1
   143   124   121    1
   144   152   151    1
   145   152   153    1
   146   153   154    2
   147   123   122    2
   148   121   122    1
   149   121   120    1
