@<TRIPOS>MOLECULE
tmp/5x7dA02.pdb
 195 187 0 0 0
SMALL
GASTEIGER

@<TRIPOS>ATOM
      1  N          0.7300   17.9970   30.1760 N.3    24  VAL24      -0.1245
      2  CA         0.5640   16.7360   29.4610 C.3    24  VAL24       0.1561
      3  C         -0.9120   16.4500   29.2280 C.2    24  VAL24       0.2260
      4  O         -1.3100   15.9880   28.1520 O.2    24  VAL24      -0.2867
      5  CB         1.2460   15.5940   30.2370 C.3    24  VAL24       0.0252
      6  CG1        0.8730   14.2460   29.6480 C.3    24  VAL24       0.0019
      7  CG2        2.7540   15.7810   30.2400 C.3    24  VAL24       0.0019
      8  N         -2.3660   18.7000   26.4270 N.3    27  ALA27      -0.1231
      9  CA        -1.9000   18.3320   25.0940 C.3    27  ALA27       0.1694
     10  C         -2.7290   17.1920   24.5160 C.2    27  ALA27       0.2591
     11  O         -3.0460   17.1900   23.3210 O.2    27  ALA27      -0.2718
     12  CB        -0.4230   17.9480   25.1410 C.3    27  ALA27       0.0304
     13  N         -3.0910   16.2140   25.3490 N.am   28  ILE28      -0.1980
     14  CA        -3.9090   15.1010   24.8790 C.3    28  ILE28       0.1595
     15  C         -5.3570   15.5370   24.6900 C.2    28  ILE28       0.2287
     16  O         -6.0740   14.9900   23.8430 O.2    28  ILE28      -0.2864
     17  CB        -3.7860   13.9150   25.8530 C.3    28  ILE28       0.0276
     18  CG1       -2.3380   13.4330   25.9000 C.3    28  ILE28       0.0022
     19  CG2       -4.7070   12.7740   25.4530 C.3    28  ILE28       0.0022
     20  CD1       -2.0830   12.3550   26.9170 C.3    28  ILE28       0.0001
     21  N         -5.3010   18.3140   21.1860 N.3    31  PHE31      -0.1241
     22  CA        -4.8400   17.8540   19.8820 C.3    31  PHE31       0.1605
     23  C         -5.5140   16.5340   19.5250 C.2    31  PHE31       0.2264
     24  O         -5.4160   15.5520   20.2710 O.2    31  PHE31      -0.2867
     25  CB        -3.3190   17.7110   19.8730 C.3    31  PHE31       0.0534
     26  CG        -2.5890   19.0240   19.8680 C.ar   31  PHE31      -0.0203
     27  CD1       -2.5800   19.8180   18.7350 C.ar   31  PHE31      -0.0042
     28  CD2       -1.9050   19.4620   20.9910 C.ar   31  PHE31      -0.0042
     29  CE1       -1.9070   21.0260   18.7190 C.ar   31  PHE31      -0.0003
     30  CE2       -1.2280   20.6710   20.9820 C.ar   31  PHE31      -0.0003
     31  CZ        -1.2290   21.4520   19.8440 C.ar   31  PHE31      -0.0000
     32  N         -4.7450   14.4880   17.1610 N.3    33  ARG33      -0.1231
     33  CA        -3.8310   13.4230   16.7680 C.3    33  ARG33       0.1694
     34  C         -3.3320   12.6360   17.9730 C.2    33  ARG33       0.2592
     35  O         -2.9870   11.4560   17.8410 O.2    33  ARG33      -0.2718
     36  CB        -2.6550   14.0010   15.9880 C.3    33  ARG33       0.0321
     37  CG        -3.0430   14.8040   14.7620 C.3    33  ARG33       0.0489
     38  CD        -1.8050   15.2540   14.0000 C.3    33  ARG33       0.2205
     39  NE        -1.0630   14.1140   13.4690 N.pl3  33  ARG33      -0.0865
     40  CZ         0.1080   14.2020   12.8460 C.cat  33  ARG33       0.5346
     41  NH1        0.6850   15.3840   12.6730 N.pl3  33  ARG33       0.1354
     42  NH2        0.7040   13.1050   12.3970 N.pl3  33  ARG33       0.1354
     43  N         -3.2920   13.2630   19.1470 N.am   34  LEU34      -0.1966
     44  CA        -2.8020   12.6060   20.3510 C.3    34  LEU34       0.1728
     45  C         -3.8460   11.7210   21.0180 C.2    34  LEU34       0.2616
     46  O         -3.5150   11.0300   21.9860 O.2    34  LEU34      -0.2715
     47  CB        -2.2990   13.6500   21.3490 C.3    34  LEU34       0.0311
     48  CG        -1.0530   14.4280   20.9150 C.3    34  LEU34       0.0022
     49  CD1       -0.6320   15.4390   21.9710 C.3    34  LEU34       0.0001
     50  CD2        0.0880   13.4730   20.5960 C.3    34  LEU34       0.0001
     51  N         -5.0860   11.7150   20.5290 N.am   35  GLN35      -0.1963
     52  CA        -6.1150   10.8540   21.1020 C.3    35  GLN35       0.1733
     53  C         -5.8750    9.4070   20.6960 C.2    35  GLN35       0.2617
     54  O         -6.3810    8.9500   19.6670 O.2    35  GLN35      -0.2715
     55  CB        -7.5110   11.2920   20.6530 C.3    35  GLN35       0.0408
     56  CG        -7.6950   12.7950   20.5000 C.3    35  GLN35       0.0908
     57  CD        -8.0420   13.4890   21.7980 C.2    35  GLN35       0.2608
     58  OE1       -8.2380   12.8440   22.8290 O.2    35  GLN35      -0.2717
     59  NE2       -8.1270   14.8160   21.7520 N.am   35  GLN35      -0.0878
     60  N         -5.1020    8.6780   21.4940 N.am   36  THR36      -0.1951
     61  CA        -4.8060    7.2830   21.2120 C.3    36  THR36       0.1897
     62  C         -4.9120    6.4860   22.5040 C.2    36  THR36       0.2313
     63  O         -5.0330    7.0450   23.5980 O.2    36  THR36      -0.2863
     64  CB        -3.4200    7.1190   20.5740 C.3    36  THR36       0.1794
     65  OG1       -3.0630    5.7350   20.5450 O.3    36  THR36      -0.2208
     66  CG2       -2.3770    7.8720   21.3590 C.3    36  THR36       0.0378
     67  N         -2.7060    4.5980   24.0770 N.3    38  THR38      -0.1203
     68  CA        -1.5960    4.8120   24.9990 C.3    38  THR38       0.1994
     69  C         -1.7180    6.1540   25.7100 C.2    38  THR38       0.2617
     70  O         -1.5320    6.2340   26.9300 O.2    38  THR38      -0.2717
     71  CB        -0.2680    4.7100   24.2480 C.3    38  THR38       0.1784
     72  OG1       -0.1590    3.4150   23.6440 O.3    38  THR38      -0.2211
     73  CG2        0.8990    4.9100   25.1940 C.3    38  THR38       0.0376
     74  N         -2.0450    7.2190   24.9740 N.am   39  ASN39      -0.1974
     75  CA        -2.1500    8.5320   25.5990 C.3    39  ASN39       0.1688
     76  C         -3.3380    8.6290   26.5480 C.2    39  ASN39       0.2292
     77  O         -3.3210    9.4650   27.4570 O.2    39  ASN39      -0.2864
     78  CB        -2.2350    9.6260   24.5350 C.3    39  ASN39       0.1181
     79  CG        -0.9670    9.7360   23.7070 C.2    39  ASN39       0.2629
     80  OD1        0.0370    9.0880   24.0030 O.2    39  ASN39      -0.2716
     81  ND2       -1.0080   10.5550   22.6620 N.am   39  ASN39      -0.0877
     82  N         -1.7280    7.4420   29.4930 N.3    42  ILE42      -0.1245
     83  CA        -0.8350    8.5090   29.9380 C.3    42  ILE42       0.1561
     84  C         -1.6120    9.5480   30.7350 C.2    42  ILE42       0.2260
     85  O         -1.1250   10.0700   31.7460 O.2    42  ILE42      -0.2867
     86  CB        -0.1140    9.1470   28.7340 C.3    42  ILE42       0.0252
     87  CG1        0.7810    8.1240   28.0290 C.3    42  ILE42       0.0019
     88  CG2        0.7100   10.3470   29.1760 C.3    42  ILE42       0.0019
     89  CD1        1.9850    7.7030   28.8380 C.3    42  ILE42       0.0001
     90  N         11.0070    4.5890   14.6210 N.3   365  LYS365     -0.1245
     91  CA        10.2820    5.5480   15.4490 C.3   365  LYS365      0.1561
     92  C          9.4120    4.8450   16.4840 C.2   365  LYS365      0.2260
     93  O          9.3670    5.2560   17.6490 O.2   365  LYS365     -0.2867
     94  CB         9.4350    6.4750   14.5790 C.3   365  LYS365      0.0271
     95  CG         8.4820    7.3410   15.3910 C.3   365  LYS365      0.0035
     96  CD         8.2330    8.6920   14.7460 C.3   365  LYS365      0.0206
     97  CE         7.3720    9.5620   15.6520 C.3   365  LYS365      0.1093
     98  NZ         7.2940   10.9720   15.1830 N.3   365  LYS365     -0.1314
     99  N         11.5540    3.7540   19.1470 N.3   368  LYS368     -0.1231
    100  CA        11.8650    4.8890   20.0080 C.3   368  LYS368      0.1693
    101  C         10.7200    5.1630   20.9740 C.2   368  LYS368      0.2591
    102  O         10.9490    5.4490   22.1550 O.2   368  LYS368     -0.2718
    103  CB        12.1660    6.1270   19.1640 C.3   368  LYS368      0.0285
    104  CG        13.4220    6.0210   18.3140 C.3   368  LYS368      0.0035
    105  CD        13.6750    7.3100   17.5520 C.3   368  LYS368      0.0206
    106  CE        14.9920    7.2580   16.7980 C.3   368  LYS368      0.1093
    107  NZ        16.1430    7.0430   17.7190 N.3   368  LYS368     -0.1314
    108  N          9.4780    5.0670   20.4890 N.am  369  ALA369     -0.1980
    109  CA         8.3210    5.2800   21.3520 C.3   369  ALA369      0.1597
    110  C          8.2610    4.2420   22.4650 C.2   369  ALA369      0.2287
    111  O          7.8630    4.5550   23.5930 O.2   369  ALA369     -0.2864
    112  CB         7.0390    5.2520   20.5220 C.3   369  ALA369      0.0319
    113  N         10.8700    5.1300   25.3710 N.3   372  THR372     -0.1203
    114  CA        10.4390    6.1530   26.3190 C.3   372  THR372      0.1994
    115  C          9.4510    5.5810   27.3270 C.2   372  THR372      0.2617
    116  O          9.4990    5.9200   28.5160 O.2   372  THR372     -0.2717
    117  CB         9.8280    7.3400   25.5740 C.3   372  THR372      0.1784
    118  OG1       10.7470    7.8020   24.5760 O.3   372  THR372     -0.2211
    119  CG2        9.5360    8.4790   26.5360 C.3   372  THR372      0.0376
    120  N          8.5500    4.7050   26.8740 N.am  373  LEU373     -0.1979
    121  CA         7.6670    4.0150   27.8080 C.3   373  LEU373      0.1596
    122  C          8.4550    3.1360   28.7660 C.2   373  LEU373      0.2287
    123  O          8.0400    2.9420   29.9140 O.2   373  LEU373     -0.2864
    124  CB         6.6380    3.1800   27.0490 C.3   373  LEU373      0.0297
    125  CG         5.5240    3.9530   26.3440 C.3   373  LEU373      0.0022
    126  CD1        4.5900    2.9930   25.6240 C.3   373  LEU373      0.0001
    127  CD2        4.7610    4.8020   27.3460 C.3   373  LEU373      0.0001
    128  N          8.6540   12.7400   28.6150 N.3   424  TYR424     -0.1241
    129  CA         7.8550   12.8140   27.3970 C.3   424  TYR424      0.1605
    130  C          8.4490   13.7640   26.3660 C.2   424  TYR424      0.2264
    131  O          8.0680   13.6990   25.1930 O.2   424  TYR424     -0.2867
    132  CB         6.4230   13.2390   27.7260 C.3   424  TYR424      0.0534
    133  CG         5.6810   12.2530   28.5970 C.ar  424  TYR424     -0.0201
    134  CD1        5.9290   10.8890   28.5050 C.ar  424  TYR424     -0.0009
    135  CD2        4.7370   12.6880   29.5190 C.ar  424  TYR424     -0.0009
    136  CE1        5.2520    9.9850   29.3030 C.ar  424  TYR424      0.0417
    137  CE2        4.0570   11.7930   30.3230 C.ar  424  TYR424      0.0417
    138  CZ         4.3170   10.4440   30.2100 C.ar  424  TYR424      0.1957
    139  OH         3.6370    9.5550   31.0120 O.3   424  TYR424     -0.2866
    140  N         11.2080   13.4790   25.1100 N.3   426  ARG426     -0.1231
    141  CA        11.8960   12.6500   24.1290 C.3   426  ARG426      0.1694
    142  C         11.0610   12.4430   22.8730 C.2   426  ARG426      0.2593
    143  O         11.6070   12.0670   21.8300 O.2   426  ARG426     -0.2718
    144  CB        12.2490   11.2910   24.7370 C.3   426  ARG426      0.0321
    145  CG        13.2220   11.3470   25.8980 C.3   426  ARG426      0.0489
    146  CD        13.3680    9.9760   26.5310 C.3   426  ARG426      0.2205
    147  NE        13.6180    8.9460   25.5270 N.pl3 426  ARG426     -0.0865
    148  CZ        14.8260    8.5140   25.1830 C.cat 426  ARG426      0.5346
    149  NH1       15.9040    9.0190   25.7700 N.pl3 426  ARG426      0.1354
    150  NH2       14.9580    7.5740   24.2550 N.pl3 426  ARG426      0.1354
    151  N          9.7520   12.6720   22.9530 N.am  427  SER427     -0.1939
    152  CA         8.8670   12.4950   21.8120 C.3   427  SER427      0.2040
    153  C          8.8000   13.7850   21.0090 C.2   427  SER427      0.2485
    154  O          8.4740   14.8360   21.5780 O.2   427  SER427     -0.2729
    155  CB         7.4750   12.1020   22.2710 C.3   427  SER427      0.2129
    156  OG         6.5470   12.1820   21.2030 O.3   427  SER427     -0.2179
    157  N          9.1000   13.7630   19.7090 N.am  428  PRO428     -0.2715
    158  CA         8.8870   14.9680   18.8930 C.3   428  PRO428      0.1536
    159  C          7.4250   15.3560   18.7760 C.2   428  PRO428      0.2599
    160  O          7.1300   16.5050   18.4260 O.2   428  PRO428     -0.2715
    161  CB         9.4750   14.5800   17.5290 C.3   428  PRO428      0.0310
    162  CG        10.3880   13.4250   17.8140 C.3   428  PRO428      0.0237
    163  CD         9.7490   12.6860   18.9430 C.3   428  PRO428      0.0939
    164  N          6.5000   14.4390   19.0710 N.am  429  ASP429     -0.1958
    165  CA         5.0790   14.7350   18.9300 C.3   429  ASP429      0.1840
    166  C          4.5460   15.5280   20.1180 C.2   429  ASP429      0.2622
    167  O          3.7830   16.4830   19.9360 O.2   429  ASP429     -0.2715
    168  CB         4.2950   13.4360   18.7460 C.3   429  ASP429      0.1450
    169  CG         4.8450   12.5840   17.6170 C.2   429  ASP429      0.3671
    170  OD1        4.3130   11.4790   17.3830 O.co2 429  ASP429     -0.2456
    171  OD2        5.8190   13.0180   16.9670 O.co2 429  ASP429     -0.2456
    172  N          4.9250   15.1490   21.3400 N.am  430  PHE430     -0.1974
    173  CA         4.6070   15.9920   22.4880 C.3   430  PHE430      0.1639
    174  C          5.4250   17.2760   22.4690 C.2   430  PHE430      0.2290
    175  O          4.9420   18.3240   22.9100 O.2   430  PHE430     -0.2864
    176  CB         4.8370   15.2260   23.7930 C.3   430  PHE430      0.0560
    177  CG         4.9410   16.1070   25.0120 C.ar  430  PHE430     -0.0200
    178  CD1        6.1280   16.1880   25.7240 C.ar  430  PHE430     -0.0042
    179  CD2        3.8560   16.8570   25.4450 C.ar  430  PHE430     -0.0042
    180  CE1        6.2310   16.9940   26.8480 C.ar  430  PHE430     -0.0003
    181  CE2        3.9530   17.6660   26.5680 C.ar  430  PHE430     -0.0003
    182  CZ         5.1430   17.7340   27.2680 C.ar  430  PHE430     -0.0000
    183  N          6.3940   19.1330   19.8610 N.3   432  ILE432     -0.1231
    184  CA         5.6350   20.0780   19.0500 C.3   432  ILE432      0.1692
    185  C          4.3540   20.4820   19.7640 C.2   432  ILE432      0.2591
    186  O          3.9130   21.6350   19.6670 O.2   432  ILE432     -0.2718
    187  CB         5.3470   19.4680   17.6630 C.3   432  ILE432      0.0266
    188  CG1        6.6490   19.2690   16.8860 C.3   432  ILE432      0.0019
    189  CG2        4.3760   20.3300   16.8740 C.3   432  ILE432      0.0020
    190  CD1        6.4580   18.5870   15.5560 C.3   432  ILE432      0.0001
    191  N          3.7510   19.5570   20.5120 N.am  433  ALA433     -0.1980
    192  CA         2.4700   19.8350   21.1510 C.3   433  ALA433      0.1597
    193  C          2.6040   20.9000   22.2340 C.2   433  ALA433      0.2287
    194  O          1.7970   21.8350   22.2970 O.2   433  ALA433     -0.2864
    195  CB         1.8790   18.5500   21.7270 C.3   433  ALA433      0.0319
@<TRIPOS>BOND
     1    42    40    1
     2    41    40    1
     3    40    39    2
     4    39    38    1
     5    38    37    1
     6    94    95    1
     7    94    91    1
     8    90    91    1
     9    96    95    1
    10    96    97    1
    11    37    36    1
    12    98    97    1
    13    91    92    1
    14   190   188    1
    15    36    33    1
    16    92    93    2
    17    33    32    1
    18    33    34    1
    19   106   105    1
    20   106   107    1
    21   189   187    1
    22   188   187    1
    23   171   169   ar
    24   170   169   ar
    25   161   162    1
    26   161   158    1
    27   105   104    1
    28   169   168    1
    29   187   184    1
    30   162   163    1
    31    35    34    2
    32    34    43   am
    33   104   103    1
    34   160   159    2
    35    29    27   ar
    36    29    31   ar
    37    27    26   ar
    38   168   165    1
    39   159   158    1
    40   159   164   am
    41   158   157    1
    42   165   164    1
    43   165   166    1
    44   163   157    1
    45   184   185    1
    46   184   183    1
    47    43    44    1
    48    99   100    1
    49   103   100    1
    50    23    22    1
    51    23    24    2
    52   186   185    2
    53    54    53    2
    54   157   153   am
    55   185   191   am
    56    31    30   ar
    57    26    25    1
    58    26    28   ar
    59    25    22    1
    60    22    21    1
    61   167   166    2
    62   100   101    1
    63   166   172   am
    64    44    45    1
    65    44    47    1
    66   108   101   am
    67   108   109    1
    68    56    55    1
    69    56    57    1
    70   191   192    1
    71   112   109    1
    72    51    45   am
    73    51    52    1
    74    65    64    1
    75    64    61    1
    76    64    66    1
    77    50    48    1
    78    55    52    1
    79    53    52    1
    80    53    60   am
    81    48    47    1
    82    48    49    1
    83   101   102    2
    84    30    28   ar
    85   153   154    2
    86   153   152    1
    87    45    46    2
    88   192   195    1
    89   192   193    1
    90   156   155    1
    91    61    60    1
    92    61    62    1
    93   172   173    1
    94   109   110    1
    95    59    57   am
    96    57    58    2
    97   152   155    1
    98   152   151    1
    99   143   142    2
   100   193   194    2
   101   110   111    2
   102   174   173    1
   103   174   175    2
   104   173   176    1
   105    62    63    2
   106    81    79   am
   107   142   151   am
   108   142   141    1
   109    11    10    2
   110    72    71    1
   111    79    80    2
   112    79    78    1
   113   176   177    1
   114    16    15    2
   115    67    68    1
   116   141   144    1
   117   141   140    1
   118    71    68    1
   119    71    73    1
   120   150   148    1
   121    10     9    1
   122    10    13   am
   123    78    75    1
   124   118   117    1
   125    15    14    1
   126   144   145    1
   127    14    13    1
   128    14    17    1
   129    74    75    1
   130    74    69   am
   131    68    69    1
   132   177   179   ar
   133   177   178   ar
   134     9    12    1
   135     9     8    1
   136   148   147    2
   137   148   149    1
   138   131   130    2
   139   113   114    1
   140   179   181   ar
   141    19    17    1
   142   147   146    1
   143   117   114    1
   144   117   119    1
   145    75    76    1
   146   126   125    1
   147    69    70    2
   148   178   180   ar
   149    17    18    1
   150   145   146    1
   151    18    20    1
   152   114   115    1
   153   125   124    1
   154   125   127    1
   155   130   129    1
   156    76    77    2
   157   181   182   ar
   158   180   182   ar
   159   120   115   am
   160   120   121    1
   161   124   121    1
   162   115   116    2
   163   129   132    1
   164   129   128    1
   165   132   133    1
   166   121   122    1
   167    87    86    1
   168    87    89    1
   169     4     3    2
   170   134   133   ar
   171   134   136   ar
   172   133   135   ar
   173    86    88    1
   174    86    83    1
   175   122   123    2
   176     3     2    1
   177   136   138   ar
   178     2     1    1
   179     2     5    1
   180    82    83    1
   181   135   137   ar
   182     6     5    1
   183    83    84    1
   184   138   137   ar
   185   138   139    1
   186     5     7    1
   187    84    85    2
