@<TRIPOS>MOLECULE
tmp/5x7fA00.pdb
 210 204 0 0 0
SMALL
GASTEIGER

@<TRIPOS>ATOM
      1  N         -3.5370   26.6780   57.3270 N.3    29  ALA29      -0.1231
      2  CA        -3.0600   25.8160   56.2560 C.3    29  ALA29       0.1694
      3  C         -4.2380   25.1010   55.6080 C.2    29  ALA29       0.2593
      4  O         -5.1620   24.6590   56.2970 O.2    29  ALA29      -0.2718
      5  CB        -2.0650   24.7880   56.8010 C.3    29  ALA29       0.0304
      6  N         -4.2020   24.9800   54.2910 N.am   30  GLY30      -0.1942
      7  CA        -5.2060   24.2000   53.5930 C.3    30  GLY30       0.2014
      8  C         -5.1610   22.7370   53.9980 C.2    30  GLY30       0.2639
      9  O         -4.3030   22.2740   54.7560 O.2    30  GLY30      -0.2714
     10  N         -6.1460   21.9990   53.5030 N.am   31  ALA31      -0.1963
     11  CA        -6.2170   20.5620   53.7070 C.3    31  ALA31       0.1728
     12  C         -7.0980   20.0060   52.6040 C.2    31  ALA31       0.2616
     13  O         -8.1170   20.6100   52.2640 O.2    31  ALA31      -0.2715
     14  CB        -6.7930   20.1910   55.0730 C.3    31  ALA31       0.0334
     15  N         -6.6810   18.8900   52.0130 N.am   32  VAL32      -0.1977
     16  CA        -7.4830   18.3290   50.9350 C.3    32  VAL32       0.1596
     17  C         -8.7990   17.8300   51.5200 C.2    32  VAL32       0.2287
     18  O         -8.8880   17.4790   52.7080 O.2    32  VAL32      -0.2864
     19  CB        -6.7290   17.2010   50.2130 C.3    32  VAL32       0.0276
     20  CG1       -5.4100   17.7240   49.6540 C.3    32  VAL32       0.0022
     21  CG2       -6.5060   16.0200   51.1570 C.3    32  VAL32       0.0022
     22  N          4.9640   17.3610   48.6390 N.3    55  VAL55      -0.1231
     23  CA         5.3850   18.7560   48.6700 C.3    55  VAL55       0.1692
     24  C          4.2570   19.5560   49.3100 C.2    55  VAL55       0.2593
     25  O          3.2050   19.7710   48.6900 O.2    55  VAL55      -0.2718
     26  CB         5.7230   19.2860   47.2720 C.3    55  VAL55       0.0266
     27  CG1        5.9680   20.7690   47.3230 C.3    55  VAL55       0.0020
     28  CG2        6.9480   18.5710   46.7420 C.3    55  VAL55       0.0020
     29  N          4.4630   19.9710   50.5670 N.am   56  GLY56      -0.1942
     30  CA         3.4520   20.7030   51.3150 C.3    56  GLY56       0.2014
     31  C          2.7110   19.8500   52.3270 C.2    56  GLY56       0.2640
     32  O          1.5680   19.4450   52.1050 O.2    56  GLY56      -0.2714
     33  N          3.3630   19.5790   53.4590 N.am   57  THR57      -0.1936
     34  CA         2.8200   18.6600   54.4500 C.3    57  THR57       0.2028
     35  C          1.5400   19.1990   55.0730 C.2    57  THR57       0.2643
     36  O          0.6260   18.4280   55.3940 O.2    57  THR57      -0.2714
     37  CB         3.8800   18.4250   55.5290 C.3    57  THR57       0.1808
     38  OG1        5.1440   18.2060   54.8850 O.3    57  THR57      -0.2208
     39  CG2        3.5290   17.2370   56.4160 C.3    57  THR57       0.0379
     40  N          1.4610   20.5140   55.2550 N.am   58  GLY58      -0.1939
     41  CA         0.3920   21.0850   56.0550 C.3    58  GLY58       0.2014
     42  C          0.3950   20.5150   57.4560 C.2    58  GLY58       0.2639
     43  O          1.4550   20.2630   58.0510 O.2    58  GLY58      -0.2714
     44  N         -0.8130   20.2880   57.9910 N.am   59  ALA59      -0.1963
     45  CA        -1.0190   19.5910   59.2550 C.3    59  ALA59       0.1728
     46  C         -1.1770   18.0800   59.1010 C.2    59  ALA59       0.2617
     47  O         -1.6090   17.4170   60.0520 O.2    59  ALA59      -0.2715
     48  CB        -2.2430   20.1640   59.9830 C.3    59  ALA59       0.0334
     49  N         -0.8500   17.5150   57.9320 N.am   60  GLY60      -0.1940
     50  CA        -0.7840   16.0740   57.7910 C.3    60  GLY60       0.2014
     51  C         -2.0430   15.3890   57.2960 C.2    60  GLY60       0.2639
     52  O         -2.1150   14.1560   57.3420 O.2    60  GLY60      -0.2714
     53  N         -3.0450   16.1400   56.8480 N.am   61  VAL61      -0.1963
     54  CA        -4.2790   15.5060   56.3900 C.3    61  VAL61       0.1727
     55  C         -4.0060   14.6520   55.1480 C.2    61  VAL61       0.2616
     56  O         -4.2730   13.4430   55.1370 O.2    61  VAL61      -0.2715
     57  CB        -5.3630   16.5740   56.1430 C.3    61  VAL61       0.0290
     58  CG1       -6.5980   15.9660   55.4530 C.3    61  VAL61       0.0023
     59  CG2       -5.7730   17.2270   57.4630 C.3    61  VAL61       0.0023
     60  N         -3.4110   15.2540   54.1110 N.am   62  SER62      -0.1950
     61  CA        -3.0650   14.4820   52.9130 C.3    62  SER62       0.1924
     62  C         -2.0940   13.3500   53.2350 C.2    62  SER62       0.2314
     63  O         -2.2230   12.2480   52.6950 O.2    62  SER62      -0.2863
     64  CB        -2.5000   15.3920   51.8150 C.3    62  SER62       0.2116
     65  OG        -1.4010   16.2010   52.2260 O.3    62  SER62      -0.2180
     66  N          7.5450   17.2890   52.7890 N.3    79  ILE79      -0.1231
     67  CA         8.4060   18.4590   52.8050 C.3    79  ILE79       0.1692
     68  C          7.5550   19.6750   53.1220 C.2    79  ILE79       0.2592
     69  O          6.5260   19.8970   52.4790 O.2    79  ILE79      -0.2718
     70  CB         9.1170   18.6380   51.4490 C.3    79  ILE79       0.0266
     71  CG1        9.8630   17.3640   51.0490 C.3    79  ILE79       0.0019
     72  CG2       10.0370   19.8480   51.4510 C.3    79  ILE79       0.0020
     73  CD1       10.0940   17.2660   49.5100 C.3    79  ILE79       0.0001
     74  N          7.9790   20.4720   54.0970 N.am   80  ASP80      -0.1960
     75  CA         7.2980   21.7330   54.3380 C.3    80  ASP80       0.1840
     76  C          8.3130   22.7910   54.7190 C.2    80  ASP80       0.2622
     77  O          9.3130   22.5120   55.3830 O.2    80  ASP80      -0.2715
     78  CB         6.2220   21.6260   55.4370 C.3    80  ASP80       0.1450
     79  CG         5.0950   22.6500   55.2450 C.2    80  ASP80       0.3671
     80  OD1        5.3460   23.8770   55.3430 O.co2  80  ASP80      -0.2456
     81  OD2        3.9530   22.2330   54.9660 O.co2  80  ASP80      -0.2456
     82  N          8.0270   24.0190   54.3010 N.am   81  ILE81      -0.1963
     83  CA         8.8670   25.1470   54.6680 C.3    81  ILE81       0.1727
     84  C          8.6410   25.5730   56.1180 C.2    81  ILE81       0.2616
     85  O          9.4810   26.2900   56.6790 O.2    81  ILE81      -0.2715
     86  CB         8.5970   26.2930   53.6760 C.3    81  ILE81       0.0290
     87  CG1        9.7520   27.2990   53.6540 C.3    81  ILE81       0.0022
     88  CG2        7.2890   26.9770   54.0040 C.3    81  ILE81       0.0023
     89  CD1        9.6540   28.3230   52.5450 C.3    81  ILE81       0.0001
     90  N          7.5470   25.1360   56.7510 N.am   82  GLU82      -0.1977
     91  CA         7.1940   25.6000   58.0960 C.3    82  GLU82       0.1602
     92  C          7.4370   24.5080   59.1180 C.2    82  GLU82       0.2287
     93  O          6.6770   23.5270   59.1630 O.2    82  GLU82      -0.2864
     94  CB         5.7340   26.0460   58.1580 C.3    82  GLU82       0.0415
     95  CG         5.4450   27.2860   57.3400 C.3    82  GLU82       0.1163
     96  CD         6.0500   28.5440   57.9500 C.2    82  GLU82       0.3649
     97  OE1        6.3760   28.5250   59.1660 O.co2  82  GLU82      -0.2457
     98  OE2        6.1860   29.5500   57.2080 O.co2  82  GLU82      -0.2457
     99  N          4.2590   23.5000   60.9810 N.3    85  HIS85      -0.1241
    100  CA         3.3350   22.5820   60.3220 C.3    85  HIS85       0.1621
    101  C          3.8420   21.1520   60.4230 C.2    85  HIS85       0.2264
    102  O          3.0700   20.2310   60.7230 O.2    85  HIS85      -0.2867
    103  CB         3.1450   22.9800   58.8690 C.3    85  HIS85       0.0745
    104  CG         2.5800   24.3520   58.6810 C.ar   85  HIS85       0.0817
    105  ND1        2.2380   24.8530   57.4420 N.ar   85  HIS85      -0.2268
    106  CD2        2.3020   25.3310   59.5720 C.ar   85  HIS85       0.1154
    107  CE1        1.7740   26.0820   57.5780 C.ar   85  HIS85       0.1986
    108  NE2        1.8030   26.3960   58.8620 N.ar   85  HIS85      -0.2212
    109  N         12.2340   22.6400   54.8940 N.3   108  GLY108     -0.1210
    110  CA        12.9300   23.4580   53.9200 C.3   108  GLY108      0.1956
    111  C         12.0500   23.7950   52.7350 C.2   108  GLY108      0.2612
    112  O         10.9130   23.3310   52.6190 O.2   108  GLY108     -0.2717
    113  N         12.6070   24.6400   51.8610 N.am  109  ARG109     -0.1965
    114  CA        11.9810   24.9670   50.5860 C.3   109  ARG109      0.1729
    115  C         12.0230   23.7570   49.6700 C.2   109  ARG109      0.2616
    116  O         13.0970   23.2170   49.3900 O.2   109  ARG109     -0.2715
    117  CB        12.7000   26.1360   49.9110 C.3   109  ARG109      0.0348
    118  CG        12.3510   27.4900   50.4790 C.3   109  ARG109      0.0492
    119  CD        13.1410   28.5990   49.8160 C.3   109  ARG109      0.2205
    120  NE        13.2470   28.3850   48.3790 N.pl3 109  ARG109     -0.0865
    121  CZ        12.3420   28.7980   47.5020 C.cat 109  ARG109      0.5346
    122  NH1       11.2620   29.4480   47.9290 N.pl3 109  ARG109      0.1354
    123  NH2       12.5180   28.5610   46.2040 N.pl3 109  ARG109      0.1354
    124  N         10.8560   23.3420   49.1790 N.am  110  ALA110     -0.1963
    125  CA        10.8090   22.1300   48.3770 C.3   110  ALA110      0.1728
    126  C         11.5220   22.2820   47.0340 C.2   110  ALA110      0.2616
    127  O         11.9740   21.2780   46.4810 O.2   110  ALA110     -0.2715
    128  CB         9.3640   21.6980   48.1570 C.3   110  ALA110      0.0334
    129  N         11.6470   23.4990   46.5030 N.am  111  GLN111     -0.1977
    130  CA        12.4070   23.6600   45.2610 C.3   111  GLN111      0.1601
    131  C         13.8350   23.1590   45.4260 C.2   111  GLN111      0.2287
    132  O         14.4190   22.6280   44.4780 O.2   111  GLN111     -0.2864
    133  CB        12.4140   25.1220   44.8040 C.3   111  GLN111      0.0394
    134  CG        11.0500   25.7010   44.4530 C.3   111  GLN111      0.0908
    135  CD        10.3420   26.2950   45.6560 C.2   111  GLN111      0.2608
    136  OE1       10.5830   25.8940   46.7930 O.2   111  GLN111     -0.2717
    137  NE2        9.4680   27.2580   45.4110 N.am  111  GLN111     -0.0878
    138  N          3.2240   13.8250   45.2510 N.3   126  PHE126     -0.1241
    139  CA         2.0310   14.6380   45.4630 C.3   126  PHE126      0.1605
    140  C          2.4340   16.0890   45.6880 C.2   126  PHE126      0.2264
    141  O          3.2400   16.3780   46.5790 O.2   126  PHE126     -0.2867
    142  CB         1.2260   14.1180   46.6640 C.3   126  PHE126      0.0534
    143  CG         0.0090   14.9450   46.9810 C.ar  126  PHE126     -0.0203
    144  CD1       -0.9280   15.2310   45.9950 C.ar  126  PHE126     -0.0042
    145  CD2       -0.2130   15.4100   48.2670 C.ar  126  PHE126     -0.0042
    146  CE1       -2.0490   15.9790   46.2860 C.ar  126  PHE126     -0.0003
    147  CE2       -1.3270   16.1640   48.5700 C.ar  126  PHE126     -0.0003
    148  CZ        -2.2470   16.4520   47.5760 C.ar  126  PHE126     -0.0000
    149  N          1.2890   19.8540   46.5530 N.3   128  ASP128     -0.1225
    150  CA         0.2170   20.6170   47.1780 C.3   128  ASP128      0.1805
    151  C          0.7750   21.7440   48.0530 C.2   128  ASP128      0.2598
    152  O          0.4360   21.8610   49.2330 O.2   128  ASP128     -0.2718
    153  CB        -0.6810   19.6830   47.9950 C.3   128  ASP128      0.1424
    154  CG        -1.9520   20.3710   48.5030 C.2   128  ASP128      0.3668
    155  OD1       -2.3940   21.3640   47.8770 O.co2 128  ASP128     -0.2456
    156  OD2       -2.4970   19.9110   49.5390 O.co2 128  ASP128     -0.2456
    157  N          1.6310   22.5910   47.4900 N.am  129  ALA129     -0.1966
    158  CA         2.1550   23.7720   48.1780 C.3   129  ALA129      0.1728
    159  C          1.5960   25.0260   47.4840 C.2   129  ALA129      0.2616
    160  O          0.3880   25.0630   47.2400 O.2   129  ALA129     -0.2715
    161  CB         3.6760   23.7000   48.2470 C.3   129  ALA129      0.0334
    162  N          2.4050   26.0450   47.1680 N.am  130  ASP130     -0.1971
    163  CA         1.8430   27.2160   46.4830 C.3   130  ASP130      0.1709
    164  C          1.6700   26.9190   44.9950 C.2   130  ASP130      0.2293
    165  O          2.5990   26.4090   44.3630 O.2   130  ASP130     -0.2864
    166  CB         2.7370   28.4440   46.6300 C.3   130  ASP130      0.1436
    167  CG         2.7460   29.0120   48.0450 C.2   130  ASP130      0.3671
    168  OD1        1.8530   28.6610   48.8560 O.co2 130  ASP130     -0.2456
    169  OD2        3.6680   29.8040   48.3460 O.co2 130  ASP130     -0.2456
    170  N          4.2900   27.8500   42.2080 N.3   133  ASP133     -0.1239
    171  CA         5.5040   27.0550   42.0970 C.3   133  ASP133      0.1674
    172  C          5.2720   25.7150   41.4210 C.2   133  ASP133      0.2266
    173  O          6.2280   24.9540   41.2420 O.2   133  ASP133     -0.2867
    174  CB         6.1150   26.8380   43.4830 C.3   133  ASP133      0.1410
    175  CG         6.4390   28.1480   44.1920 C.2   133  ASP133      0.3668
    176  OD1        6.9080   29.0910   43.5220 O.co2 133  ASP133     -0.2456
    177  OD2        6.2290   28.2300   45.4180 O.co2 133  ASP133     -0.2456
    178  N          7.8810   22.3270   40.5970 N.3   137  TYR137     -0.1241
    179  CA         7.6380   21.0590   41.2710 C.3   137  TYR137      0.1605
    180  C          7.4010   19.9340   40.2730 C.2   137  TYR137      0.2264
    181  O          7.8280   18.7980   40.5060 O.2   137  TYR137     -0.2867
    182  CB         6.4490   21.1950   42.2090 C.3   137  TYR137      0.0534
    183  CG         6.6660   22.1410   43.3570 C.ar  137  TYR137     -0.0201
    184  CD1        7.9110   22.2560   43.9560 C.ar  137  TYR137     -0.0009
    185  CD2        5.6220   22.9020   43.8690 C.ar  137  TYR137     -0.0009
    186  CE1        8.1230   23.1030   45.0380 C.ar  137  TYR137      0.0417
    187  CE2        5.8220   23.7570   44.9610 C.ar  137  TYR137      0.0417
    188  CZ         7.0740   23.8580   45.5320 C.ar  137  TYR137      0.1957
    189  OH         7.2850   24.7090   46.6050 O.3   137  TYR137     -0.2866
    190  N         -2.3680   18.8620   43.1830 N.3   154  HIS154     -0.1226
    191  CA        -3.5780   19.4660   43.7250 C.3   154  HIS154      0.1752
    192  C         -3.6440   20.9560   43.3660 C.2   154  HIS154      0.2595
    193  O         -2.6300   21.5880   43.0730 O.2   154  HIS154     -0.2718
    194  CB        -3.6360   19.2740   45.2420 C.3   154  HIS154      0.0759
    195  CG        -4.9430   19.6730   45.8460 C.ar  154  HIS154      0.0818
    196  ND1       -5.0370   20.5650   46.8900 N.ar  154  HIS154     -0.2268
    197  CD2       -6.2120   19.3130   45.5390 C.ar  154  HIS154      0.1154
    198  CE1       -6.3070   20.7280   47.2120 C.ar  154  HIS154      0.1986
    199  NE2       -7.0420   19.9850   46.4030 N.ar  154  HIS154     -0.2212
    200  N         -4.8660   21.5100   43.3940 N.am  155  ARG155     -0.1980
    201  CA        -5.1540   22.8760   42.9210 C.3   155  ARG155      0.1597
    202  C         -4.8400   23.0190   41.4340 C.2   155  ARG155      0.2287
    203  O         -4.2780   24.0190   40.9810 O.2   155  ARG155     -0.2864
    204  CB        -4.4140   23.9360   43.7450 C.3   155  ARG155      0.0334
    205  CG        -4.6880   23.8270   45.2460 C.3   155  ARG155      0.0492
    206  CD        -5.3330   25.0930   45.8160 C.3   155  ARG155      0.2205
    207  NE        -4.3780   26.1530   46.1610 N.pl3 155  ARG155     -0.0865
    208  CZ        -4.6210   27.4580   46.0290 C.cat 155  ARG155      0.5346
    209  NH1       -5.7880   27.8740   45.5390 N.pl3 155  ARG155      0.1354
    210  NH2       -3.6940   28.3470   46.3820 N.pl3 155  ARG155      0.1354
@<TRIPOS>BOND
     1   180   181    2
     2   180   179    1
     3   178   179    1
     4   203   202    2
     5   173   172    2
     6   179   182    1
     7   172   171    1
     8   202   201    1
     9   171   170    1
    10   171   174    1
    11   182   183    1
    12   201   200    1
    13   201   204    1
    14   193   192    2
    15   190   191    1
    16   183   185   ar
    17   183   184   ar
    18   192   200   am
    19   192   191    1
    20   174   175    1
    21   176   175   ar
    22   191   194    1
    23   204   205    1
    24   185   187   ar
    25   184   186   ar
    26   175   177   ar
    27   165   164    2
    28   134   133    1
    29   134   135    1
    30   132   131    2
    31   133   130    1
    32   187   188   ar
    33   164   163    1
    34   186   188   ar
    35   194   195    1
    36   205   206    1
    37   138   139    1
    38   130   131    1
    39   130   129    1
    40   137   135   am
    41   139   140    1
    42   139   142    1
    43   188   189    1
    44   197   195   ar
    45   197   199   ar
    46   209   208    1
    47   135   136    2
    48   140   141    2
    49   206   207    1
    50   195   196   ar
    51   144   146   ar
    52   144   143   ar
    53   208   207    2
    54   208   210    1
    55   123   121    1
    56   146   148   ar
    57   199   198   ar
    58   127   126    2
    59   163   166    1
    60   163   162    1
    61   129   126   am
    62   149   150    1
    63   166   167    1
    64   142   143    1
    65    28    26    1
    66   196   198   ar
    67   143   145   ar
    68   126   125    1
    69   162   159   am
    70   150   153    1
    71   150   151    1
    72   160   159    2
    73    26    27    1
    74    26    23    1
    75   159   158    1
    76   157   151   am
    77   157   158    1
    78   121   122    1
    79   121   120    2
    80   148   147   ar
    81   155   154   ar
    82   153   154    1
    83   167   169   ar
    84   167   168   ar
    85   151   152    2
    86   128   125    1
    87   158   161    1
    88   145   147   ar
    89   125   124    1
    90   120   119    1
    91   154   156   ar
    92    22    23    1
    93    23    24    1
    94    25    24    2
    95   124   115   am
    96    24    29   am
    97   116   115    2
    98    73    71    1
    99    20    19    1
   100   115   114    1
   101   119   118    1
   102   117   118    1
   103   117   114    1
   104    19    16    1
   105    19    21    1
   106    29    30    1
   107   114   113    1
   108    16    17    1
   109    16    15    1
   110    71    70    1
   111    30    31    1
   112    70    72    1
   113    70    67    1
   114    17    18    2
   115    64    65    1
   116    64    61    1
   117   113   111   am
   118    15    12   am
   119    32    31    2
   120    13    12    2
   121    31    33   am
   122    69    68    2
   123    89    87    1
   124    12    11    1
   125   112   111    2
   126    63    62    2
   127   111   110    1
   128    66    67    1
   129    67    68    1
   130    61    62    1
   131    61    60    1
   132    68    74   am
   133    33    34    1
   134    10    11    1
   135    10     8   am
   136     7     8    1
   137     7     6    1
   138    87    86    1
   139    86    88    1
   140    86    83    1
   141    11    14    1
   142   110   109    1
   143     8     9    2
   144    74    75    1
   145    60    55   am
   146     6     3   am
   147    82    83    1
   148    82    76   am
   149    75    76    1
   150    75    78    1
   151    34    35    1
   152    34    37    1
   153    83    84    1
   154    76    77    2
   155    38    37    1
   156    81    79   ar
   157    35    40   am
   158    35    36    2
   159    56    55    2
   160    55    54    1
   161    79    80   ar
   162    79    78    1
   163    40    41    1
   164    58    57    1
   165    37    39    1
   166     3     2    1
   167     3     4    2
   168    41    42    1
   169    84    85    2
   170    84    90   am
   171    57    54    1
   172    57    59    1
   173     2     5    1
   174     2     1    1
   175    54    53    1
   176    90    91    1
   177    53    51   am
   178    98    96   ar
   179    51    52    2
   180    51    50    1
   181    95    96    1
   182    95    94    1
   183   105   107   ar
   184   105   104   ar
   185    42    44   am
   186    42    43    2
   187   107   108   ar
   188    50    49    1
   189    49    46   am
   190    96    97   ar
   191    44    45    1
   192    91    94    1
   193    91    92    1
   194   104   103    1
   195   104   106   ar
   196   108   106   ar
   197   103   100    1
   198    46    45    1
   199    46    47    2
   200    92    93    2
   201    45    48    1
   202   100   101    1
   203   100    99    1
   204   101   102    2
