@<TRIPOS>MOLECULE
tmp/5x7gA00.pdb
 94 91 0 0 0
SMALL
GASTEIGER

@<TRIPOS>ATOM
      1  N         16.0790   70.6030   57.4810 N.3    46  HIS46      -0.1226
      2  CA        14.7210   70.3340   57.9470 C.3    46  HIS46       0.1752
      3  C         13.9110   71.2910   57.1470 C.2    46  HIS46       0.2595
      4  O         14.0070   72.5010   57.3620 O.2    46  HIS46      -0.2718
      5  CB        14.5200   70.5930   59.4470 C.3    46  HIS46       0.0759
      6  CG        13.0940   70.4530   59.8730 C.ar   46  HIS46       0.0818
      7  ND1       12.4120   69.2550   59.7930 N.ar   46  HIS46      -0.2268
      8  CD2       12.2060   71.3660   60.3280 C.ar   46  HIS46       0.1154
      9  CE1       11.1690   69.4400   60.1880 C.ar   46  HIS46       0.1986
     10  NE2       11.0160   70.7120   60.5070 N.ar   46  HIS46      -0.2212
     11  N         13.1560   70.7690   56.1860 N.am   47  LEU47      -0.1980
     12  CA        12.4120   71.6110   55.2450 C.3    47  LEU47       0.1596
     13  C         13.3660   72.6220   54.6060 C.2    47  LEU47       0.2287
     14  O         14.3460   72.2030   53.9950 O.2    47  LEU47      -0.2864
     15  CB        11.1990   72.2530   55.9450 C.3    47  LEU47       0.0297
     16  CG        10.2780   71.2660   56.6680 C.3    47  LEU47       0.0022
     17  CD1        9.1490   72.0180   57.3890 C.3    47  LEU47       0.0001
     18  CD2        9.7250   70.1960   55.7090 C.3    47  LEU47       0.0001
     19  N          9.7720   64.6380   63.3630 N.3    80  LYS80      -0.1245
     20  CA        10.4730   65.5240   62.4590 C.3    80  LYS80       0.1561
     21  C         11.1200   64.6980   61.3540 C.2    80  LYS80       0.2260
     22  O         11.8040   63.7160   61.6160 O.2    80  LYS80      -0.2867
     23  CB        11.5490   66.3220   63.2030 C.3    80  LYS80       0.0271
     24  CG        11.0360   67.3230   64.2430 C.3    80  LYS80       0.0035
     25  CD        10.3960   68.5590   63.6160 C.3    80  LYS80       0.0206
     26  CE         9.6570   69.4030   64.6530 C.3    80  LYS80       0.1093
     27  NZ         8.3630   68.7490   65.0900 N.3    80  LYS80      -0.1314
     28  N          6.3540   66.2490   57.6920 N.3   571  ASN571     -0.1225
     29  CA         5.6750   67.2610   58.5030 C.3   571  ASN571      0.1785
     30  C          4.7010   68.1060   57.7050 C.2   571  ASN571      0.2597
     31  O          3.7500   68.6090   58.2670 O.2   571  ASN571     -0.2718
     32  CB         6.6690   68.1780   59.1830 C.3   571  ASN571      0.1169
     33  CG         7.5150   67.4730   60.2140 C.2   571  ASN571      0.2627
     34  OD1        8.7320   67.2800   60.0170 O.2   571  ASN571     -0.2716
     35  ND2        6.8920   67.0910   61.3300 N.am  571  ASN571     -0.0877
     36  N          4.9330   68.2510   56.3950 N.am  572  LEU572     -0.1980
     37  CA         4.0120   68.9510   55.5030 C.3   572  LEU572      0.1596
     38  C          2.9640   68.0470   54.8690 C.2   572  LEU572      0.2287
     39  O          2.0690   68.5320   54.1880 O.2   572  LEU572     -0.2864
     40  CB         4.7890   69.6630   54.3910 C.3   572  LEU572      0.0297
     41  CG         5.8970   70.5890   54.8690 C.3   572  LEU572      0.0022
     42  CD1        6.6160   71.1890   53.6630 C.3   572  LEU572      0.0001
     43  CD2        5.3620   71.6990   55.7730 C.3   572  LEU572      0.0001
     44  N          1.2510   65.1400   59.2240 N.3   575  ASP575     -0.1239
     45  CA         1.0280   65.6090   60.6130 C.3   575  ASP575      0.1674
     46  C         -0.4720   65.9190   60.8360 C.2   575  ASP575      0.2266
     47  O         -1.1210   66.3570   59.9200 O.2   575  ASP575     -0.2867
     48  CB         1.8580   66.8780   60.9380 C.3   575  ASP575      0.1410
     49  CG         3.3040   66.5690   61.3030 C.2   575  ASP575      0.3668
     50  OD1        3.6600   65.3640   61.4380 O.co2 575  ASP575     -0.2456
     51  OD2        4.0910   67.5450   61.4660 O.co2 575  ASP575     -0.2456
     52  N         -1.9400   68.4380   62.1380 N.3   577  ASP577     -0.1239
     53  CA        -2.2150   69.8670   61.8300 C.3   577  ASP577      0.1674
     54  C         -2.1680   70.2320   60.2960 C.2   577  ASP577      0.2266
     55  O         -2.3370   71.4000   59.9390 O.2   577  ASP577     -0.2867
     56  CB        -1.2710   70.7860   62.6730 C.3   577  ASP577      0.1410
     57  CG         0.2360   70.5960   62.3310 C.2   577  ASP577      0.3668
     58  OD1        0.5610   69.9240   61.3200 O.co2 577  ASP577     -0.2456
     59  OD2        1.1120   71.1160   63.0640 O.co2 577  ASP577     -0.2456
     60  N         -0.5090   74.2440   57.3330 N.3   611  THR611     -0.1204
     61  CA        -0.2600   73.9710   58.7350 C.3   611  THR611      0.1979
     62  C         -0.2920   75.3250   59.4640 C.2   611  THR611      0.2460
     63  O         -0.4910   76.3690   58.8260 O.2   611  THR611     -0.2732
     64  CB         1.1200   73.3190   58.9310 C.3   611  THR611      0.1783
     65  OG1        2.1250   74.2920   58.6960 O.3   611  THR611     -0.2211
     66  CG2        1.3280   72.1580   57.9830 C.3   611  THR611      0.0376
     67  N         -0.0960   75.3240   60.8010 N.am  612  PRO612     -0.2717
     68  CA         0.1050   76.6180   61.5040 C.3   612  PRO612      0.1535
     69  C          1.2920   77.4370   60.9680 C.2   612  PRO612      0.2598
     70  O          1.2070   78.6580   60.9440 O.2   612  PRO612     -0.2715
     71  CB         0.3550   76.1900   62.9620 C.3   612  PRO612      0.0310
     72  CG        -0.3900   74.8940   63.0960 C.3   612  PRO612      0.0237
     73  CD        -0.2950   74.2130   61.7510 C.3   612  PRO612      0.0939
     74  N          2.3670   76.7640   60.5360 N.am  613  GLU613     -0.1964
     75  CA         3.5760   77.4370   60.0460 C.3   613  GLU613      0.1733
     76  C          3.6560   77.6710   58.5290 C.2   613  GLU613      0.2616
     77  O          4.3810   78.5480   58.0950 O.2   613  GLU613     -0.2715
     78  CB         4.8220   76.6500   60.4340 C.3   613  GLU613      0.0429
     79  CG         5.0760   76.5110   61.9300 C.3   613  GLU613      0.1163
     80  CD         6.5570   76.6340   62.2550 C.2   613  GLU613      0.3649
     81  OE1        7.2240   75.6030   62.4980 O.co2 613  GLU613     -0.2457
     82  OE2        7.0580   77.7800   62.2240 O.co2 613  GLU613     -0.2457
     83  N          2.9670   76.8600   57.7280 N.am  614  TYR614     -0.1974
     84  CA         3.1930   76.8390   56.2920 C.3   614  TYR614      0.1639
     85  C          1.9030   76.7710   55.4820 C.2   614  TYR614      0.2290
     86  O          0.9170   76.1590   55.9000 O.2   614  TYR614     -0.2864
     87  CB         4.0310   75.6280   55.9140 C.3   614  TYR614      0.0560
     88  CG         5.4720   75.6170   56.3800 C.ar  614  TYR614     -0.0198
     89  CD1        6.4580   76.3130   55.6900 C.ar  614  TYR614     -0.0009
     90  CD2        5.8620   74.8520   57.4870 C.ar  614  TYR614     -0.0009
     91  CE1        7.7950   76.2670   56.1050 C.ar  614  TYR614      0.0417
     92  CE2        7.1860   74.8220   57.9160 C.ar  614  TYR614      0.0417
     93  CZ         8.1480   75.5260   57.2220 C.ar  614  TYR614      0.1957
     94  OH         9.4580   75.4540   57.6330 O.3   614  TYR614     -0.2866
@<TRIPOS>BOND
     1    42    41    1
     2    14    13    2
     3    39    38    2
     4    40    41    1
     5    40    37    1
     6    13    12    1
     7    38    37    1
     8    41    43    1
     9    12    15    1
    10    12    11    1
    11    85    86    2
    12    85    84    1
    13    37    36    1
    14    89    91   ar
    15    89    88   ar
    16    18    16    1
    17    87    84    1
    18    87    88    1
    19    15    16    1
    20    91    93   ar
    21    11     3   am
    22    84    83    1
    23    88    90   ar
    24    36    30   am
    25    16    17    1
    26     3     4    2
    27     3     2    1
    28    93    94    1
    29    93    92   ar
    30    60    61    1
    31     1     2    1
    32    90    92   ar
    33    28    29    1
    34    30    31    2
    35    30    29    1
    36    83    76   am
    37     2     5    1
    38    66    64    1
    39    77    76    2
    40    29    32    1
    41    76    75    1
    42    65    64    1
    43    61    64    1
    44    61    62    1
    45    63    62    2
    46    32    33    1
    47    44    45    1
    48     5     6    1
    49    62    67   am
    50     7     6   ar
    51     7     9   ar
    52     6     8   ar
    53    47    46    2
    54    55    54    2
    55    34    33    2
    56    75    78    1
    57    75    74    1
    58     9    10   ar
    59    33    35   am
    60    54    53    1
    61     8    10   ar
    62    78    79    1
    63    74    69   am
    64    45    46    1
    65    45    48    1
    66    67    68    1
    67    67    73    1
    68    48    49    1
    69    70    69    2
    70    69    68    1
    71    49    50   ar
    72    49    51   ar
    73    58    57   ar
    74    21    22    2
    75    21    20    1
    76    68    71    1
    77    73    72    1
    78    53    52    1
    79    53    56    1
    80    79    80    1
    81    82    80   ar
    82    80    81   ar
    83    57    56    1
    84    57    59   ar
    85    20    23    1
    86    20    19    1
    87    71    72    1
    88    23    24    1
    89    25    24    1
    90    25    26    1
    91    26    27    1
