@<TRIPOS>MOLECULE
tmp/5x7hA02.pdb
 92 91 0 0 0
SMALL
GASTEIGER

@<TRIPOS>ATOM
      1  N         11.6180   24.9280   36.7400 N.3   458  ILE458     -0.1245
      2  CA        10.4270   24.5720   37.4920 C.3   458  ILE458      0.1561
      3  C          9.3650   23.9770   36.5480 C.2   458  ILE458      0.2260
      4  O          9.3450   24.2770   35.3430 O.2   458  ILE458     -0.2867
      5  CB         9.8750   25.8190   38.2700 C.3   458  ILE458      0.0252
      6  CG1        8.9590   25.4200   39.4430 C.3   458  ILE458      0.0019
      7  CG2        9.1680   26.7980   37.3430 C.3   458  ILE458      0.0019
      8  CD1        8.8520   26.4920   40.5110 C.3   458  ILE458      0.0001
      9  N          5.5750   24.3030   35.5940 N.3   460  LEU460     -0.1231
     10  CA         4.5240   25.3490   35.6650 C.3   460  LEU460      0.1678
     11  C          3.1820   24.7140   35.4530 C.2   460  LEU460      0.2434
     12  O          3.0500   23.8590   34.5930 O.2   460  LEU460     -0.2733
     13  CB         4.6940   26.3970   34.5730 C.3   460  LEU460      0.0284
     14  CG         5.9240   27.2770   34.7120 C.3   460  LEU460      0.0019
     15  CD1        6.2540   27.9810   33.4050 C.3   460  LEU460      0.0001
     16  CD2        5.6990   28.2730   35.8460 C.3   460  LEU460      0.0001
     17  N          2.1730   25.1350   36.2160 N.am  461  PRO461     -0.2729
     18  CA         0.7970   24.7310   35.9120 C.3   461  PRO461      0.1401
     19  C          0.1240   25.6370   34.8490 C.2   461  PRO461      0.2269
     20  O          0.4200   26.8430   34.7580 O.2   461  PRO461     -0.2865
     21  CB         0.1020   24.9510   37.2450 C.3   461  PRO461      0.0296
     22  CG         0.7810   26.1840   37.8040 C.3   461  PRO461      0.0237
     23  CD         2.2180   26.1040   37.3320 C.3   461  PRO461      0.0939
     24  N         -3.8740   26.2410   34.0250 N.3   463  GLN463     -0.1245
     25  CA        -5.2370   25.8870   34.4360 C.3   463  GLN463      0.1566
     26  C         -6.0960   25.6070   33.2020 C.2   463  GLN463      0.2260
     27  O         -5.8100   26.0860   32.0960 O.2   463  GLN463     -0.2867
     28  CB        -5.9160   26.9930   35.2820 C.3   463  GLN463      0.0367
     29  CG        -5.1970   27.4600   36.5540 C.3   463  GLN463      0.0905
     30  CD        -5.1440   26.4130   37.6730 C.2   463  GLN463      0.2608
     31  OE1       -6.1620   25.8050   38.0230 O.2   463  GLN463     -0.2717
     32  NE2       -3.9430   26.2230   38.2630 N.am  463  GLN463     -0.0878
     33  N         -2.3840   33.6470   33.4110 N.3   474  GLU474     -0.1231
     34  CA        -2.1800   33.3990   34.8320 C.3   474  GLU474      0.1699
     35  C         -1.0580   32.4640   35.1560 C.2   474  GLU474      0.2593
     36  O         -0.8770   32.1560   36.3170 O.2   474  GLU474     -0.2718
     37  CB        -3.4520   32.9080   35.4930 C.3   474  GLU474      0.0402
     38  CG        -4.5320   33.9680   35.3810 C.3   474  GLU474      0.1161
     39  CD        -5.3200   34.1460   36.6350 C.2   474  GLU474      0.3649
     40  OE1       -5.3680   33.1800   37.4130 O.co2 474  GLU474     -0.2457
     41  OE2       -5.9050   35.2340   36.8160 O.co2 474  GLU474     -0.2457
     42  N         -0.2890   32.0390   34.1600 N.am  475  THR475     -0.1939
     43  CA         0.8910   31.2670   34.4300 C.3   475  THR475      0.2028
     44  C          2.1480   32.1270   34.3020 C.2   475  THR475      0.2642
     45  O          2.4960   32.5750   33.2020 O.2   475  THR475     -0.2714
     46  CB         0.9660   30.0520   33.5350 C.3   475  THR475      0.1808
     47  OG1       -0.1940   29.2510   33.7680 O.3   475  THR475     -0.2208
     48  CG2        2.2200   29.2370   33.8740 C.3   475  THR475      0.0379
     49  N          2.8210   32.3240   35.4400 N.am  476  TRP476     -0.1959
     50  CA         4.0520   33.1150   35.5430 C.3   476  TRP476      0.1771
     51  C          5.0860   32.3740   36.3980 C.2   476  TRP476      0.2619
     52  O          4.7770   31.4840   37.1830 O.2   476  TRP476     -0.2715
     53  CB         3.7840   34.5240   36.1560 C.3   476  TRP476      0.0590
     54  CG         2.9530   34.4430   37.4080 C.ar  476  TRP476      0.0006
     55  CD1        1.6180   34.4800   37.4810 C.ar  476  TRP476      0.0946
     56  CD2        3.4230   34.1990   38.7240 C.ar  476  TRP476      0.0152
     57  NE1        1.2040   34.3140   38.7800 N.ar  476  TRP476     -0.2442
     58  CE2        2.3030   34.1160   39.5590 C.ar  476  TRP476      0.0810
     59  CE3        4.6930   34.0540   39.2810 C.ar  476  TRP476      0.0012
     60  CZ2        2.3980   33.8920   40.9380 C.ar  476  TRP476      0.0191
     61  CZ3        4.7990   33.8330   40.6430 C.ar  476  TRP476      0.0001
     62  CH2        3.6510   33.7610   41.4620 C.ar  476  TRP476      0.0015
     63  N          6.3260   32.7640   36.2240 N.am  477  HIS477     -0.1973
     64  CA         7.3760   32.3870   37.1290 C.3   477  HIS477      0.1656
     65  C          8.4430   33.4420   37.0150 C.2   477  HIS477      0.2291
     66  O          8.7600   33.8490   35.9160 O.2   477  HIS477     -0.2864
     67  CB         7.9260   31.0350   36.7630 C.3   477  HIS477      0.0771
     68  CG         9.0760   30.6260   37.6140 C.ar  477  HIS477      0.0820
     69  ND1        8.9050   30.0780   38.8720 N.ar  477  HIS477     -0.2267
     70  CD2       10.4130   30.7210   37.4090 C.ar  477  HIS477      0.1154
     71  CE1       10.0930   29.8480   39.4030 C.ar  477  HIS477      0.1986
     72  NE2       11.0240   30.2320   38.5390 N.ar  477  HIS477     -0.2212
     73  N         -2.7750   38.3230   46.6830 N.3   543  TYR543     -0.1241
     74  CA        -2.0260   37.2250   47.2230 C.3   543  TYR543      0.1605
     75  C         -0.5880   37.6710   47.0830 C.2   543  TYR543      0.2264
     76  O         -0.0530   37.6450   46.0020 O.2   543  TYR543     -0.2867
     77  CB        -2.2700   35.9440   46.4110 C.3   543  TYR543      0.0534
     78  CG        -1.5090   34.7530   46.9510 C.ar  543  TYR543     -0.0201
     79  CD1       -1.7530   34.2750   48.2420 C.ar  543  TYR543     -0.0009
     80  CD2       -0.5360   34.1280   46.1960 C.ar  543  TYR543     -0.0009
     81  CE1       -1.0800   33.1870   48.7510 C.ar  543  TYR543      0.0417
     82  CE2        0.1550   33.0350   46.7060 C.ar  543  TYR543      0.0417
     83  CZ        -0.1130   32.5680   47.9990 C.ar  543  TYR543      0.1957
     84  OH         0.5940   31.4900   48.5090 O.3   543  TYR543     -0.2866
     85  N          2.4930   36.5980   44.6990 N.3   546  ASN546     -0.1240
     86  CA         2.3610   36.6910   43.2300 C.3   546  ASN546      0.1653
     87  C          3.4660   37.5840   42.6600 C.2   546  ASN546      0.2266
     88  O          3.5840   38.7650   43.0380 O.2   546  ASN546     -0.2867
     89  CB         0.9300   37.1850   42.8780 C.3   546  ASN546      0.1155
     90  CG         0.6640   37.2850   41.3890 C.2   546  ASN546      0.2627
     91  OD1        1.4030   37.9460   40.6740 O.2   546  ASN546     -0.2716
     92  ND2       -0.4040   36.6410   40.9250 N.am  546  ASN546     -0.0877
@<TRIPOS>BOND
     1    27    26    2
     2    45    44    2
     3    26    25    1
     4    15    14    1
     5    33    34    1
     6    46    47    1
     7    46    48    1
     8    46    43    1
     9    24    25    1
    10    42    43    1
    11    42    35   am
    12    44    43    1
    13    44    49   am
    14    25    28    1
    15    13    14    1
    16    13    10    1
    17    12    11    2
    18    14    16    1
    19    20    19    2
    20    34    35    1
    21    34    37    1
    22    19    18    1
    23    35    36    2
    24    28    29    1
    25     4     3    2
    26    38    37    1
    27    38    39    1
    28    49    50    1
    29    11    10    1
    30    11    17   am
    31    50    53    1
    32    50    51    1
    33     9    10    1
    34    18    17    1
    35    18    21    1
    36    66    65    2
    37    53    54    1
    38    17    23    1
    39    63    51   am
    40    63    64    1
    41    51    52    2
    42     3     2    1
    43    29    30    1
    44    39    41   ar
    45    39    40   ar
    46     1     2    1
    47    67    64    1
    48    67    68    1
    49    65    64    1
    50    21    22    1
    51    23    22    1
    52     7     5    1
    53    54    55   ar
    54    54    56   ar
    55    70    68   ar
    56    70    72   ar
    57    55    57   ar
    58     2     5    1
    59    68    69   ar
    60    30    31    2
    61    30    32   am
    62     5     6    1
    63    72    71   ar
    64    56    59   ar
    65    56    58   ar
    66    57    58   ar
    67    69    71   ar
    68    59    61   ar
    69     6     8    1
    70    58    60   ar
    71    61    62   ar
    72    91    90    2
    73    92    90   am
    74    60    62   ar
    75    90    89    1
    76    87    88    2
    77    87    86    1
    78    89    86    1
    79    86    85    1
    80    76    75    2
    81    80    82   ar
    82    80    78   ar
    83    77    78    1
    84    77    74    1
    85    73    74    1
    86    82    83   ar
    87    78    79   ar
    88    75    74    1
    89    83    84    1
    90    83    81   ar
    91    79    81   ar
