@<TRIPOS>MOLECULE
tmp/5x7hA06.pdb
 133 128 0 0 0
SMALL
GASTEIGER

@<TRIPOS>ATOM
      1  N          2.7320   38.5080   55.7280 N.3   144  TYR144     -0.1227
      2  CA         1.5900   37.8460   55.0870 C.3   144  TYR144      0.1736
      3  C          1.7440   36.3190   54.9990 C.2   144  TYR144      0.2595
      4  O          2.6880   35.8290   54.3700 O.2   144  TYR144     -0.2718
      5  CB         1.4260   38.3990   53.6650 C.3   144  TYR144      0.0548
      6  CG         0.2190   37.8620   52.9020 C.ar  144  TYR144     -0.0200
      7  CD1       -1.0300   38.4900   52.9910 C.ar  144  TYR144     -0.0009
      8  CD2        0.3250   36.7390   52.0760 C.ar  144  TYR144     -0.0009
      9  CE1       -2.1310   38.0040   52.3060 C.ar  144  TYR144      0.0417
     10  CE2       -0.7850   36.2540   51.3660 C.ar  144  TYR144      0.0417
     11  CZ        -2.0080   36.8940   51.4960 C.ar  144  TYR144      0.1957
     12  OH        -3.0950   36.4410   50.8000 O.3   144  TYR144     -0.2866
     13  N          0.7840   35.5910   55.5700 N.am  145  ASP145     -0.1974
     14  CA         0.7070   34.1290   55.4630 C.3   145  ASP145      0.1709
     15  C          1.8850   33.4160   56.0750 C.2   145  ASP145      0.2293
     16  O          2.4190   32.4510   55.5090 O.2   145  ASP145     -0.2864
     17  CB         0.4850   33.7020   54.0010 C.3   145  ASP145      0.1436
     18  CG        -0.9720   33.7750   53.6000 C.2   145  ASP145      0.3671
     19  OD1       -1.7210   34.5300   54.2600 O.co2 145  ASP145     -0.2456
     20  OD2       -1.3560   33.0460   52.6490 O.co2 145  ASP145     -0.2456
     21  N          1.4610   32.2370   59.1640 N.3   147  MET147     -0.1245
     22  CA         0.7830   31.3100   60.0720 C.3   147  MET147      0.1570
     23  C          0.5550   29.9140   59.4860 C.2   147  MET147      0.2261
     24  O          0.6440   29.6900   58.2780 O.2   147  MET147     -0.2867
     25  CB        -0.5380   31.9120   60.5530 C.3   147  MET147      0.0387
     26  CG        -1.6380   32.0590   59.5130 C.3   147  MET147      0.0595
     27  SD        -1.5320   33.5320   58.4810 S.3   147  MET147     -0.1393
     28  CE        -2.9130   33.3160   57.3770 C.3   147  MET147      0.0692
     29  N         -5.3550   29.5670   60.2370 N.3   150  HIS150     -0.1241
     30  CA        -5.9260   30.8790   60.5470 C.3   150  HIS150      0.1621
     31  C         -6.3400   30.9870   62.0060 C.2   150  HIS150      0.2264
     32  O         -6.2780   32.0690   62.6160 O.2   150  HIS150     -0.2867
     33  CB        -7.0850   31.2400   59.5970 C.3   150  HIS150      0.0745
     34  CG        -6.6300   31.7370   58.2530 C.ar  150  HIS150      0.0817
     35  ND1       -6.2460   30.8940   57.2310 N.ar  150  HIS150     -0.2268
     36  CD2       -6.4930   32.9970   57.7660 C.ar  150  HIS150      0.1154
     37  CE1       -5.8870   31.6150   56.1800 C.ar  150  HIS150      0.1986
     38  NE2       -6.0270   32.8940   56.4770 N.ar  150  HIS150     -0.2212
     39  N         -1.6920   26.9740   53.8810 N.3   168  LEU168     -0.1231
     40  CA        -2.8530   26.5500   53.1240 C.3   168  LEU168      0.1693
     41  C         -2.6410   26.3160   51.6340 C.2   168  LEU168      0.2592
     42  O         -3.4520   25.6460   51.0540 O.2   168  LEU168     -0.2718
     43  CB        -4.0280   27.4970   53.3590 C.3   168  LEU168      0.0284
     44  CG        -4.1680   28.7670   52.5400 C.3   168  LEU168      0.0019
     45  CD1       -5.5820   29.2910   52.7600 C.3   168  LEU168      0.0001
     46  CD2       -3.1110   29.7910   52.9200 C.3   168  LEU168      0.0001
     47  N         -1.5840   26.8700   51.0530 N.am  169  PHE169     -0.1976
     48  CA        -1.2190   26.7140   49.6420 C.3   169  PHE169      0.1639
     49  C          0.0270   25.8620   49.4690 C.2   169  PHE169      0.2290
     50  O          0.7410   25.9790   48.4520 O.2   169  PHE169     -0.2864
     51  CB        -0.9720   28.0990   49.0080 C.3   169  PHE169      0.0560
     52  CG        -2.2310   28.8800   48.8190 C.ar  169  PHE169     -0.0200
     53  CD1       -3.1760   28.4590   47.8830 C.ar  169  PHE169     -0.0042
     54  CD2       -2.5200   29.9630   49.6120 C.ar  169  PHE169     -0.0042
     55  CE1       -4.3630   29.1330   47.7150 C.ar  169  PHE169     -0.0003
     56  CE2       -3.7150   30.6340   49.4720 C.ar  169  PHE169     -0.0003
     57  CZ        -4.6320   30.2240   48.5190 C.ar  169  PHE169     -0.0000
     58  N          0.0100   39.0700   60.1780 N.3   195  TYR195     -0.1241
     59  CA        -1.2350   38.9530   59.4390 C.3   195  TYR195      0.1605
     60  C         -2.1250   38.0230   60.2080 C.2   195  TYR195      0.2264
     61  O         -1.6730   36.9880   60.7140 O.2   195  TYR195     -0.2867
     62  CB        -1.0020   38.3930   58.0140 C.3   195  TYR195      0.0534
     63  CG        -2.2730   38.1350   57.2080 C.ar  195  TYR195     -0.0201
     64  CD1       -2.8390   39.1390   56.4150 C.ar  195  TYR195     -0.0009
     65  CD2       -2.9140   36.9210   57.2760 C.ar  195  TYR195     -0.0009
     66  CE1       -4.0020   38.9270   55.7230 C.ar  195  TYR195      0.0417
     67  CE2       -4.0830   36.6890   56.5750 C.ar  195  TYR195      0.0417
     68  CZ        -4.6310   37.6930   55.8090 C.ar  195  TYR195      0.1957
     69  OH        -5.7900   37.4420   55.1190 O.3   195  TYR195     -0.2866
     70  N         -6.6410   36.8770   60.3200 N.3   197  MET197     -0.1245
     71  CA        -8.0410   37.1350   59.9900 C.3   197  MET197      0.1570
     72  C         -8.8210   37.5080   61.2530 C.2   197  MET197      0.2261
     73  O         -8.5010   37.0350   62.3590 O.2   197  MET197     -0.2867
     74  CB        -8.6350   35.9310   59.2560 C.3   197  MET197      0.0387
     75  CG        -8.4600   35.9810   57.7360 C.3   197  MET197      0.0595
     76  SD        -9.8500   36.8900   57.0150 S.3   197  MET197     -0.1393
     77  CE        -9.2410   37.2090   55.3480 C.3   197  MET197      0.0692
     78  N        -11.4920   26.6880   48.5660 N.3   230  PHE230     -0.1241
     79  CA       -10.2910   26.7950   47.7120 C.3   230  PHE230      0.1605
     80  C        -10.2310   25.8320   46.5120 C.2   230  PHE230      0.2264
     81  O         -9.2390   25.8340   45.7640 O.2   230  PHE230     -0.2867
     82  CB        -9.0160   26.8090   48.5780 C.3   230  PHE230      0.0534
     83  CG        -8.8820   28.0840   49.3590 C.ar  230  PHE230     -0.0203
     84  CD1       -8.3810   29.2300   48.7410 C.ar  230  PHE230     -0.0042
     85  CD2       -9.3600   28.1760   50.6570 C.ar  230  PHE230     -0.0042
     86  CE1       -8.3250   30.4360   49.4200 C.ar  230  PHE230     -0.0003
     87  CE2       -9.2900   29.3790   51.3470 C.ar  230  PHE230     -0.0003
     88  CZ        -8.7670   30.5140   50.7320 C.ar  230  PHE230     -0.0000
     89  N        -11.7320   27.9060   54.4760 N.3   237  MET237     -0.1245
     90  CA       -11.7830   28.7590   55.6470 C.3   237  MET237      0.1570
     91  C        -13.2530   28.8230   55.9840 C.2   237  MET237      0.2261
     92  O        -14.0790   28.8640   55.0790 O.2   237  MET237     -0.2867
     93  CB       -11.2160   30.1490   55.3630 C.3   237  MET237      0.0387
     94  CG        -9.6960   30.1810   55.2250 C.3   237  MET237      0.0595
     95  SD        -9.0820   31.6810   54.4160 S.3   237  MET237     -0.1393
     96  CE        -9.7360   33.0070   55.4030 C.3   237  MET237      0.0692
     97  N         -7.2140   41.1750   58.9540 N.3   270  ASP270     -0.1239
     98  CA        -7.8530   41.1740   57.6330 C.3   270  ASP270      0.1674
     99  C         -9.3020   40.6420   57.6760 C.2   270  ASP270      0.2266
    100  O         -9.7680   40.1790   58.7040 O.2   270  ASP270     -0.2867
    101  CB        -7.0190   40.2860   56.7080 C.3   270  ASP270      0.1410
    102  CG        -7.2010   40.5980   55.2280 C.2   270  ASP270      0.3668
    103  OD1       -7.7090   41.6780   54.8360 O.co2 270  ASP270     -0.2456
    104  OD2       -6.8310   39.7080   54.4450 O.co2 270  ASP270     -0.2456
    105  N        -12.6790   39.3190   54.5520 N.3   272  MET272     -0.1245
    106  CA       -13.0210   39.0820   53.1430 C.3   272  MET272      0.1570
    107  C        -13.7740   40.2520   52.4970 C.2   272  MET272      0.2261
    108  O        -13.8270   40.3370   51.2870 O.2   272  MET272     -0.2867
    109  CB       -13.8580   37.8020   52.9560 C.3   272  MET272      0.0387
    110  CG       -13.3230   36.5330   53.6060 C.3   272  MET272      0.0595
    111  SD       -11.7170   36.0170   52.9870 S.3   272  MET272     -0.1393
    112  CE       -12.0170   35.5940   51.2720 C.3   272  MET272      0.0692
    113  N         -3.4970   40.5020   45.1750 N.3   542  GLU542     -0.1231
    114  CA        -3.8130   40.5110   46.5950 C.3   542  GLU542      0.1699
    115  C         -3.1890   39.3660   47.3860 C.2   542  GLU542      0.2592
    116  O         -3.1800   39.3950   48.6040 O.2   542  GLU542     -0.2718
    117  CB        -5.3430   40.4930   46.7880 C.3   542  GLU542      0.0402
    118  CG        -6.0930   39.2130   46.3450 C.3   542  GLU542      0.1161
    119  CD        -6.6370   39.2700   44.9210 C.2   542  GLU542      0.3649
    120  OE1       -6.0860   40.0380   44.0810 O.co2 542  GLU542     -0.2457
    121  OE2       -7.6080   38.5120   44.6470 O.co2 542  GLU542     -0.2457
    122  N         -2.7750   38.3230   46.6830 N.am  543  TYR543     -0.1976
    123  CA        -2.0260   37.2250   47.2230 C.3   543  TYR543      0.1639
    124  C         -0.5880   37.6710   47.0830 C.2   543  TYR543      0.2290
    125  O         -0.0530   37.6450   46.0020 O.2   543  TYR543     -0.2864
    126  CB        -2.2700   35.9440   46.4110 C.3   543  TYR543      0.0560
    127  CG        -1.5090   34.7530   46.9510 C.ar  543  TYR543     -0.0198
    128  CD1       -1.7530   34.2750   48.2420 C.ar  543  TYR543     -0.0009
    129  CD2       -0.5360   34.1280   46.1960 C.ar  543  TYR543     -0.0009
    130  CE1       -1.0800   33.1870   48.7510 C.ar  543  TYR543      0.0417
    131  CE2        0.1550   33.0350   46.7060 C.ar  543  TYR543      0.0417
    132  CZ        -0.1130   32.5680   47.9990 C.ar  543  TYR543      0.1957
    133  OH         0.5940   31.4900   48.5090 O.3   543  TYR543     -0.2866
@<TRIPOS>BOND
     1   120   119   ar
     2   121   119   ar
     3   119   118    1
     4   113   114    1
     5    81    80    2
     6   125   124    2
     7   129   131   ar
     8   129   127   ar
     9   118   117    1
    10   126   127    1
    11   126   123    1
    12    80    79    1
    13   114   117    1
    14   114   115    1
    15   122   123    1
    16   122   115   am
    17   131   132   ar
    18   127   128   ar
    19   124   123    1
    20   115   116    2
    21    79    78    1
    22    79    82    1
    23    55    53   ar
    24    55    57   ar
    25    53    52   ar
    26   132   133    1
    27   132   130   ar
    28   128   130   ar
    29    50    49    2
    30    57    56   ar
    31    82    83    1
    32    84    83   ar
    33    84    86   ar
    34    52    51    1
    35    52    54   ar
    36    51    48    1
    37    83    85   ar
    38    86    88   ar
    39    49    48    1
    40    56    54   ar
    41    48    47    1
    42    85    87   ar
    43    88    87   ar
    44    12    11    1
    45    47    41   am
    46    42    41    2
    47   112   111    1
    48   108   107    2
    49    10    11   ar
    50    10     8   ar
    51    11     9   ar
    52    41    40    1
    53     8     6   ar
    54     9     7   ar
    55   107   106    1
    56    44    45    1
    57    44    46    1
    58    44    43    1
    59    20    18   ar
    60     6     7   ar
    61     6     5    1
    62   109   106    1
    63   109   110    1
    64   111   110    1
    65    40    43    1
    66    40    39    1
    67   106   105    1
    68    18    17    1
    69    18    19   ar
    70     5     2    1
    71    17    14    1
    72     4     3    2
    73    95    94    1
    74    95    96    1
    75   104   102   ar
    76    89    90    1
    77   103   102   ar
    78     3     2    1
    79     3    13   am
    80    92    91    2
    81     2     1    1
    82    69    68    1
    83    94    93    1
    84   102   101    1
    85    77    76    1
    86    93    90    1
    87    14    13    1
    88    14    15    1
    89    16    15    2
    90    90    91    1
    91    66    68   ar
    92    66    64   ar
    93    68    67   ar
    94    37    38   ar
    95    37    35   ar
    96    64    63   ar
    97    38    36   ar
    98    67    65   ar
    99   101    98    1
   100    76    75    1
   101    63    65   ar
   102    63    62    1
   103    35    34   ar
   104    28    27    1
   105    98    99    1
   106    98    97    1
   107    99   100    2
   108    75    74    1
   109    36    34   ar
   110    62    59    1
   111    34    33    1
   112    24    23    2
   113    27    26    1
   114    21    22    1
   115    74    71    1
   116    59    58    1
   117    59    60    1
   118    23    22    1
   119    26    25    1
   120    33    30    1
   121    71    70    1
   122    71    72    1
   123    22    25    1
   124    60    61    2
   125    29    30    1
   126    30    31    1
   127    72    73    2
   128    31    32    2
