@<TRIPOS>MOLECULE
tmp/5x7hA08.pdb
 97 97 0 0 0
SMALL
GASTEIGER

@<TRIPOS>ATOM
      1  N         -6.4880   29.0700   14.1900 N.3   400  ASN400     -0.1225
      2  CA        -7.8270   28.5200   14.0280 C.3   400  ASN400      0.1785
      3  C         -8.6530   28.6130   15.3020 C.2   400  ASN400      0.2597
      4  O         -9.6700   27.9600   15.4370 O.2   400  ASN400     -0.2718
      5  CB        -7.7190   27.0690   13.5620 C.3   400  ASN400      0.1169
      6  CG        -6.8190   26.2180   14.4540 C.2   400  ASN400      0.2627
      7  OD1       -5.7060   26.6130   14.8150 O.2   400  ASN400     -0.2716
      8  ND2       -7.2970   25.0530   14.8000 N.am  400  ASN400     -0.0877
      9  N         -8.1880   29.3930   16.2580 N.am  401  HIS401     -0.1975
     10  CA        -9.0260   29.8420   17.3550 C.3   401  HIS401      0.1656
     11  C         -8.6660   31.2690   17.6070 C.2   401  HIS401      0.2291
     12  O         -7.4820   31.5930   17.7110 O.2   401  HIS401     -0.2864
     13  CB        -8.7090   29.1030   18.6370 C.3   401  HIS401      0.0771
     14  CG        -8.9640   27.6540   18.5580 C.ar  401  HIS401      0.0820
     15  ND1      -10.2200   27.1150   18.7440 N.ar  401  HIS401     -0.2267
     16  CD2       -8.1290   26.6230   18.2990 C.ar  401  HIS401      0.1154
     17  CE1      -10.1430   25.8050   18.6130 C.ar  401  HIS401      0.1986
     18  NE2       -8.8870   25.4840   18.3430 N.ar  401  HIS401     -0.2212
     19  N         -0.4410   31.5430   16.8610 N.3   409  PHE409     -0.1241
     20  CA         0.0450   30.9350   18.0850 C.3   409  PHE409      0.1605
     21  C          0.7500   29.6350   17.7970 C.2   409  PHE409      0.2264
     22  O          0.9690   29.3390   16.6520 O.2   409  PHE409     -0.2867
     23  CB        -1.0990   30.7350   19.0570 C.3   409  PHE409      0.0534
     24  CG        -2.2700   30.0180   18.4790 C.ar  409  PHE409     -0.0203
     25  CD1       -2.3310   28.6210   18.4990 C.ar  409  PHE409     -0.0042
     26  CD2       -3.3450   30.7310   17.9640 C.ar  409  PHE409     -0.0042
     27  CE1       -3.4500   27.9590   17.9910 C.ar  409  PHE409     -0.0003
     28  CE2       -4.4600   30.0810   17.4620 C.ar  409  PHE409     -0.0003
     29  CZ        -4.5150   28.6940   17.4760 C.ar  409  PHE409     -0.0000
     30  N          0.4720   25.4760   18.3760 N.3   411  ASP411     -0.1225
     31  CA        -0.3570   24.3100   18.7390 C.3   411  ASP411      0.1805
     32  C          0.4390   23.0390   18.4020 C.2   411  ASP411      0.2598
     33  O          1.6510   23.1240   18.0600 O.2   411  ASP411     -0.2718
     34  CB        -1.7190   24.3820   18.0320 C.3   411  ASP411      0.1424
     35  CG        -1.6330   24.2080   16.4860 C.2   411  ASP411      0.3668
     36  OD1       -0.5630   24.3530   15.8600 O.co2 411  ASP411     -0.2456
     37  OD2       -2.6810   23.9340   15.8760 O.co2 411  ASP411     -0.2456
     38  N         -0.2220   21.8780   18.5010 N.am  412  GLN412     -0.1965
     39  CA         0.4410   20.5720   18.3450 C.3   412  GLN412      0.1733
     40  C          1.5680   20.5100   19.3680 C.2   412  GLN412      0.2616
     41  O          2.7430   20.2950   19.0550 O.2   412  GLN412     -0.2715
     42  CB         0.8820   20.3190   16.8830 C.3   412  GLN412      0.0408
     43  CG        -0.0380   19.3450   16.1340 C.3   412  GLN412      0.0908
     44  CD        -0.1660   19.6900   14.6610 C.2   412  GLN412      0.2608
     45  OE1        0.8350   19.7810   13.9430 O.2   412  GLN412     -0.2717
     46  NE2       -1.4030   19.9050   14.2040 N.am  412  GLN412     -0.0878
     47  N          1.1330   20.7620   20.6020 N.am  413  PHE413     -0.1960
     48  CA         1.9530   20.8600   21.7970 C.3   413  PHE413      0.1771
     49  C          1.2900   19.8810   22.7600 C.2   413  PHE413      0.2619
     50  O          0.7080   20.2890   23.7630 O.2   413  PHE413     -0.2715
     51  CB         1.8800   22.3020   22.3670 C.3   413  PHE413      0.0574
     52  CG         3.0500   22.7200   23.2450 C.ar  413  PHE413     -0.0200
     53  CD1        3.9330   21.7900   23.8310 C.ar  413  PHE413     -0.0042
     54  CD2        3.2470   24.0730   23.5070 C.ar  413  PHE413     -0.0042
     55  CE1        4.9930   22.2110   24.6190 C.ar  413  PHE413     -0.0003
     56  CE2        4.3030   24.4990   24.2950 C.ar  413  PHE413     -0.0003
     57  CZ         5.1790   23.5680   24.8500 C.ar  413  PHE413     -0.0000
     58  N          1.3070   18.5980   22.4250 N.am  414  ALA414     -0.1977
     59  CA         0.6570   17.6030   23.2880 C.3   414  ALA414      0.1597
     60  C          1.4100   16.2920   23.4990 C.2   414  ALA414      0.2287
     61  O          0.8210   15.3420   24.0250 O.2   414  ALA414     -0.2864
     62  CB        -0.7490   17.3370   22.7910 C.3   414  ALA414      0.0319
     63  N        -11.2270   26.2220   23.8850 N.3   468  TRP468     -0.1241
     64  CA        -9.9570   26.5350   23.2420 C.3   468  TRP468      0.1605
     65  C         -9.7670   27.9960   22.8050 C.2   468  TRP468      0.2264
     66  O         -8.6600   28.3930   22.3870 O.2   468  TRP468     -0.2867
     67  CB        -9.7400   25.6060   22.0530 C.3   468  TRP468      0.0550
     68  CG        -9.3670   24.2540   22.5240 C.ar  468  TRP468      0.0003
     69  CD1      -10.1470   23.1400   22.5340 C.ar  468  TRP468      0.0946
     70  CD2       -8.1120   23.8790   23.1010 C.ar  468  TRP468      0.0152
     71  NE1       -9.4500   22.0860   23.0610 N.ar  468  TRP468     -0.2442
     72  CE2       -8.1960   22.5130   23.4200 C.ar  468  TRP468      0.0810
     73  CE3       -6.9180   24.5700   23.3690 C.ar  468  TRP468      0.0012
     74  CZ2       -7.1440   21.8210   24.0260 C.ar  468  TRP468      0.0191
     75  CZ3       -5.8600   23.8770   23.9440 C.ar  468  TRP468      0.0001
     76  CH2       -5.9810   22.5130   24.2700 C.ar  468  TRP468      0.0015
     77  N         -2.6840   19.3260   27.2630 N.3   499  ALA499     -0.1231
     78  CA        -2.1510   20.0310   26.0890 C.3   499  ALA499      0.1694
     79  C         -2.5270   21.4890   26.1320 C.2   499  ALA499      0.2592
     80  O         -3.5570   21.8670   26.7260 O.2   499  ALA499     -0.2718
     81  CB        -2.6790   19.4050   24.8190 C.3   499  ALA499      0.0304
     82  N         -1.7100   22.2950   25.4710 N.am  500  ILE500     -0.1966
     83  CA        -1.9640   23.7200   25.4030 C.3   500  ILE500      0.1727
     84  C         -1.5690   24.3400   24.0770 C.2   500  ILE500      0.2616
     85  O         -0.7190   23.7870   23.3330 O.2   500  ILE500     -0.2715
     86  CB        -1.1720   24.5010   26.4820 C.3   500  ILE500      0.0290
     87  CG1        0.3440   24.3730   26.2890 C.3   500  ILE500      0.0022
     88  CG2       -1.5510   24.0470   27.8810 C.3   500  ILE500      0.0023
     89  CD1        1.1390   25.3780   27.0970 C.3   500  ILE500      0.0001
     90  N         -2.1530   25.5190   23.8190 N.am  501  ASN501     -0.1972
     91  CA        -1.6290   26.4380   22.7860 C.3   501  ASN501      0.1688
     92  C         -1.0480   27.6730   23.4500 C.2   501  ASN501      0.2292
     93  O         -1.6160   28.2150   24.3930 O.2   501  ASN501     -0.2864
     94  CB        -2.7010   26.8520   21.8100 C.3   501  ASN501      0.1181
     95  CG        -3.5130   25.6810   21.3250 C.2   501  ASN501      0.2629
     96  OD1       -2.9600   24.6150   21.0150 O.2   501  ASN501     -0.2716
     97  ND2       -4.8420   25.8590   21.2870 N.am  501  ASN501     -0.0877
@<TRIPOS>BOND
     1     5     2    1
     2     5     6    1
     3    45    44    2
     4     2     1    1
     5     2     3    1
     6    46    44   am
     7     6     8   am
     8     6     7    2
     9    44    43    1
    10     3     4    2
    11     3     9   am
    12    36    35   ar
    13    37    35   ar
    14    43    42    1
    15     9    10    1
    16    35    34    1
    17    22    21    2
    18    19    20    1
    19    42    39    1
    20    10    11    1
    21    10    13    1
    22    28    29   ar
    23    28    26   ar
    24    29    27   ar
    25    11    12    2
    26    21    20    1
    27    26    24   ar
    28    27    25   ar
    29    34    31    1
    30    33    32    2
    31    20    23    1
    32    16    18   ar
    33    16    14   ar
    34    18    17   ar
    35    39    38    1
    36    39    40    1
    37    30    31    1
    38    32    38   am
    39    32    31    1
    40    24    25   ar
    41    24    23    1
    42    14    13    1
    43    14    15   ar
    44    17    15   ar
    45    41    40    2
    46    40    47   am
    47    47    48    1
    48    96    95    2
    49    97    95   am
    50    95    94    1
    51    48    51    1
    52    48    49    1
    53    94    91    1
    54    67    68    1
    55    67    64    1
    56    51    52    1
    57    66    65    2
    58    58    49   am
    59    58    59    1
    60    68    69   ar
    61    68    70   ar
    62    69    71   ar
    63    49    50    2
    64    91    92    1
    65    91    90    1
    66    62    59    1
    67    65    64    1
    68    71    72   ar
    69    70    73   ar
    70    70    72   ar
    71    64    63    1
    72    52    54   ar
    73    52    53   ar
    74    59    60    1
    75    85    84    2
    76    73    75   ar
    77    72    74   ar
    78    92    93    2
    79    60    61    2
    80    54    56   ar
    81    90    84   am
    82    53    55   ar
    83    75    76   ar
    84    74    76   ar
    85    84    83    1
    86    56    57   ar
    87    55    57   ar
    88    81    78    1
    89    83    82    1
    90    83    86    1
    91    82    79   am
    92    78    79    1
    93    78    77    1
    94    79    80    2
    95    87    86    1
    96    87    89    1
    97    86    88    1
