@<TRIPOS>MOLECULE
tmp/5x7hA07.pdb
 190 185 0 0 0
SMALL
GASTEIGER

@<TRIPOS>ATOM
      1  N          4.1210   44.0920   57.0500 N.3   142  GLN142     -0.1245
      2  CA         3.0410   43.1530   57.2270 C.3   142  GLN142      0.1566
      3  C          3.5530   41.7610   56.8890 C.2   142  GLN142      0.2260
      4  O          3.9530   41.5230   55.7490 O.2   142  GLN142     -0.2867
      5  CB         1.8490   43.5010   56.3310 C.3   142  GLN142      0.0367
      6  CG         0.6510   42.5920   56.5800 C.3   142  GLN142      0.0905
      7  CD        -0.3490   42.5960   55.4580 C.2   142  GLN142      0.2608
      8  OE1       -0.7850   41.5240   55.0130 O.2   142  GLN142     -0.2717
      9  NE2       -0.7330   43.7980   54.9930 N.am  142  GLN142     -0.0878
     10  N          2.7320   38.5080   55.7280 N.3   144  TYR144     -0.1241
     11  CA         1.5900   37.8460   55.0870 C.3   144  TYR144      0.1605
     12  C          1.7440   36.3190   54.9990 C.2   144  TYR144      0.2264
     13  O          2.6880   35.8290   54.3700 O.2   144  TYR144     -0.2867
     14  CB         1.4260   38.3990   53.6650 C.3   144  TYR144      0.0534
     15  CG         0.2190   37.8620   52.9020 C.ar  144  TYR144     -0.0201
     16  CD1       -1.0300   38.4900   52.9910 C.ar  144  TYR144     -0.0009
     17  CD2        0.3250   36.7390   52.0760 C.ar  144  TYR144     -0.0009
     18  CE1       -2.1310   38.0040   52.3060 C.ar  144  TYR144      0.0417
     19  CE2       -0.7850   36.2540   51.3660 C.ar  144  TYR144      0.0417
     20  CZ        -2.0080   36.8940   51.4960 C.ar  144  TYR144      0.1957
     21  OH        -3.0950   36.4410   50.8000 O.3   144  TYR144     -0.2866
     22  N         -5.3550   29.5670   60.2370 N.3   150  HIS150     -0.1241
     23  CA        -5.9260   30.8790   60.5470 C.3   150  HIS150      0.1621
     24  C         -6.3400   30.9870   62.0060 C.2   150  HIS150      0.2264
     25  O         -6.2780   32.0690   62.6160 O.2   150  HIS150     -0.2867
     26  CB        -7.0850   31.2400   59.5970 C.3   150  HIS150      0.0745
     27  CG        -6.6300   31.7370   58.2530 C.ar  150  HIS150      0.0817
     28  ND1       -6.2460   30.8940   57.2310 N.ar  150  HIS150     -0.2268
     29  CD2       -6.4930   32.9970   57.7660 C.ar  150  HIS150      0.1154
     30  CE1       -5.8870   31.6150   56.1800 C.ar  150  HIS150      0.1986
     31  NE2       -6.0270   32.8940   56.4770 N.ar  150  HIS150     -0.2212
     32  N          0.0100   39.0700   60.1780 N.3   195  TYR195     -0.1241
     33  CA        -1.2350   38.9530   59.4390 C.3   195  TYR195      0.1605
     34  C         -2.1250   38.0230   60.2080 C.2   195  TYR195      0.2264
     35  O         -1.6730   36.9880   60.7140 O.2   195  TYR195     -0.2867
     36  CB        -1.0020   38.3930   58.0140 C.3   195  TYR195      0.0534
     37  CG        -2.2730   38.1350   57.2080 C.ar  195  TYR195     -0.0201
     38  CD1       -2.8390   39.1390   56.4150 C.ar  195  TYR195     -0.0009
     39  CD2       -2.9140   36.9210   57.2760 C.ar  195  TYR195     -0.0009
     40  CE1       -4.0020   38.9270   55.7230 C.ar  195  TYR195      0.0417
     41  CE2       -4.0830   36.6890   56.5750 C.ar  195  TYR195      0.0417
     42  CZ        -4.6310   37.6930   55.8090 C.ar  195  TYR195      0.1957
     43  OH        -5.7900   37.4420   55.1190 O.3   195  TYR195     -0.2866
     44  N         -6.6410   36.8770   60.3200 N.3   197  MET197     -0.1245
     45  CA        -8.0410   37.1350   59.9900 C.3   197  MET197      0.1570
     46  C         -8.8210   37.5080   61.2530 C.2   197  MET197      0.2261
     47  O         -8.5010   37.0350   62.3590 O.2   197  MET197     -0.2867
     48  CB        -8.6350   35.9310   59.2560 C.3   197  MET197      0.0387
     49  CG        -8.4600   35.9810   57.7360 C.3   197  MET197      0.0595
     50  SD        -9.8500   36.8900   57.0150 S.3   197  MET197     -0.1393
     51  CE        -9.2410   37.2090   55.3480 C.3   197  MET197      0.0692
     52  N        -11.4920   26.6880   48.5660 N.3   230  PHE230     -0.1241
     53  CA       -10.2910   26.7950   47.7120 C.3   230  PHE230      0.1605
     54  C        -10.2310   25.8320   46.5120 C.2   230  PHE230      0.2264
     55  O         -9.2390   25.8340   45.7640 O.2   230  PHE230     -0.2867
     56  CB        -9.0160   26.8090   48.5780 C.3   230  PHE230      0.0534
     57  CG        -8.8820   28.0840   49.3590 C.ar  230  PHE230     -0.0203
     58  CD1       -8.3810   29.2300   48.7410 C.ar  230  PHE230     -0.0042
     59  CD2       -9.3600   28.1760   50.6570 C.ar  230  PHE230     -0.0042
     60  CE1       -8.3250   30.4360   49.4200 C.ar  230  PHE230     -0.0003
     61  CE2       -9.2900   29.3790   51.3470 C.ar  230  PHE230     -0.0003
     62  CZ        -8.7670   30.5140   50.7320 C.ar  230  PHE230     -0.0000
     63  N        -11.7320   27.9060   54.4760 N.3   237  MET237     -0.1245
     64  CA       -11.7830   28.7590   55.6470 C.3   237  MET237      0.1570
     65  C        -13.2530   28.8230   55.9840 C.2   237  MET237      0.2261
     66  O        -14.0790   28.8640   55.0790 O.2   237  MET237     -0.2867
     67  CB       -11.2160   30.1490   55.3630 C.3   237  MET237      0.0387
     68  CG        -9.6960   30.1810   55.2250 C.3   237  MET237      0.0595
     69  SD        -9.0820   31.6810   54.4160 S.3   237  MET237     -0.1393
     70  CE        -9.7360   33.0070   55.4030 C.3   237  MET237      0.0692
     71  N         -7.2140   41.1750   58.9540 N.3   270  ASP270     -0.1225
     72  CA        -7.8530   41.1740   57.6330 C.3   270  ASP270      0.1805
     73  C         -9.3020   40.6420   57.6760 C.2   270  ASP270      0.2598
     74  O         -9.7680   40.1790   58.7040 O.2   270  ASP270     -0.2718
     75  CB        -7.0190   40.2860   56.7080 C.3   270  ASP270      0.1424
     76  CG        -7.2010   40.5980   55.2280 C.2   270  ASP270      0.3668
     77  OD1       -7.7090   41.6780   54.8360 O.co2 270  ASP270     -0.2456
     78  OD2       -6.8310   39.7080   54.4450 O.co2 270  ASP270     -0.2456
     79  N        -10.0030   40.7370   56.5500 N.am  271  GLN271     -0.1965
     80  CA       -11.3510   40.1990   56.3890 C.3   271  GLN271      0.1733
     81  C        -11.5990   40.0220   54.9140 C.2   271  GLN271      0.2616
     82  O        -10.8400   40.5660   54.1160 O.2   271  GLN271     -0.2715
     83  CB       -12.3850   41.1910   56.9210 C.3   271  GLN271      0.0408
     84  CG       -12.1890   42.6160   56.3920 C.3   271  GLN271      0.0908
     85  CD       -13.4790   43.3060   56.0630 C.2   271  GLN271      0.2608
     86  OE1      -14.4060   42.6580   55.6140 O.2   271  GLN271     -0.2717
     87  NE2      -13.5270   44.6380   56.2180 N.am  271  GLN271     -0.0878
     88  N        -12.6790   39.3190   54.5520 N.am  272  MET272     -0.1977
     89  CA       -13.0210   39.0820   53.1430 C.3   272  MET272      0.1605
     90  C        -13.7740   40.2520   52.4970 C.2   272  MET272      0.2287
     91  O        -13.8270   40.3370   51.2870 O.2   272  MET272     -0.2864
     92  CB       -13.8580   37.8020   52.9560 C.3   272  MET272      0.0413
     93  CG       -13.3230   36.5330   53.6060 C.3   272  MET272      0.0598
     94  SD       -11.7170   36.0170   52.9870 S.3   272  MET272     -0.1393
     95  CE       -12.0170   35.5940   51.2720 C.3   272  MET272      0.0692
     96  N         -8.4510   45.8510   57.9210 N.3   316  ASN316     -0.1240
     97  CA        -8.6070   46.1590   56.5050 C.3   316  ASN316      0.1653
     98  C        -10.0580   46.5120   56.2240 C.2   316  ASN316      0.2266
     99  O        -10.9410   45.6640   56.3630 O.2   316  ASN316     -0.2867
    100  CB        -8.1810   44.9660   55.6550 C.3   316  ASN316      0.1155
    101  CG        -8.2800   45.2490   54.1750 C.2   316  ASN316      0.2627
    102  OD1       -8.4360   46.3880   53.7670 O.2   316  ASN316     -0.2716
    103  ND2       -8.1950   44.2170   53.3700 N.am  316  ASN316     -0.0877
    104  N        -12.1970   46.6720   53.5120 N.3   318  VAL318     -0.1245
    105  CA       -12.1570   46.1170   52.1640 C.3   318  VAL318      0.1561
    106  C        -13.1050   46.8970   51.2520 C.2   318  VAL318      0.2260
    107  O        -14.1880   47.2670   51.6930 O.2   318  VAL318     -0.2867
    108  CB       -12.5250   44.6310   52.1970 C.3   318  VAL318      0.0252
    109  CG1      -12.6950   44.0400   50.8140 C.3   318  VAL318      0.0019
    110  CG2      -11.4490   43.8720   52.9490 C.3   318  VAL318      0.0019
    111  N         -6.2950   51.3460   57.4150 N.3   340  TYR340     -0.1241
    112  CA        -5.8760   50.5480   56.2810 C.3   340  TYR340      0.1605
    113  C         -7.0860   50.1920   55.4890 C.2   340  TYR340      0.2264
    114  O         -8.0980   49.7590   56.0810 O.2   340  TYR340     -0.2867
    115  CB        -5.2480   49.2650   56.7720 C.3   340  TYR340      0.0534
    116  CG        -4.5800   48.3890   55.7240 C.ar  340  TYR340     -0.0201
    117  CD1       -5.3010   47.4480   54.9980 C.ar  340  TYR340     -0.0009
    118  CD2       -3.2100   48.4530   55.5300 C.ar  340  TYR340     -0.0009
    119  CE1       -4.6840   46.6000   54.1150 C.ar  340  TYR340      0.0417
    120  CE2       -2.5760   47.6170   54.6300 C.ar  340  TYR340      0.0417
    121  CZ        -3.3130   46.6790   53.9130 C.ar  340  TYR340      0.1957
    122  OH        -2.6320   45.8290   53.0230 O.3   340  TYR340     -0.2866
    123  N         -8.2090   48.4980   51.4180 N.3   342  GLU342     -0.1245
    124  CA        -7.8540   47.8710   50.1460 C.3   342  GLU342      0.1567
    125  C         -8.8560   48.4060   49.1560 C.2   342  GLU342      0.2260
    126  O        -10.0620   48.3370   49.4010 O.2   342  GLU342     -0.2867
    127  CB        -7.9800   46.3620   50.2680 C.3   342  GLU342      0.0388
    128  CG        -7.5770   45.5480   49.0580 C.3   342  GLU342      0.1160
    129  CD        -7.8010   44.0790   49.3390 C.2   342  GLU342      0.3649
    130  OE1       -8.8630   43.7940   49.9580 O.co2 342  GLU342     -0.2457
    131  OE2       -6.9490   43.2130   48.9680 O.co2 342  GLU342     -0.2457
    132  N        -10.6730   48.6370   45.6280 N.3   344  TRP344     -0.1241
    133  CA       -11.0580   47.8660   44.4730 C.3   344  TRP344      0.1605
    134  C        -11.6890   48.7590   43.3850 C.2   344  TRP344      0.2264
    135  O        -10.9580   49.5090   42.7380 O.2   344  TRP344     -0.2867
    136  CB       -11.9080   46.7000   44.9110 C.3   344  TRP344      0.0550
    137  CG       -11.1360   45.6050   45.5560 C.ar  344  TRP344      0.0003
    138  CD1      -11.3420   45.0880   46.8070 C.ar  344  TRP344      0.0946
    139  CD2      -10.0660   44.8610   44.9960 C.ar  344  TRP344      0.0152
    140  NE1      -10.4550   44.0700   47.0570 N.ar  344  TRP344     -0.2442
    141  CE2       -9.6710   43.8960   45.9590 C.ar  344  TRP344      0.0810
    142  CE3       -9.3810   44.9200   43.7910 C.ar  344  TRP344      0.0012
    143  CZ2       -8.6400   42.9860   45.7420 C.ar  344  TRP344      0.0191
    144  CZ3       -8.3340   43.9930   43.5670 C.ar  344  TRP344      0.0001
    145  CH2       -7.9840   43.0450   44.5430 C.ar  344  TRP344      0.0015
    146  N         -3.5860   47.6470   44.2780 N.3   374  TYR374     -0.1241
    147  CA        -2.6590   46.8100   43.5180 C.3   374  TYR374      0.1605
    148  C         -2.5900   47.3500   42.0910 C.2   374  TYR374      0.2264
    149  O         -3.5550   47.2510   41.3220 O.2   374  TYR374     -0.2867
    150  CB        -3.0470   45.3160   43.5520 C.3   374  TYR374      0.0534
    151  CG        -3.4790   44.8260   44.9260 C.ar  374  TYR374     -0.0201
    152  CD1       -2.6510   44.9740   46.0060 C.ar  374  TYR374     -0.0009
    153  CD2       -4.7450   44.2520   45.1430 C.ar  374  TYR374     -0.0009
    154  CE1       -3.0320   44.5680   47.2650 C.ar  374  TYR374      0.0417
    155  CE2       -5.1460   43.8740   46.4040 C.ar  374  TYR374      0.0417
    156  CZ        -4.2590   44.0350   47.4610 C.ar  374  TYR374      0.1957
    157  OH        -4.5770   43.6880   48.7360 O.3   374  TYR374     -0.2866
    158  N         -3.4970   40.5020   45.1750 N.3   542  GLU542     -0.1231
    159  CA        -3.8130   40.5110   46.5950 C.3   542  GLU542      0.1699
    160  C         -3.1890   39.3660   47.3860 C.2   542  GLU542      0.2592
    161  O         -3.1800   39.3950   48.6040 O.2   542  GLU542     -0.2718
    162  CB        -5.3430   40.4930   46.7880 C.3   542  GLU542      0.0402
    163  CG        -6.0930   39.2130   46.3450 C.3   542  GLU542      0.1161
    164  CD        -6.6370   39.2700   44.9210 C.2   542  GLU542      0.3649
    165  OE1       -6.0860   40.0380   44.0810 O.co2 542  GLU542     -0.2457
    166  OE2       -7.6080   38.5120   44.6470 O.co2 542  GLU542     -0.2457
    167  N         -2.7750   38.3230   46.6830 N.am  543  TYR543     -0.1962
    168  CA        -2.0260   37.2250   47.2230 C.3   543  TYR543      0.1771
    169  C         -0.5880   37.6710   47.0830 C.2   543  TYR543      0.2619
    170  O         -0.0530   37.6450   46.0020 O.2   543  TYR543     -0.2715
    171  CB        -2.2700   35.9440   46.4110 C.3   543  TYR543      0.0574
    172  CG        -1.5090   34.7530   46.9510 C.ar  543  TYR543     -0.0198
    173  CD1       -1.7530   34.2750   48.2420 C.ar  543  TYR543     -0.0009
    174  CD2       -0.5360   34.1280   46.1960 C.ar  543  TYR543     -0.0009
    175  CE1       -1.0800   33.1870   48.7510 C.ar  543  TYR543      0.0417
    176  CE2        0.1550   33.0350   46.7060 C.ar  543  TYR543      0.0417
    177  CZ        -0.1130   32.5680   47.9990 C.ar  543  TYR543      0.1957
    178  OH         0.5940   31.4900   48.5090 O.3   543  TYR543     -0.2866
    179  N          0.0130   38.1160   48.1870 N.am  544  TYR544     -0.1974
    180  CA         1.2660   38.8930   48.1370 C.3   544  TYR544      0.1639
    181  C          2.4140   38.1920   47.4430 C.2   544  TYR544      0.2290
    182  O          3.2090   38.8640   46.7760 O.2   544  TYR544     -0.2864
    183  CB         1.6950   39.3520   49.5440 C.3   544  TYR544      0.0560
    184  CG         0.8780   40.4650   50.1750 C.ar  544  TYR544     -0.0198
    185  CD1       -0.4230   40.7720   49.7430 C.ar  544  TYR544     -0.0009
    186  CD2        1.4170   41.2160   51.2120 C.ar  544  TYR544     -0.0009
    187  CE1       -1.1770   41.7820   50.3540 C.ar  544  TYR544      0.0417
    188  CE2        0.6800   42.2390   51.8220 C.ar  544  TYR544      0.0417
    189  CZ        -0.6250   42.5150   51.3920 C.ar  544  TYR544      0.1957
    190  OH        -1.3550   43.5130   51.9980 O.3   544  TYR544     -0.2866
@<TRIPOS>BOND
     1   149   148    2
     2   148   147    1
     3   135   134    2
     4   134   133    1
     5   147   150    1
     6   147   146    1
     7   150   151    1
     8   144   142   ar
     9   144   145   ar
    10   142   139   ar
    11   165   164   ar
    12   133   136    1
    13   133   132    1
    14   145   143   ar
    15   166   164   ar
    16   136   137    1
    17   164   163    1
    18   151   153   ar
    19   151   152   ar
    20   139   137   ar
    21   139   141   ar
    22   153   155   ar
    23   158   159    1
    24   137   138   ar
    25   143   141   ar
    26    55    54    2
    27   141   140   ar
    28   170   169    2
    29   152   154   ar
    30   174   176   ar
    31   174   172   ar
    32   163   162    1
    33   155   156   ar
    34   171   172    1
    35   171   168    1
    36    54    53    1
    37   159   162    1
    38   159   160    1
    39   167   168    1
    40   167   160   am
    41   176   177   ar
    42   182   181    2
    43   138   140   ar
    44   172   173   ar
    45   169   168    1
    46   169   179   am
    47   154   156   ar
    48   160   161    2
    49   181   180    1
    50   156   157    1
    51    53    52    1
    52    53    56    1
    53   177   178    1
    54   177   175   ar
    55   180   179    1
    56   180   183    1
    57   173   175   ar
    58    56    57    1
    59    58    57   ar
    60    58    60   ar
    61   131   129   ar
    62   128   129    1
    63   128   127    1
    64   125   126    2
    65   125   124    1
    66   129   130   ar
    67    57    59   ar
    68    60    62   ar
    69   183   184    1
    70   185   184   ar
    71   185   187   ar
    72   124   127    1
    73   124   123    1
    74   184   186   ar
    75   187   189   ar
    76    59    61   ar
    77    62    61   ar
    78    21    20    1
    79   109   108    1
    80   186   188   ar
    81   106   107    2
    82   106   105    1
    83    95    94    1
    84    91    90    2
    85    19    20   ar
    86    19    17   ar
    87   189   188   ar
    88   189   190    1
    89    20    18   ar
    90    17    15   ar
    91   105   108    1
    92   105   104    1
    93   108   110    1
    94    18    16   ar
    95    90    89    1
    96    15    16   ar
    97    15    14    1
    98    92    89    1
    99    92    93    1
   100    94    93    1
   101   122   121    1
   102    89    88    1
   103   103   101   am
   104    14    11    1
   105   102   101    2
   106   121   119   ar
   107   121   120   ar
   108   119   117   ar
   109    82    81    2
   110   101   100    1
   111    13    12    2
   112    69    68    1
   113    69    70    1
   114    78    76   ar
   115    63    64    1
   116    88    81   am
   117   120   118   ar
   118    77    76   ar
   119    81    80    1
   120     9     7   am
   121   117   116   ar
   122    12    11    1
   123     8     7    2
   124    66    65    2
   125    11    10    1
   126    43    42    1
   127    68    67    1
   128    76    75    1
   129    51    50    1
   130    67    64    1
   131     7     6    1
   132   113   114    2
   133   113   112    1
   134   118   116   ar
   135    86    85    2
   136    64    65    1
   137   100    97    1
   138    40    42   ar
   139    40    38   ar
   140   116   115    1
   141     4     3    2
   142    42    41   ar
   143    85    87   am
   144    85    84    1
   145    30    31   ar
   146    30    28   ar
   147    98    99    2
   148    98    97    1
   149   112   115    1
   150   112   111    1
   151     5     6    1
   152     5     2    1
   153    80    79    1
   154    80    83    1
   155    84    83    1
   156    38    37   ar
   157    31    29   ar
   158    97    96    1
   159    79    73   am
   160    41    39   ar
   161    75    72    1
   162     3     2    1
   163    50    49    1
   164     1     2    1
   165    37    39   ar
   166    37    36    1
   167    28    27   ar
   168    72    73    1
   169    72    71    1
   170    73    74    2
   171    49    48    1
   172    29    27   ar
   173    36    33    1
   174    27    26    1
   175    48    45    1
   176    33    32    1
   177    33    34    1
   178    26    23    1
   179    45    44    1
   180    45    46    1
   181    34    35    2
   182    22    23    1
   183    23    24    1
   184    46    47    2
   185    24    25    2
