@<TRIPOS>MOLECULE
tmp/5x7mA00.pdb
 147 142 0 0 0
SMALL
GASTEIGER

@<TRIPOS>ATOM
      1  N         19.4830  -25.8600  -27.7570 N.3    71  ALA71      -0.1245
      2  CA        18.5430  -25.5860  -26.6480 C.3    71  ALA71       0.1562
      3  C         17.2600  -26.3940  -26.8200 C.2    71  ALA71       0.2260
      4  O         16.3470  -25.9730  -27.5430 O.2    71  ALA71      -0.2867
      5  CB        18.2430  -24.0920  -26.5970 C.3    71  ALA71       0.0290
      6  N         14.6030  -26.9120  -25.2030 N.3    73  LYS73      -0.1245
      7  CA        13.3190  -26.2210  -25.0160 C.3    73  LYS73       0.1561
      8  C         12.5900  -25.8030  -26.3140 C.2    73  LYS73       0.2260
      9  O         11.3820  -25.8570  -26.3790 O.2    73  LYS73      -0.2867
     10  CB        13.4750  -25.0470  -24.0740 C.3    73  LYS73       0.0271
     11  CG        14.4440  -24.0350  -24.5810 C.3    73  LYS73       0.0035
     12  CD        14.4810  -22.8370  -23.6820 C.3    73  LYS73       0.0206
     13  CE        15.4320  -21.8320  -24.2990 C.3    73  LYS73       0.1093
     14  NZ        14.9890  -20.3850  -24.2370 N.3    73  LYS73      -0.1314
     15  N         21.6160  -28.7280  -24.4280 N.3    92  ASP92      -0.1239
     16  CA        21.2710  -28.1560  -23.1480 C.3    92  ASP92       0.1674
     17  C         19.8370  -28.5240  -22.8090 C.2    92  ASP92       0.2266
     18  O         18.9670  -28.4620  -23.6620 O.2    92  ASP92      -0.2867
     19  CB        21.6500  -26.6860  -23.0090 C.3    92  ASP92       0.1410
     20  CG        20.6390  -25.7770  -23.5530 C.2    92  ASP92       0.3668
     21  OD1       20.8170  -25.4840  -24.7350 O.co2  92  ASP92      -0.2456
     22  OD2       19.6960  -25.3290  -22.8310 O.co2  92  ASP92      -0.2456
     23  N         20.1860  -27.0170  -17.2740 N.3   115  HIS115     -0.1241
     24  CA        19.6880  -25.7660  -16.7230 C.3   115  HIS115      0.1621
     25  C         18.4530  -26.0070  -15.9240 C.2   115  HIS115      0.2264
     26  O         17.8870  -27.0880  -15.9780 O.2   115  HIS115     -0.2867
     27  CB        19.3100  -24.7810  -17.8150 C.3   115  HIS115      0.0745
     28  CG        20.4430  -24.3880  -18.6810 C.ar  115  HIS115      0.0817
     29  ND1       21.2350  -23.2900  -18.4190 N.ar  115  HIS115     -0.2268
     30  CD2       20.9370  -24.9630  -19.7990 C.ar  115  HIS115      0.1154
     31  CE1       22.1570  -23.1930  -19.3660 C.ar  115  HIS115      0.1986
     32  NE2       21.9960  -24.1980  -20.2120 N.ar  115  HIS115     -0.2212
     33  N         25.2290  -19.1390  -13.5690 N.3   162  ARG162     -0.1245
     34  CA        24.4910  -18.1510  -14.3590 C.3   162  ARG162      0.1563
     35  C         24.5630  -16.7400  -13.8050 C.2   162  ARG162      0.2260
     36  O         24.2570  -16.5390  -12.6530 O.2   162  ARG162     -0.2867
     37  CB        23.0200  -18.5050  -14.4480 C.3   162  ARG162      0.0307
     38  CG        22.2880  -17.5080  -15.3300 C.3   162  ARG162      0.0489
     39  CD        21.2200  -18.1680  -16.1480 C.3   162  ARG162      0.2205
     40  NE        20.5480  -17.1300  -16.8840 N.pl3 162  ARG162     -0.0865
     41  CZ        19.5090  -17.3080  -17.6680 C.cat 162  ARG162      0.5346
     42  NH1       19.0290  -18.5150  -17.8550 N.pl3 162  ARG162      0.1354
     43  NH2       18.9690  -16.2420  -18.2870 N.pl3 162  ARG162      0.1354
     44  N         16.2840  -15.7810  -12.7040 N.3   184  PHE184     -0.1241
     45  CA        17.4240  -16.6420  -12.9280 C.3   184  PHE184      0.1605
     46  C         18.7130  -16.0610  -12.3310 C.2   184  PHE184      0.2264
     47  O         18.9320  -14.8450  -12.3370 O.2   184  PHE184     -0.2867
     48  CB        17.6420  -16.8370  -14.4070 C.3   184  PHE184      0.0534
     49  CG        16.5220  -17.4910  -15.1180 C.ar  184  PHE184     -0.0203
     50  CD1       16.2480  -18.8500  -14.9220 C.ar  184  PHE184     -0.0042
     51  CD2       15.8050  -16.7940  -16.0990 C.ar  184  PHE184     -0.0042
     52  CE1       15.2280  -19.4900  -15.6480 C.ar  184  PHE184     -0.0003
     53  CE2       14.8110  -17.4230  -16.8450 C.ar  184  PHE184     -0.0003
     54  CZ        14.5110  -18.7650  -16.6060 C.ar  184  PHE184     -0.0000
     55  N         27.8830  -18.3420  -17.1690 N.3   212  HIS212     -0.1241
     56  CA        26.8670  -18.4290  -18.1890 C.3   212  HIS212      0.1621
     57  C         26.0180  -17.1640  -18.1290 C.2   212  HIS212      0.2264
     58  O         25.7780  -16.6130  -17.0420 O.2   212  HIS212     -0.2867
     59  CB        26.0020  -19.6430  -17.9430 C.3   212  HIS212      0.0745
     60  CG        24.8440  -19.7380  -18.8660 C.ar  212  HIS212      0.0817
     61  ND1       23.6860  -19.0310  -18.6650 N.ar  212  HIS212     -0.2268
     62  CD2       24.6710  -20.4340  -20.0110 C.ar  212  HIS212      0.1154
     63  CE1       22.8480  -19.2870  -19.6590 C.ar  212  HIS212      0.1986
     64  NE2       23.4270  -20.1290  -20.4930 N.ar  212  HIS212     -0.2212
     65  N         22.3990  -15.5440  -20.4650 N.3   214  HIS214     -0.1241
     66  CA        21.4720  -15.5720  -21.5740 C.3   214  HIS214      0.1621
     67  C         20.8080  -14.1920  -21.5560 C.2   214  HIS214      0.2264
     68  O         20.1680  -13.8250  -20.5840 O.2   214  HIS214     -0.2867
     69  CB        20.4730  -16.6840  -21.4120 C.3   214  HIS214      0.0745
     70  CG        19.4830  -16.7550  -22.5180 C.ar  214  HIS214      0.0817
     71  ND1       19.8180  -17.2020  -23.7690 N.ar  214  HIS214     -0.2268
     72  CD2       18.1800  -16.4140  -22.5790 C.ar  214  HIS214      0.1154
     73  CE1       18.7710  -17.1410  -24.5610 C.ar  214  HIS214      0.1986
     74  NE2       17.7560  -16.6850  -23.8570 N.ar  214  HIS214     -0.2212
     75  N         19.5490  -12.5800  -24.7970 N.3   216  GLY216     -0.1210
     76  CA        19.0750  -12.2160  -26.0990 C.3   216  GLY216      0.1956
     77  C         17.7670  -12.8830  -26.4390 C.2   216  GLY216      0.2612
     78  O         17.5020  -13.9880  -26.0210 O.2   216  GLY216     -0.2717
     79  N         16.9910  -12.2220  -27.2710 N.am  217  SER217     -0.1952
     80  CA        15.9120  -12.8790  -27.9780 C.3   217  SER217      0.1924
     81  C         15.7620  -12.2740  -29.3810 C.2   217  SER217      0.2314
     82  O         15.6690  -11.0490  -29.5170 O.2   217  SER217     -0.2863
     83  CB        14.6190  -12.7530  -27.1850 C.3   217  SER217      0.2116
     84  OG        13.7150  -13.7620  -27.6180 O.3   217  SER217     -0.2180
     85  N         21.8040  -18.4560  -25.8270 N.3   254  GLY254     -0.1210
     86  CA        21.2000  -18.2790  -27.1340 C.3   254  GLY254      0.1956
     87  C         20.5980  -16.8990  -27.3920 C.2   254  GLY254      0.2612
     88  O         21.1450  -15.8710  -26.9850 O.2   254  GLY254     -0.2717
     89  N         19.4690  -16.9060  -28.0970 N.am  255  GLY255     -0.1942
     90  CA        18.7260  -15.6780  -28.4660 C.3   255  GLY255      0.2014
     91  C         18.9550  -15.2530  -29.9080 C.2   255  GLY255      0.2638
     92  O         18.6040  -14.1450  -30.2870 O.2   255  GLY255     -0.2714
     93  N         19.5360  -16.1280  -30.7100 N.am  256  TYR256     -0.1973
     94  CA        19.8540  -15.8080  -32.0920 C.3   256  TYR256      0.1639
     95  C         18.5760  -15.9200  -32.8950 C.2   256  TYR256      0.2290
     96  O         17.7840  -16.8550  -32.6990 O.2   256  TYR256     -0.2864
     97  CB        20.9010  -16.7560  -32.6400 C.3   256  TYR256      0.0560
     98  CG        22.2270  -16.5560  -32.0000 C.ar  256  TYR256     -0.0198
     99  CD1       22.5560  -17.2130  -30.8200 C.ar  256  TYR256     -0.0009
    100  CD2       23.1440  -15.6610  -32.5470 C.ar  256  TYR256     -0.0009
    101  CE1       23.7690  -17.0000  -30.2070 C.ar  256  TYR256      0.0417
    102  CE2       24.3660  -15.4460  -31.9530 C.ar  256  TYR256      0.0417
    103  CZ        24.6730  -16.1270  -30.7950 C.ar  256  TYR256      0.1957
    104  OH        25.8780  -15.9040  -30.1990 O.3   256  TYR256     -0.2866
    105  N         24.2010  -21.3040  -27.1410 N.3   297  GLU297     -0.1231
    106  CA        23.0430  -22.1840  -26.8650 C.3   297  GLU297      0.1684
    107  C         21.8380  -21.8040  -27.7010 C.2   297  GLU297      0.2434
    108  O         20.8000  -21.5100  -27.1520 O.2   297  GLU297     -0.2733
    109  CB        22.6870  -22.1750  -25.3710 C.3   297  GLU297      0.0402
    110  CG        23.8140  -22.6820  -24.4650 C.3   297  GLU297      0.1161
    111  CD        23.5760  -22.4660  -22.9780 C.2   297  GLU297      0.3649
    112  OE1       22.9070  -21.4580  -22.6010 O.co2 297  GLU297     -0.2457
    113  OE2       24.0970  -23.3070  -22.1900 O.co2 297  GLU297     -0.2457
    114  N         21.9820  -21.8210  -29.0390 N.am  298  PRO298     -0.2718
    115  CA        20.8460  -21.5600  -29.9030 C.3   298  PRO298      0.1535
    116  C         19.8100  -22.5900  -29.7690 C.2   298  PRO298      0.2599
    117  O         20.1390  -23.7700  -29.6520 O.2   298  PRO298     -0.2715
    118  CB        21.4070  -21.6480  -31.3430 C.3   298  PRO298      0.0310
    119  CG        22.6980  -22.3330  -31.2160 C.3   298  PRO298      0.0237
    120  CD        23.2050  -22.0790  -29.8110 C.3   298  PRO298      0.0939
    121  N         18.5660  -22.1370  -29.7740 N.am  299  GLY299     -0.1941
    122  CA        17.4290  -22.9820  -29.9690 C.3   299  GLY299      0.2014
    123  C         16.6480  -22.6550  -31.2040 C.2   299  GLY299      0.2638
    124  O         16.6000  -23.4160  -32.1300 O.2   299  GLY299     -0.2714
    125  N         16.0090  -21.5060  -31.1800 N.am  300  ARG300     -0.1977
    126  CA        15.2160  -21.0200  -32.2910 C.3   300  ARG300      0.1597
    127  C         15.9440  -21.1240  -33.6290 C.2   300  ARG300      0.2287
    128  O         15.3340  -21.5480  -34.6580 O.2   300  ARG300     -0.2864
    129  CB        14.8240  -19.5680  -32.0160 C.3   300  ARG300      0.0334
    130  CG        13.7560  -19.0380  -32.9240 C.3   300  ARG300      0.0492
    131  CD        13.6800  -17.5320  -32.8200 C.3   300  ARG300      0.2205
    132  NE        13.3790  -17.1250  -31.4530 N.pl3 300  ARG300     -0.0865
    133  CZ        12.1680  -17.1490  -30.9050 C.cat 300  ARG300      0.5346
    134  NH1       11.1050  -17.5700  -31.5920 N.pl3 300  ARG300      0.1354
    135  NH2       12.0310  -16.8080  -29.6440 N.pl3 300  ARG300      0.1354
    136  N          9.4480  -23.6830  -30.3620 N.3   402  TYR402     -0.1241
    137  CA         8.4690  -23.2920  -29.3650 C.3   402  TYR402      0.1605
    138  C          7.0350  -23.6900  -29.6840 C.2   402  TYR402      0.2264
    139  O          6.3270  -24.0280  -28.7360 O.2   402  TYR402     -0.2867
    140  CB         8.6590  -21.8180  -28.9330 C.3   402  TYR402      0.0534
    141  CG        10.0710  -21.6360  -28.4250 C.ar  402  TYR402     -0.0201
    142  CD1       10.4970  -22.2890  -27.2760 C.ar  402  TYR402     -0.0009
    143  CD2       11.0150  -20.9370  -29.1510 C.ar  402  TYR402     -0.0009
    144  CE1       11.8010  -22.2120  -26.8380 C.ar  402  TYR402      0.0417
    145  CE2       12.3250  -20.8340  -28.7180 C.ar  402  TYR402      0.0417
    146  CZ        12.7200  -21.4830  -27.5660 C.ar  402  TYR402      0.1957
    147  OH        14.0270  -21.3910  -27.1190 O.3   402  TYR402     -0.2866
@<TRIPOS>BOND
     1   128   127    2
     2   127   126    1
     3   130   131    1
     4   130   129    1
     5    95    96    2
     6    95    94    1
     7   131   132    1
     8    97    94    1
     9    97    98    1
    10   100    98   ar
    11   100   102   ar
    12   126   129    1
    13   126   125    1
    14   124   123    2
    15    94    93    1
    16    98    99   ar
    17   102   103   ar
    18   134   133    1
    19   132   133    2
    20   118   119    1
    21   118   115    1
    22   119   120    1
    23   123   125   am
    24   123   122    1
    25   133   135    1
    26    99   101   ar
    27   103   101   ar
    28   103   104    1
    29    93    91   am
    30   136   137    1
    31    92    91    2
    32   122   121    1
    33    91    90    1
    34   115   116    1
    35   115   114    1
    36   120   114    1
    37   121   116   am
    38   116   117    2
    39   138   137    1
    40   138   139    2
    41    82    81    2
    42    81    80    1
    43   137   140    1
    44   143   145   ar
    45   143   141   ar
    46   114   107   am
    47   140   141    1
    48   145   146   ar
    49    90    89    1
    50   141   142   ar
    51    89    87   am
    52    80    79    1
    53    80    83    1
    54     1     2    1
    55   107   108    2
    56   107   106    1
    57    84    83    1
    58   146   147    1
    59   146   144   ar
    60     4     3    2
    61    87    86    1
    62    87    88    2
    63   142   144   ar
    64    79    77   am
    65   105   106    1
    66    86    85    1
    67   106   109    1
    68     3     2    1
    69     2     5    1
    70    77    76    1
    71    77    78    2
    72     9     8    2
    73     8     7    1
    74    76    75    1
    75   109   110    1
    76     6     7    1
    77     7    10    1
    78    21    20   ar
    79    11    10    1
    80    11    12    1
    81    73    74   ar
    82    73    71   ar
    83   110   111    1
    84    15    16    1
    85    13    14    1
    86    13    12    1
    87    74    72   ar
    88    71    70   ar
    89    18    17    2
    90    20    19    1
    91    20    22   ar
    92    16    19    1
    93    16    17    1
    94   111   112   ar
    95   111   113   ar
    96    72    70   ar
    97    70    69    1
    98    66    67    1
    99    66    69    1
   100    66    65    1
   101    67    68    2
   102    64    62   ar
   103    64    63   ar
   104    32    30   ar
   105    32    31   ar
   106    62    60   ar
   107    30    28   ar
   108    63    61   ar
   109    31    29   ar
   110    60    61   ar
   111    60    59    1
   112    28    29   ar
   113    28    27    1
   114    43    41    1
   115    56    57    1
   116    56    59    1
   117    56    55    1
   118    57    58    2
   119    42    41    1
   120    27    24    1
   121    41    40    2
   122    23    24    1
   123    40    39    1
   124    53    54   ar
   125    53    51   ar
   126    24    25    1
   127    54    52   ar
   128    39    38    1
   129    51    49   ar
   130    26    25    2
   131    52    50   ar
   132    38    37    1
   133    49    50   ar
   134    49    48    1
   135    37    34    1
   136    48    45    1
   137    34    35    1
   138    34    33    1
   139    35    36    2
   140    45    44    1
   141    45    46    1
   142    47    46    2
