@<TRIPOS>MOLECULE
tmp/5x7uA00.pdb
 130 123 0 0 0
SMALL
GASTEIGER

@<TRIPOS>ATOM
      1  N         68.3020   -1.9510    7.9400 N.3    59  ASP59      -0.1239
      2  CA        67.5010   -0.7650    8.2320 C.3    59  ASP59       0.1674
      3  C         66.5320   -1.0790    9.3660 C.2    59  ASP59       0.2266
      4  O         65.3290   -0.8080    9.3010 O.2    59  ASP59      -0.2867
      5  CB        66.7340   -0.2470    7.0180 C.3    59  ASP59       0.1410
      6  CG        66.1060    1.1160    7.2830 C.2    59  ASP59       0.3668
      7  OD1       66.6350    1.8130    8.1840 O.co2  59  ASP59      -0.2456
      8  OD2       65.1010    1.4910    6.6230 O.co2  59  ASP59      -0.2456
      9  N         63.1430   -2.8730    8.5510 N.3    62  TYR62      -0.1241
     10  CA        62.3310   -2.3570    7.4560 C.3    62  TYR62       0.1605
     11  C         62.8780   -2.7740    6.0940 C.2    62  TYR62       0.2264
     12  O         62.4410   -2.2340    5.0700 O.2    62  TYR62      -0.2867
     13  CB        62.2350   -0.8230    7.5340 C.3    62  TYR62       0.0534
     14  CG        61.3450   -0.2940    8.6540 C.ar   62  TYR62      -0.0201
     15  CD1       59.9800   -0.0930    8.4510 C.ar   62  TYR62      -0.0009
     16  CD2       61.8760    0.0030    9.9160 C.ar   62  TYR62      -0.0009
     17  CE1       59.1610    0.3810    9.4720 C.ar   62  TYR62       0.0417
     18  CE2       61.0710    0.4820   10.9430 C.ar   62  TYR62       0.0417
     19  CZ        59.7150    0.6680   10.7190 C.ar   62  TYR62       0.1957
     20  OH        58.9160    1.1370   11.7390 O.3    62  TYR62      -0.2866
     21  N         55.3250   -3.0800    5.3340 N.3    99  VAL99      -0.1245
     22  CA        56.3410   -2.3650    4.5740 C.3    99  VAL99       0.1561
     23  C         56.0580   -2.5770    3.0870 C.2    99  VAL99       0.2260
     24  O         56.7790   -3.2910    2.3750 O.2    99  VAL99      -0.2867
     25  CB        57.7510   -2.7870    5.0120 C.3    99  VAL99       0.0252
     26  CG1       58.7960   -1.8540    4.4250 C.3    99  VAL99       0.0019
     27  CG2       57.8320   -2.7470    6.5390 C.3    99  VAL99       0.0019
     28  N         58.8150   -1.5940   -0.5600 N.3   102  HIS102     -0.1241
     29  CA        60.1290   -2.1080   -0.9220 C.3   102  HIS102      0.1621
     30  C         60.4000   -3.3580   -0.1010 C.2   102  HIS102      0.2264
     31  O         59.7250   -3.6180    0.8940 O.2   102  HIS102     -0.2867
     32  CB        61.2030   -1.0690   -0.6490 C.3   102  HIS102      0.0745
     33  CG        61.1680   -0.5730    0.7580 C.ar  102  HIS102      0.0817
     34  ND1       60.3250    0.4390    1.1640 N.ar  102  HIS102     -0.2268
     35  CD2       61.8180   -0.9950    1.8690 C.ar  102  HIS102      0.1154
     36  CE1       60.4780    0.6370    2.4610 C.ar  102  HIS102      0.1986
     37  NE2       61.3720   -0.2250    2.9140 N.ar  102  HIS102     -0.2212
     38  N         67.4930    9.4270    1.9840 N.3   141  PHE141     -0.1241
     39  CA        68.6660    9.1990    2.8270 C.3   141  PHE141      0.1605
     40  C         69.8810    9.9050    2.2230 C.2   141  PHE141      0.2264
     41  O         70.8780    9.2840    1.8540 O.2   141  PHE141     -0.2867
     42  CB        68.9250    7.7080    3.0070 C.3   141  PHE141      0.0534
     43  CG        67.9080    6.9940    3.8660 C.ar  141  PHE141     -0.0203
     44  CD1       67.1340    7.6860    4.7960 C.ar  141  PHE141     -0.0042
     45  CD2       67.7340    5.6120    3.7480 C.ar  141  PHE141     -0.0042
     46  CE1       66.2010    7.0180    5.5880 C.ar  141  PHE141     -0.0003
     47  CE2       66.8060    4.9430    4.5250 C.ar  141  PHE141     -0.0003
     48  CZ        66.0350    5.6520    5.4550 C.ar  141  PHE141     -0.0000
     49  N         64.7890    4.3100   -0.4960 N.3   163  PHE163     -0.1241
     50  CA        65.5740    4.2900    0.7020 C.3   163  PHE163      0.1605
     51  C         66.9300    3.7410    0.4530 C.2   163  PHE163      0.2264
     52  O         67.5430    4.1080   -0.4880 O.2   163  PHE163     -0.2867
     53  CB        64.8170    3.5870    1.8050 C.3   163  PHE163      0.0534
     54  CG        63.5240    4.2400    2.0970 C.ar  163  PHE163     -0.0203
     55  CD1       62.3900    3.8280    1.4720 C.ar  163  PHE163     -0.0042
     56  CD2       63.4600    5.3290    2.9240 C.ar  163  PHE163     -0.0042
     57  CE1       61.2490    4.4330    1.6720 C.ar  163  PHE163     -0.0003
     58  CE2       62.3050    5.9400    3.1250 C.ar  163  PHE163     -0.0003
     59  CZ        61.1930    5.4900    2.4960 C.ar  163  PHE163     -0.0000
     60  N         67.2770   -1.8190   -0.3710 N.3   167  GLN167     -0.1245
     61  CA        65.8150   -1.8690   -0.2890 C.3   167  GLN167      0.1566
     62  C         65.1910   -1.4980   -1.6300 C.2   167  GLN167      0.2260
     63  O         64.6480   -0.3930   -1.7890 O.2   167  GLN167     -0.2867
     64  CB        65.2890   -0.9430    0.8060 C.3   167  GLN167      0.0367
     65  CG        65.6060   -1.4130    2.1930 C.3   167  GLN167      0.0905
     66  CD        65.5030   -0.2970    3.2090 C.2   167  GLN167      0.2608
     67  OE1       66.2870    0.6550    3.1750 O.2   167  GLN167     -0.2717
     68  NE2       64.5220   -0.4000    4.1140 N.am  167  GLN167     -0.0878
     69  N         50.3260   -0.5440    9.9920 N.3   197  ARG197     -0.1245
     70  CA        50.9840    0.7130    9.6890 C.3   197  ARG197      0.1563
     71  C         51.5120    0.6390    8.2670 C.2   197  ARG197      0.2260
     72  O         52.3050   -0.2530    7.9400 O.2   197  ARG197     -0.2867
     73  CB        52.1190    1.0040   10.6700 C.3   197  ARG197      0.0307
     74  CG        52.9570    2.2480   10.3090 C.3   197  ARG197      0.0489
     75  CD        54.0960    2.3930   11.2870 C.3   197  ARG197      0.2205
     76  NE        54.9310    3.5560   11.0330 N.pl3 197  ARG197     -0.0865
     77  CZ        56.0290    3.5280   10.2840 C.cat 197  ARG197      0.5346
     78  NH1       56.4060    2.3920    9.7080 N.pl3 197  ARG197      0.1354
     79  NH2       56.7470    4.6360   10.1120 N.pl3 197  ARG197      0.1354
     80  N         53.9030    1.6680    5.8960 N.3   199  ASP199     -0.1225
     81  CA        55.2030    2.3190    5.9080 C.3   199  ASP199      0.1805
     82  C         55.5020    2.9850    4.5680 C.2   199  ASP199      0.2597
     83  O         55.1950    2.4430    3.5040 O.2   199  ASP199     -0.2718
     84  CB        56.2820    1.2950    6.2400 C.3   199  ASP199      0.1424
     85  CG        57.6640    1.9010    6.2680 C.2   199  ASP199      0.3668
     86  OD1       58.0290    2.4720    7.3140 O.co2 199  ASP199     -0.2456
     87  OD2       58.3870    1.8060    5.2540 O.co2 199  ASP199     -0.2456
     88  N         56.1200    4.1710    4.6230 N.am  200  ALA200     -0.1979
     89  CA        56.5880    4.8830    3.4270 C.3   200  ALA200      0.1597
     90  C         55.5190    4.9800    2.3320 C.2   200  ALA200      0.2287
     91  O         55.8230    4.9850    1.1340 O.2   200  ALA200     -0.2864
     92  CB        57.8560    4.2340    2.8720 C.3   200  ALA200      0.0319
     93  N         51.9590    6.3360    7.3090 N.3   241  GLU241     -0.1245
     94  CA        53.1780    7.1090    7.5380 C.3   241  GLU241      0.1567
     95  C         53.3670    8.0040    6.3160 C.2   241  GLU241      0.2260
     96  O         54.0140    7.6350    5.3340 O.2   241  GLU241     -0.2867
     97  CB        54.3910    6.2130    7.7800 C.3   241  GLU241      0.0388
     98  CG        55.6490    7.0480    8.0470 C.3   241  GLU241      0.1160
     99  CD        56.9820    6.3790    7.6860 C.2   241  GLU241      0.3649
    100  OE1       57.9820    6.7320    8.3470 O.co2 241  GLU241     -0.2457
    101  OE2       57.0550    5.5340    6.7590 O.co2 241  GLU241     -0.2457
    102  N         61.1030    5.9630   16.4780 N.3   306  HIS306     -0.1226
    103  CA        62.3260    5.2020   16.2440 C.3   306  HIS306      0.1752
    104  C         63.1960    5.8430   15.1760 C.2   306  HIS306      0.2596
    105  O         64.2980    5.3460   14.9070 O.2   306  HIS306     -0.2718
    106  CB        62.0000    3.7550   15.8360 C.3   306  HIS306      0.0759
    107  CG        61.2810    3.6630   14.5260 C.ar  306  HIS306      0.0818
    108  ND1       59.9360    3.9370   14.3990 N.ar  306  HIS306     -0.2268
    109  CD2       61.7320    3.3990   13.2770 C.ar  306  HIS306      0.1154
    110  CE1       59.5880    3.8280   13.1280 C.ar  306  HIS306      0.1986
    111  NE2       60.6570    3.4920   12.4290 N.ar  306  HIS306     -0.2212
    112  N         62.7360    6.9270   14.5680 N.am  307  ASP307     -0.1974
    113  CA        63.5340    7.6280   13.5810 C.3   307  ASP307      0.1709
    114  C         64.0940    8.9000   14.1900 C.2   307  ASP307      0.2293
    115  O         63.8330    9.2270   15.3490 O.2   307  ASP307     -0.2864
    116  CB        62.7000    7.9280   12.3370 C.3   307  ASP307      0.1436
    117  CG        62.3670    6.6740   11.5710 C.2   307  ASP307      0.3671
    118  OD1       63.2830    5.8310   11.4540 O.co2 307  ASP307     -0.2456
    119  OD2       61.2100    6.5210   11.1060 O.co2 307  ASP307     -0.2456
    120  N         70.2840    5.6790   12.9540 N.3   386  ARG386     -0.1245
    121  CA        69.3700    6.0430   14.0240 C.3   386  ARG386      0.1563
    122  C         69.4680    5.1000   15.2280 C.2   386  ARG386      0.2260
    123  O         68.5620    5.0950   16.0760 O.2   386  ARG386     -0.2867
    124  CB        67.9350    6.0850   13.5010 C.3   386  ARG386      0.0307
    125  CG        67.6580    7.1900   12.4790 C.3   386  ARG386      0.0489
    126  CD        66.6730    6.7460   11.3660 C.3   386  ARG386      0.2205
    127  NE        67.3320    5.9560   10.3160 N.pl3 386  ARG386     -0.0865
    128  CZ        66.6990    5.1400    9.4710 C.cat 386  ARG386      0.5346
    129  NH1       65.3770    4.9800    9.5480 N.pl3 386  ARG386      0.1354
    130  NH2       67.3900    4.4770    8.5430 N.pl3 386  ARG386      0.1354
@<TRIPOS>BOND
     1    63    62    2
     2    62    61    1
     3    29    32    1
     4    29    28    1
     5    29    30    1
     6    32    33    1
     7    49    50    1
     8    52    51    2
     9    60    61    1
    10    61    64    1
    11    30    31    2
    12    51    50    1
    13    50    53    1
    14    33    34   ar
    15    33    35   ar
    16    64    65    1
    17    91    90    2
    18    34    36   ar
    19    55    57   ar
    20    55    54   ar
    21    57    59   ar
    22    53    54    1
    23    41    40    2
    24    35    37   ar
    25    38    39    1
    26    54    56   ar
    27    65    66    1
    28    40    39    1
    29    90    89    1
    30    24    23    2
    31    36    37   ar
    32    59    58   ar
    33    39    42    1
    34    92    89    1
    35    56    58   ar
    36    42    43    1
    37    23    22    1
    38    67    66    2
    39    66    68   am
    40    89    88    1
    41    83    82    2
    42    45    43   ar
    43    45    47   ar
    44    43    44   ar
    45    26    25    1
    46    47    48   ar
    47    82    88   am
    48    82    81    1
    49    22    25    1
    50    22    21    1
    51    44    46   ar
    52    25    27    1
    53    12    11    2
    54    87    85   ar
    55    96    95    2
    56    48    46   ar
    57    80    81    1
    58    81    84    1
    59    11    10    1
    60    84    85    1
    61    85    86   ar
    62    95    94    1
    63     8     6   ar
    64   101    99   ar
    65     5     6    1
    66     5     2    1
    67     6     7   ar
    68    93    94    1
    69    10    13    1
    70    10     9    1
    71    13    14    1
    72    94    97    1
    73    99    98    1
    74    99   100   ar
    75    97    98    1
    76     1     2    1
    77    72    71    2
    78     2     3    1
    79    71    70    1
    80    15    14   ar
    81    15    17   ar
    82   130   128    1
    83    14    16   ar
    84     4     3    2
    85   128   129    1
    86   128   127    2
    87    17    19   ar
    88    70    69    1
    89    70    73    1
    90    78    77    1
    91    16    18   ar
    92    79    77    1
    93    77    76    2
    94    74    73    1
    95    74    75    1
    96   127   126    1
    97    19    18   ar
    98    19    20    1
    99    76    75    1
   100   119   117   ar
   101   126   125    1
   102   118   117   ar
   103   117   116    1
   104   116   113    1
   105   111   110   ar
   106   111   109   ar
   107   125   124    1
   108   120   121    1
   109   110   108   ar
   110   109   107   ar
   111   124   121    1
   112   113   114    1
   113   113   112    1
   114   121   122    1
   115   114   115    2
   116   108   107   ar
   117   107   106    1
   118   112   104   am
   119   105   104    2
   120   104   103    1
   121   122   123    2
   122   106   103    1
   123   103   102    1
