@<TRIPOS>MOLECULE
tmp/5x7yB00.pdb
 126 117 0 0 0
SMALL
GASTEIGER

@<TRIPOS>ATOM
      1  N         35.6560   23.9150   -0.5320 N.3    35  MET35      -0.1245
      2  CA        34.8070   23.4310    0.5460 C.3    35  MET35       0.1570
      3  C         34.1820   24.5290    1.4210 C.2    35  MET35       0.2261
      4  O         33.4770   24.2400    2.3450 O.2    35  MET35      -0.2867
      5  CB        35.6390   22.5220    1.4270 C.3    35  MET35       0.0387
      6  CG        36.2980   21.3790    0.6850 C.3    35  MET35       0.0595
      7  SD        34.9750   20.3350    0.0130 S.3    35  MET35      -0.1393
      8  CE        35.9310   19.5230   -1.2810 C.3    35  MET35       0.0692
      9  N         31.5020   26.2380    1.4980 N.3    37  VAL37      -0.1245
     10  CA        30.1390   26.3340    1.0210 C.3    37  VAL37       0.1561
     11  C         29.3120   26.2820    2.2510 C.2    37  VAL37       0.2260
     12  O         29.6350   25.5690    3.1610 O.2    37  VAL37      -0.2867
     13  CB        29.7050   25.2360    0.0300 C.3    37  VAL37       0.0252
     14  CG1       30.4670   25.3370   -1.2760 C.3    37  VAL37       0.0019
     15  CG2       29.9010   23.8760    0.6060 C.3    37  VAL37       0.0019
     16  N         21.7490   18.1820   -0.3200 N.3    52  PHE52      -0.1241
     17  CA        22.2300   19.3050    0.4120 C.3    52  PHE52       0.1605
     18  C         22.1140   20.4840   -0.5160 C.2    52  PHE52       0.2264
     19  O         22.7070   20.4850   -1.5670 O.2    52  PHE52      -0.2867
     20  CB        23.6870   19.1120    0.7640 C.3    52  PHE52       0.0534
     21  CG        23.9270   18.3070    1.9920 C.ar   52  PHE52      -0.0203
     22  CD1       23.5550   16.9550    2.0440 C.ar   52  PHE52      -0.0042
     23  CD2       24.6100   18.8710    3.0900 C.ar   52  PHE52      -0.0042
     24  CE1       23.8160   16.1990    3.1910 C.ar   52  PHE52      -0.0003
     25  CE2       24.8780   18.1030    4.2260 C.ar   52  PHE52      -0.0003
     26  CZ        24.4770   16.7740    4.2820 C.ar   52  PHE52      -0.0000
     27  N         22.9380   24.3990   -0.8450 N.3    54  MET54      -0.1245
     28  CA        23.9610   25.2050   -0.2230 C.3    54  MET54       0.1570
     29  C         24.2030   26.4460   -1.0310 C.2    54  MET54       0.2261
     30  O         23.7850   26.5160   -2.1730 O.2    54  MET54      -0.2867
     31  CB        25.2770   24.3750   -0.1540 C.3    54  MET54       0.0387
     32  CG        25.0900   22.9530    0.3830 C.3    54  MET54       0.0595
     33  SD        26.6180   22.0430    0.6690 S.3    54  MET54      -0.1393
     34  CE        26.9660   22.5850    2.3490 C.3    54  MET54       0.0692
     35  N         23.6170   19.5380   -4.0000 N.3    67  LEU67      -0.1245
     36  CA        24.4590   18.3380   -4.0450 C.3    67  LEU67       0.1561
     37  C         23.7000   17.1310   -3.5820 C.2    67  LEU67       0.2260
     38  O         23.2840   17.0690   -2.4490 O.2    67  LEU67      -0.2867
     39  CB        25.7040   18.5440   -3.1800 C.3    67  LEU67       0.0270
     40  CG        26.5760   19.6890   -3.6670 C.3    67  LEU67       0.0019
     41  CD1       27.6780   19.9780   -2.6850 C.3    67  LEU67       0.0001
     42  CD2       27.1950   19.3920   -5.0370 C.3    67  LEU67       0.0001
     43  N         29.3510   12.0030   -2.1840 N.3    80  VAL80      -0.1245
     44  CA        28.9120   13.0230   -3.1200 C.3    80  VAL80       0.1561
     45  C         30.0980   13.5250   -3.8880 C.2    80  VAL80       0.2260
     46  O         31.1490   13.6810   -3.3020 O.2    80  VAL80      -0.2867
     47  CB        28.2590   14.2200   -2.3770 C.3    80  VAL80       0.0252
     48  CG1       29.2380   14.9490   -1.4260 C.3    80  VAL80       0.0019
     49  CG2       27.6660   15.2040   -3.3620 C.3    80  VAL80       0.0019
     50  N         32.1150   16.4770   -5.6430 N.3    82  HIS82      -0.1241
     51  CA        32.3090   17.9280   -5.6070 C.3    82  HIS82       0.1621
     52  C         33.7640   18.2050   -5.3150 C.2    82  HIS82       0.2264
     53  O         34.2460   17.8890   -4.2030 O.2    82  HIS82      -0.2867
     54  CB        31.4390   18.6250   -4.5240 C.3    82  HIS82       0.0745
     55  CG        31.6590   20.1060   -4.4390 C.ar   82  HIS82       0.0817
     56  ND1       31.1630   20.9880   -5.3710 N.ar   82  HIS82      -0.2268
     57  CD2       32.3490   20.8530   -3.5400 C.ar   82  HIS82       0.1154
     58  CE1       31.5530   22.2150   -5.0600 C.ar   82  HIS82       0.1986
     59  NE2       32.2860   22.1570   -3.9590 N.ar   82  HIS82      -0.2212
     60  N         33.7220   12.5900   -2.0720 N.3    86  ASN86      -0.1240
     61  CA        33.6130   12.8960   -0.6540 C.3    86  ASN86       0.1653
     62  C         32.8170   11.7790    0.0230 C.2    86  ASN86       0.2266
     63  O         31.7510   11.4250   -0.4200 O.2    86  ASN86      -0.2867
     64  CB        32.9050   14.2080   -0.4900 C.3    86  ASN86       0.1155
     65  CG        33.5130   15.3040   -1.3230 C.2    86  ASN86       0.2627
     66  OD1       34.3100   16.0720   -0.8550 O.2    86  ASN86      -0.2716
     67  ND2       33.1130   15.3870   -2.5580 N.am   86  ASN86      -0.0877
     68  N         31.2250   10.8870    3.5390 N.3    88  PHE88      -0.1241
     69  CA        30.9360   11.5840    4.8070 C.3    88  PHE88       0.1605
     70  C         29.9290   10.9100    5.7080 C.2    88  PHE88       0.2264
     71  O         29.1420   10.0880    5.2620 O.2    88  PHE88      -0.2867
     72  CB        30.5340   13.0490    4.5440 C.3    88  PHE88       0.0534
     73  CG        29.1960   13.2110    3.8890 C.ar   88  PHE88      -0.0203
     74  CD1       28.0270   13.2230    4.6450 C.ar   88  PHE88      -0.0042
     75  CD2       29.0980   13.4510    2.5200 C.ar   88  PHE88      -0.0042
     76  CE1       26.8010   13.4330    4.0610 C.ar   88  PHE88      -0.0003
     77  CE2       27.8580   13.6550    1.9370 C.ar   88  PHE88      -0.0003
     78  CZ        26.7150   13.6570    2.7130 C.ar   88  PHE88      -0.0000
     79  N         29.3560   16.7330   10.9100 N.3   101  PHE101     -0.1241
     80  CA        29.7350   15.7870    9.8630 C.3   101  PHE101      0.1605
     81  C         31.2590   15.6680    9.8090 C.2   101  PHE101      0.2264
     82  O         31.9560   16.6880    9.9250 O.2   101  PHE101     -0.2867
     83  CB        29.2410   16.2540    8.4950 C.3   101  PHE101      0.0534
     84  CG        27.7740   16.2020    8.3420 C.ar  101  PHE101     -0.0203
     85  CD1       27.1460   14.9980    8.1010 C.ar  101  PHE101     -0.0042
     86  CD2       27.0010   17.3350    8.4710 C.ar  101  PHE101     -0.0042
     87  CE1       25.7770   14.9240    7.9690 C.ar  101  PHE101     -0.0003
     88  CE2       25.6250   17.2680    8.3510 C.ar  101  PHE101     -0.0003
     89  CZ        25.0180   16.0630    8.0930 C.ar  101  PHE101     -0.0000
     90  N         34.0400   14.2770    7.0360 N.3   103  LEU103     -0.1245
     91  CA        34.1500   13.9870    5.6280 C.3   103  LEU103      0.1561
     92  C         35.6100   13.7070    5.2170 C.2   103  LEU103      0.2260
     93  O         36.5230   14.3830    5.7050 O.2   103  LEU103     -0.2867
     94  CB        33.5960   15.1650    4.8530 C.3   103  LEU103      0.0270
     95  CG        33.6340   15.1500    3.3150 C.3   103  LEU103      0.0019
     96  CD1       32.4690   16.0250    2.8130 C.3   103  LEU103      0.0001
     97  CD2       34.9360   15.6480    2.6860 C.3   103  LEU103      0.0001
     98  N         37.8590   16.6390    6.5070 N.3   114  LEU114     -0.1245
     99  CA        37.0780   17.8620    6.7200 C.3   114  LEU114      0.1561
    100  C         36.0820   17.5760    7.8610 C.2   114  LEU114      0.2260
    101  O         35.6430   16.4380    8.0040 O.2   114  LEU114     -0.2867
    102  CB        36.2660   18.1430    5.4490 C.3   114  LEU114      0.0270
    103  CG        35.5480   19.4700    5.2890 C.3   114  LEU114      0.0019
    104  CD1       36.5700   20.5010    4.8730 C.3   114  LEU114      0.0001
    105  CD2       34.4130   19.4250    4.2720 C.3   114  LEU114      0.0001
    106  N         32.5050   19.3810    9.8250 N.3   116  GLU116     -0.1245
    107  CA        31.5490   20.5200    9.7630 C.3   116  GLU116      0.1567
    108  C         30.6330   20.4750   10.9440 C.2   116  GLU116      0.2260
    109  O         30.2710   19.3840   11.3880 O.2   116  GLU116     -0.2867
    110  CB        30.7260   20.5480    8.4520 C.3   116  GLU116      0.0388
    111  CG        31.5450   20.3270    7.1710 C.3   116  GLU116      0.1160
    112  CD        31.0820   21.0670    5.9130 C.2   116  GLU116      0.3649
    113  OE1       29.9380   21.5210    5.8440 O.co2 116  GLU116     -0.2457
    114  OE2       31.9010   21.2450    4.9740 O.co2 116  GLU116     -0.2457
    115  N         26.9450   22.2650   11.9940 N.3   118  TYR118     -0.1241
    116  CA        25.8340   23.1110   11.5520 C.3   118  TYR118      0.1605
    117  C         24.9470   23.3530   12.7330 C.2   118  TYR118      0.2264
    118  O         24.8640   22.5210   13.5840 O.2   118  TYR118     -0.2867
    119  CB        25.0130   22.4030   10.4790 C.3   118  TYR118      0.0534
    120  CG        25.6930   22.0400    9.2030 C.ar  118  TYR118     -0.0201
    121  CD1       26.8330   22.6890    8.7740 C.ar  118  TYR118     -0.0009
    122  CD2       25.1270   21.0830    8.3700 C.ar  118  TYR118     -0.0009
    123  CE1       27.4220   22.3680    7.5590 C.ar  118  TYR118      0.0417
    124  CE2       25.6920   20.7480    7.1710 C.ar  118  TYR118      0.0417
    125  CZ        26.8390   21.3890    6.7560 C.ar  118  TYR118      0.1957
    126  OH        27.4290   21.0480    5.5510 O.3   118  TYR118     -0.2866
@<TRIPOS>BOND
     1    50    51    1
     2    51    52    1
     3    51    54    1
     4    56    58   ar
     5    56    55   ar
     6    52    53    2
     7    58    59   ar
     8    42    40    1
     9    54    55    1
    10    55    57   ar
    11    36    35    1
    12    36    37    1
    13    36    39    1
    14    59    57   ar
    15    45    46    2
    16    45    44    1
    17    40    39    1
    18    40    41    1
    19    37    38    2
    20    49    47    1
    21    44    47    1
    22    44    43    1
    23    67    65   am
    24    47    48    1
    25    30    29    2
    26    60    61    1
    27    19    18    2
    28    65    66    2
    29    65    64    1
    30     8     7    1
    31    14    13    1
    32    29    28    1
    33    27    28    1
    34    61    64    1
    35    61    62    1
    36     1     2    1
    37    18    17    1
    38    63    62    2
    39    16    17    1
    40    28    31    1
    41    31    32    1
    42     7     6    1
    43    13    15    1
    44    13    10    1
    45    32    33    1
    46    17    20    1
    47     2     3    1
    48     2     5    1
    49    33    34    1
    50     6     5    1
    51    20    21    1
    52    10     9    1
    53    10    11    1
    54     3     4    2
    55    77    75   ar
    56    77    78   ar
    57    21    22   ar
    58    21    23   ar
    59    22    24   ar
    60    11    12    2
    61    75    73   ar
    62    97    95    1
    63    78    76   ar
    64    96    95    1
    65    23    25   ar
    66    24    26   ar
    67    95    94    1
    68    68    69    1
    69    73    72    1
    70    73    74   ar
    71    76    74   ar
    72    25    26   ar
    73   105   103    1
    74    72    69    1
    75    69    70    1
    76    94    91    1
    77   104   103    1
    78   114   112   ar
    79    92    91    1
    80    92    93    2
    81    71    70    2
    82   103   102    1
    83   102    99    1
    84   126   125    1
    85    91    90    1
    86   113   112   ar
    87   112   111    1
    88    98    99    1
    89    99   100    1
    90   125   124   ar
    91   125   123   ar
    92   124   122   ar
    93   111   110    1
    94   123   121   ar
    95   100   101    2
    96    87    89   ar
    97    87    85   ar
    98    89    88   ar
    99    85    84   ar
   100    84    86   ar
   101    84    83    1
   102    88    86   ar
   103   122   120   ar
   104   110   107    1
   105    83    80    1
   106   121   120   ar
   107   120   119    1
   108   107   106    1
   109   107   108    1
   110    81    80    1
   111    81    82    2
   112    80    79    1
   113   119   116    1
   114   108   109    2
   115   116   115    1
   116   116   117    1
   117   117   118    2
