@<TRIPOS>MOLECULE
tmp/5x80A00.pdb
 93 87 0 0 0
SMALL
GASTEIGER

@<TRIPOS>ATOM
      1  N         46.1790   24.2690   75.7550 N.3    20  LEU20      -0.1231
      2  CA        47.2740   23.8420   74.8860 C.3    20  LEU20       0.1693
      3  C         46.9480   23.9890   73.3920 C.2    20  LEU20       0.2591
      4  O         47.8130   24.3930   72.6100 O.2    20  LEU20      -0.2718
      5  CB        47.6560   22.4070   75.2370 C.3    20  LEU20       0.0284
      6  CG        48.6320   21.6970   74.3070 C.3    20  LEU20       0.0019
      7  CD1       50.0160   22.2770   74.5240 C.3    20  LEU20       0.0001
      8  CD2       48.6320   20.2030   74.5930 C.3    20  LEU20       0.0001
      9  N         45.7180   23.6800   72.9730 N.am   21  ARG21      -0.1980
     10  CA        45.3960   23.6180   71.5420 C.3    21  ARG21       0.1597
     11  C         45.5760   24.9300   70.7960 C.2    21  ARG21       0.2287
     12  O         46.1560   24.9050   69.6960 O.2    21  ARG21      -0.2864
     13  CB        43.9460   23.1580   71.4040 C.3    21  ARG21       0.0334
     14  CG        43.6450   21.7340   71.1690 C.3    21  ARG21       0.0492
     15  CD        43.2480   21.3120   72.5620 C.3    21  ARG21       0.2205
     16  NE        42.8660   19.9350   72.8340 N.pl3  21  ARG21      -0.0865
     17  CZ        41.6630   19.5720   73.3010 C.cat  21  ARG21       0.5346
     18  NH1       40.7620   20.4660   73.7190 N.pl3  21  ARG21       0.1354
     19  NH2       41.3910   18.2850   73.4600 N.pl3  21  ARG21       0.1354
     20  N         49.3270   25.4260   70.2570 N.3    24  VAL24      -0.1245
     21  CA        49.8720   24.4870   69.2830 C.3    24  VAL24       0.1561
     22  C         49.4670   24.8880   67.8690 C.2    24  VAL24       0.2260
     23  O         50.2960   24.8820   66.9470 O.2    24  VAL24      -0.2867
     24  CB        49.4290   23.0480   69.6190 C.3    24  VAL24       0.0252
     25  CG1       49.6560   22.1220   68.4290 C.3    24  VAL24       0.0019
     26  CG2       50.1710   22.5350   70.8570 C.3    24  VAL24       0.0019
     27  N         46.3110   21.6810   63.6520 N.3    35  LEU35      -0.1245
     28  CA        46.4840   20.6470   64.6700 C.3    35  LEU35       0.1561
     29  C         46.1090   19.2580   64.1680 C.2    35  LEU35       0.2260
     30  O         46.9180   18.3280   64.3420 O.2    35  LEU35      -0.2867
     31  CB        45.6940   21.0310   65.9250 C.3    35  LEU35       0.0270
     32  CG        46.0690   20.3520   67.2390 C.3    35  LEU35       0.0019
     33  CD1       45.6520   21.2840   68.3420 C.3    35  LEU35       0.0001
     34  CD2       45.3770   18.9980   67.4270 C.3    35  LEU35       0.0001
     35  N         48.8440   17.9060   61.9290 N.3    38  PHE38      -0.1227
     36  CA        50.0490   17.5220   62.6520 C.3    38  PHE38       0.1736
     37  C         49.8570   16.2020   63.3810 C.2    38  PHE38       0.2595
     38  O         50.7510   15.3490   63.3800 O.2    38  PHE38      -0.2718
     39  CB        50.4560   18.6070   63.6450 C.3    38  PHE38       0.0547
     40  CG        51.4710   18.1440   64.6410 C.ar   38  PHE38      -0.0202
     41  CD1       51.0800   17.6800   65.8880 C.ar   38  PHE38      -0.0042
     42  CD2       52.8120   18.1050   64.3080 C.ar   38  PHE38      -0.0042
     43  CE1       52.0160   17.2280   66.7970 C.ar   38  PHE38      -0.0003
     44  CE2       53.7550   17.6550   65.2160 C.ar   38  PHE38      -0.0003
     45  CZ        53.3550   17.2150   66.4600 C.ar   38  PHE38      -0.0000
     46  N         48.7150   16.0350   64.0510 N.am   39  VAL39      -0.1980
     47  CA        48.4370   14.7590   64.7030 C.3    39  VAL39       0.1595
     48  C         48.5480   13.6260   63.6940 C.2    39  VAL39       0.2287
     49  O         49.1920   12.5970   63.9530 O.2    39  VAL39      -0.2864
     50  CB        47.0610   14.7890   65.3890 C.3    39  VAL39       0.0276
     51  CG1       46.7180   13.4090   65.9190 C.3    39  VAL39       0.0022
     52  CG2       47.0630   15.8090   66.5210 C.3    39  VAL39       0.0022
     53  N         52.3620   13.0130   62.7540 N.3    42  ARG42      -0.1245
     54  CA        53.1490   12.3480   63.7920 C.3    42  ARG42       0.1563
     55  C         52.7340   10.8940   63.9540 C.2    42  ARG42       0.2260
     56  O         53.5870    9.9830   63.9100 O.2    42  ARG42      -0.2867
     57  CB        53.0020   13.1090   65.1130 C.3    42  ARG42       0.0307
     58  CG        53.7410   12.5020   66.2930 C.3    42  ARG42       0.0489
     59  CD        53.4790   13.2710   67.5650 C.3    42  ARG42       0.2205
     60  NE        52.0860   13.2240   68.0060 N.pl3  42  ARG42      -0.0865
     61  CZ        51.4580   12.1270   68.4240 C.cat  42  ARG42       0.5346
     62  NH1       52.1100   10.9630   68.4930 N.pl3  42  ARG42       0.1354
     63  NH2       50.1760   12.1990   68.7870 N.pl3  42  ARG42       0.1354
     64  N         42.3020   10.5240   68.0340 N.3    58  HIS58      -0.1226
     65  CA        43.4800   11.1520   68.6240 C.3    58  HIS58       0.1752
     66  C         43.4880   12.6510   68.3670 C.2    58  HIS58       0.2595
     67  O         43.9420   13.4320   69.2120 O.2    58  HIS58      -0.2718
     68  CB        44.7430   10.5040   68.0690 C.3    58  HIS58       0.0759
     69  CG        45.0880    9.2020   68.7210 C.ar   58  HIS58       0.0818
     70  ND1       46.1870    9.0450   69.5380 N.ar   58  HIS58      -0.2268
     71  CD2       44.4740    7.9970   68.6800 C.ar   58  HIS58       0.1154
     72  CE1       46.2390    7.7960   69.9660 C.ar   58  HIS58       0.1986
     73  NE2       45.2080    7.1400   69.4630 N.ar   58  HIS58      -0.2212
     74  N         43.0220   13.0680   67.1960 N.am   59  ALA59      -0.1980
     75  CA        42.9770   14.4800   66.8590 C.3    59  ALA59       0.1597
     76  C         41.7130   15.1530   67.3740 C.2    59  ALA59       0.2287
     77  O         41.5270   16.3510   67.1250 O.2    59  ALA59      -0.2864
     78  CB        43.1030   14.6600   65.3460 C.3    59  ALA59       0.0319
     79  N         56.0170   22.4020   67.8600 N.3   110  VAL110     -0.1245
     80  CA        55.0620   21.8900   68.8390 C.3   110  VAL110      0.1561
     81  C         55.7360   21.6800   70.1850 C.2   110  VAL110      0.2260
     82  O         55.1510   21.9630   71.2380 O.2   110  VAL110     -0.2867
     83  CB        54.4100   20.5890   68.3360 C.3   110  VAL110      0.0252
     84  CG1       53.6830   19.8840   69.4710 C.3   110  VAL110      0.0019
     85  CG2       53.4330   20.8860   67.2150 C.3   110  VAL110      0.0019
     86  N         54.5960   23.3870   73.6980 N.3   114  ASP114     -0.1239
     87  CA        54.4260   22.6850   74.9630 C.3   114  ASP114      0.1674
     88  C         55.2610   23.3320   76.0520 C.2   114  ASP114      0.2266
     89  O         54.8100   23.4420   77.1950 O.2   114  ASP114     -0.2867
     90  CB        54.8090   21.2100   74.8430 C.3   114  ASP114      0.1410
     91  CG        53.9630   20.4540   73.8450 C.2   114  ASP114      0.3668
     92  OD1       52.7970   20.8390   73.6210 O.co2 114  ASP114     -0.2456
     93  OD2       54.4640   19.4400   73.3070 O.co2 114  ASP114     -0.2456
@<TRIPOS>BOND
     1    35    36    1
     2    36    37    1
     3    36    39    1
     4    53    54    1
     5    38    37    2
     6    37    46   am
     7    39    40    1
     8    27    28    1
     9    48    49    2
    10    48    47    1
    11    54    55    1
    12    54    57    1
    13    56    55    2
    14    46    47    1
    15    29    30    2
    16    29    28    1
    17    42    40   ar
    18    42    44   ar
    19    40    41   ar
    20    28    31    1
    21    47    50    1
    22    57    58    1
    23    44    45   ar
    24    78    75    1
    25    50    51    1
    26    50    52    1
    27    41    43   ar
    28    31    32    1
    29    58    59    1
    30    45    43   ar
    31    75    74    1
    32    75    76    1
    33    23    22    2
    34    77    76    2
    35    74    66   am
    36    85    83    1
    37    32    34    1
    38    32    33    1
    39    59    60    1
    40    79    80    1
    41    22    21    1
    42    60    61    2
    43    64    65    1
    44    68    65    1
    45    68    69    1
    46    83    80    1
    47    83    84    1
    48    66    65    1
    49    66    67    2
    50    61    62    1
    51    61    63    1
    52    25    24    1
    53    71    69   ar
    54    71    73   ar
    55    69    70   ar
    56    80    81    1
    57    21    24    1
    58    21    20    1
    59    73    72   ar
    60    70    72   ar
    61    24    26    1
    62    12    11    2
    63    81    82    2
    64    11    10    1
    65    14    13    1
    66    14    15    1
    67    13    10    1
    68    10     9    1
    69    15    16    1
    70     4     3    2
    71    16    17    2
    72     9     3   am
    73    17    19    1
    74    17    18    1
    75    93    91   ar
    76     3     2    1
    77    92    91   ar
    78    86    87    1
    79    91    90    1
    80     6     7    1
    81     6     8    1
    82     6     5    1
    83    90    87    1
    84     2     5    1
    85     2     1    1
    86    87    88    1
    87    88    89    2
