@<TRIPOS>MOLECULE
tmp/5x8bA01.pdb
 160 151 0 0 0
SMALL
GASTEIGER

@<TRIPOS>ATOM
      1  N         17.0730   48.3430    3.7610 N.3    11  ASP11      -0.1239
      2  CA        16.9320   49.0740    2.5310 C.3    11  ASP11       0.1674
      3  C         16.5460   48.0930    1.4100 C.2    11  ASP11       0.2266
      4  O         17.1470   47.0440    1.2760 O.2    11  ASP11      -0.2867
      5  CB        18.2530   49.7600    2.1260 C.3    11  ASP11       0.1410
      6  CG        18.7660   50.7650    3.1580 C.2    11  ASP11       0.3668
      7  OD1       19.0110   50.3600    4.2670 O.co2  11  ASP11      -0.2456
      8  OD2       19.0360   51.9170    2.8220 O.co2  11  ASP11      -0.2456
      9  N          9.3510   47.9230    2.2020 N.3    15  LYS15      -0.1231
     10  CA         8.5710   48.6820    3.1910 C.3    15  LYS15       0.1693
     11  C          7.5940   49.6530    2.6010 C.2    15  LYS15       0.2592
     12  O          6.4160   49.6540    3.0120 O.2    15  LYS15      -0.2718
     13  CB         9.4880   49.4890    4.1230 C.3    15  LYS15       0.0285
     14  CG        10.3910   48.6190    4.9670 C.3    15  LYS15       0.0035
     15  CD        11.2730   49.4750    5.8400 C.3    15  LYS15       0.0206
     16  CE        12.1810   50.3970    5.0650 C.3    15  LYS15       0.1093
     17  NZ        13.2130   49.6840    4.2730 N.3    15  LYS15      -0.1314
     18  N          8.0870   50.5290    1.7250 N.am   16  THR16      -0.1953
     19  CA         7.2650   51.5660    1.1270 C.3    16  THR16       0.1897
     20  C          6.1610   50.9540    0.3040 C.2    16  THR16       0.2313
     21  O          5.0030   51.3830    0.3930 O.2    16  THR16      -0.2863
     22  CB         8.1360   52.5530    0.3210 C.3    16  THR16       0.1794
     23  OG1        9.0870   53.1480    1.2030 O.3    16  THR16      -0.2208
     24  CG2        7.3050   53.6260   -0.3330 C.3    16  THR16       0.0378
     25  N          6.3460   58.6420    7.4230 N.3    37  ARG37      -0.1231
     26  CA         7.6320   57.9860    7.2480 C.3    37  ARG37       0.1694
     27  C          8.7250   58.6410    8.0620 C.2    37  ARG37       0.2592
     28  O          8.6230   59.8290    8.3900 O.2    37  ARG37      -0.2718
     29  CB         8.0160   58.0290    5.7610 C.3    37  ARG37       0.0321
     30  CG         8.2180   59.4500    5.2440 C.3    37  ARG37       0.0489
     31  CD         8.4580   59.5140    3.7570 C.3    37  ARG37       0.2205
     32  NE         9.6520   60.3180    3.4880 N.pl3  37  ARG37      -0.0865
     33  CZ        10.1730   60.5220    2.2790 C.cat  37  ARG37       0.5346
     34  NH1        9.6060   59.9980    1.1980 N.pl3  37  ARG37       0.1354
     35  NH2       11.2520   61.2720    2.1470 N.pl3  37  ARG37       0.1354
     36  N          9.7710   57.8650    8.3160 N.am   38  GLU38      -0.1966
     37  CA        11.0290   58.3770    8.8600 C.3    38  GLU38       0.1718
     38  C         12.1670   57.8970    7.9490 C.2    38  GLU38       0.2458
     39  O         12.1530   56.7570    7.4920 O.2    38  GLU38      -0.2730
     40  CB        11.2530   57.9110   10.3150 C.3    38  GLU38       0.0428
     41  CG        10.2140   58.4980   11.2550 C.3    38  GLU38       0.1163
     42  CD        10.3340   58.0920   12.7000 C.2    38  GLU38       0.3649
     43  OE1       11.1830   57.2220   13.0490 O.co2  38  GLU38      -0.2457
     44  OE2        9.5690   58.6740   13.5190 O.co2  38  GLU38      -0.2457
     45  N         13.2070   58.6980    7.7720 N.am   39  PRO39      -0.2727
     46  CA        13.3260   60.0370    8.3120 C.3    39  PRO39       0.1402
     47  C         12.5550   61.0740    7.4960 C.2    39  PRO39       0.2269
     48  O         12.3800   60.9290    6.2780 O.2    39  PRO39      -0.2865
     49  CB        14.8270   60.3050    8.2040 C.3    39  PRO39       0.0296
     50  CG        15.2560   59.5270    7.0040 C.3    39  PRO39       0.0237
     51  CD        14.4040   58.2850    7.0260 C.3    39  PRO39       0.0939
     52  N         16.8330   65.0800    6.4610 N.3    47  ARG47      -0.1245
     53  CA        17.3500   64.2430    5.3860 C.3    47  ARG47       0.1563
     54  C         18.6480   64.8470    4.8240 C.2    47  ARG47       0.2260
     55  O         19.5750   64.1280    4.5020 O.2    47  ARG47      -0.2867
     56  CB        16.2980   64.0150    4.2820 C.3    47  ARG47       0.0307
     57  CG        15.0740   63.2200    4.7490 C.3    47  ARG47       0.0489
     58  CD        14.3350   62.5200    3.5980 C.3    47  ARG47       0.2205
     59  NE        15.0330   61.3040    3.1850 N.pl3  47  ARG47      -0.0865
     60  CZ        14.5790   60.0560    3.3590 C.cat  47  ARG47       0.5346
     61  NH1       13.4000   59.8260    3.9440 N.pl3  47  ARG47       0.1354
     62  NH2       15.3320   59.0360    2.9680 N.pl3  47  ARG47       0.1354
     63  N         21.4070   64.1960    7.5230 N.3    50  LEU50      -0.1245
     64  CA        21.8110   62.7920    7.6020 C.3    50  LEU50       0.1561
     65  C         22.7920   62.3660    6.5070 C.2    50  LEU50       0.2260
     66  O         23.4760   61.3510    6.6710 O.2    50  LEU50      -0.2867
     67  CB        20.5670   61.8790    7.5480 C.3    50  LEU50       0.0270
     68  CG        19.7730   61.8750    8.8500 C.3    50  LEU50       0.0019
     69  CD1       18.3850   61.3310    8.5720 C.3    50  LEU50       0.0001
     70  CD2       20.5150   61.0320    9.9160 C.3    50  LEU50       0.0001
     71  N         18.3770   61.3620   13.7350 N.3    64  PHE64      -0.1241
     72  CA        17.1470   60.5790   13.5870 C.3    64  PHE64       0.1605
     73  C         16.2060   60.8360   14.7580 C.2    64  PHE64       0.2264
     74  O         14.9980   60.8780   14.6010 O.2    64  PHE64      -0.2867
     75  CB        17.4530   59.0780   13.5060 C.3    64  PHE64       0.0534
     76  CG        18.0100   58.6160   12.1680 C.ar   64  PHE64      -0.0203
     77  CD1       17.2380   58.6610   11.0210 C.ar   64  PHE64      -0.0042
     78  CD2       19.2930   58.1120   12.0640 C.ar   64  PHE64      -0.0042
     79  CE1       17.7360   58.2280    9.8100 C.ar   64  PHE64      -0.0003
     80  CE2       19.7970   57.6740   10.8410 C.ar   64  PHE64      -0.0003
     81  CZ        19.0120   57.7380    9.7290 C.ar   64  PHE64      -0.0000
     82  N         12.4240   62.1990   14.8950 N.3    68  ARG68      -0.1245
     83  CA        11.4350   61.3320   15.5680 C.3    68  ARG68       0.1563
     84  C         10.6350   62.0820   16.6410 C.2    68  ARG68       0.2260
     85  O          9.3990   61.9160   16.7400 O.2    68  ARG68      -0.2867
     86  CB        12.1220   60.0850   16.1380 C.3    68  ARG68       0.0307
     87  CG        11.1620   59.0240   16.6380 C.3    68  ARG68       0.0489
     88  CD        11.8690   57.6940   16.8240 C.3    68  ARG68       0.2205
     89  NE        12.3500   57.2040   15.5380 N.pl3  68  ARG68      -0.0865
     90  CZ        13.6100   56.9590   15.2120 C.cat  68  ARG68       0.5346
     91  NH1       13.8780   56.5820   13.9690 N.pl3  68  ARG68       0.1354
     92  NH2       14.5930   57.0350   16.0960 N.pl3  68  ARG68       0.1354
     93  N          6.2630   54.3000    7.8170 N.3    89  ASP89      -0.1225
     94  CA         7.2920   53.5970    7.0430 C.3    89  ASP89       0.1805
     95  C          8.6170   53.9680    7.7130 C.2    89  ASP89       0.2597
     96  O          9.1630   55.0340    7.4790 O.2    89  ASP89      -0.2718
     97  CB         7.1560   54.1260    5.6040 C.3    89  ASP89       0.1424
     98  CG         8.1510   53.5750    4.6280 C.2    89  ASP89       0.3668
     99  OD1        9.1330   52.9310    5.0040 O.co2  89  ASP89      -0.2456
    100  OD2        7.9100   53.8860    3.4250 O.co2  89  ASP89      -0.2456
    101  N          9.0730   53.0550    8.5950 N.am   90  ARG90      -0.1979
    102  CA        10.1570   53.1920    9.5540 C.3    90  ARG90       0.1597
    103  C          9.7560   53.9690   10.8110 C.2    90  ARG90       0.2287
    104  O          9.0110   54.9580   10.7780 O.2    90  ARG90      -0.2864
    105  CB        11.4390   53.8140    8.9970 C.3    90  ARG90       0.0334
    106  CG        12.0920   53.0010    7.8870 C.3    90  ARG90       0.0492
    107  CD        13.4830   53.5410    7.6210 C.3    90  ARG90       0.2205
    108  NE        14.2510   52.8050    6.6190 N.pl3  90  ARG90      -0.0865
    109  CZ        14.8690   51.6400    6.8100 C.cat  90  ARG90       0.5346
    110  NH1       14.7920   51.0250    7.9820 N.pl3  90  ARG90       0.1354
    111  NH2       15.5260   51.0700    5.8040 N.pl3  90  ARG90       0.1354
    112  N         14.0500   51.0690   13.4320 N.3    94  SER94      -0.1202
    113  CA        15.0860   51.3450   12.4380 C.3    94  SER94       0.2020
    114  C         16.3700   51.8370   13.1050 C.2    94  SER94       0.2619
    115  O         17.4680   51.4010   12.7630 O.2    94  SER94      -0.2717
    116  CB        14.6510   52.4240   11.4590 C.3    94  SER94       0.2103
    117  OG        13.7650   51.9140   10.4840 O.3    94  SER94      -0.2182
    118  N         16.2500   52.7380   14.0840 N.am   95  SER95      -0.1951
    119  CA        17.4460   53.1990   14.7960 C.3    95  SER95       0.1924
    120  C         18.0740   52.0860   15.6080 C.2    95  SER95       0.2314
    121  O         19.2900   51.9470   15.6390 O.2    95  SER95      -0.2863
    122  CB        17.1630   54.3560   15.7040 C.3    95  SER95       0.2116
    123  OG        16.9360   55.5790   15.0240 O.3    95  SER95      -0.2180
    124  N         19.7860   49.7920   12.9120 N.3    98  TYR98      -0.1227
    125  CA        20.8740   50.4300   12.1420 C.3    98  TYR98       0.1736
    126  C         21.9470   51.0450   13.0290 C.2    98  TYR98       0.2595
    127  O         23.1350   50.7480   12.8720 O.2    98  TYR98      -0.2718
    128  CB        20.3500   51.4960   11.1490 C.3    98  TYR98       0.0548
    129  CG        19.7280   50.9270    9.8830 C.ar   98  TYR98      -0.0200
    130  CD1       18.4970   50.2700    9.8890 C.ar   98  TYR98      -0.0009
    131  CD2       20.3660   51.0760    8.6580 C.ar   98  TYR98      -0.0009
    132  CE1       17.9550   49.7660    8.7280 C.ar   98  TYR98       0.0417
    133  CE2       19.8080   50.5800    7.4860 C.ar   98  TYR98       0.0417
    134  CZ        18.6030   49.9250    7.5320 C.ar   98  TYR98       0.1957
    135  OH        17.9890   49.4550    6.3850 O.3    98  TYR98      -0.2866
    136  N         21.5350   51.9190   13.9510 N.am   99  GLN99      -0.1979
    137  CA        22.5070   52.5710   14.8440 C.3    99  GLN99       0.1601
    138  C         22.9780   51.6870   16.0050 C.2    99  GLN99       0.2287
    139  O         24.1190   51.8090   16.4450 O.2    99  GLN99      -0.2864
    140  CB        21.9550   53.9100   15.3410 C.3    99  GLN99       0.0394
    141  CG        22.0210   55.0390   14.2930 C.3    99  GLN99       0.0908
    142  CD        21.0920   54.8370   13.1280 C.2    99  GLN99       0.2608
    143  OE1       19.9150   54.5950   13.2910 O.2    99  GLN99      -0.2717
    144  NE2       21.6480   54.8800   11.9200 N.am   99  GLN99      -0.0878
    145  N         23.5050   57.6010    4.0990 N.3   138  LEU138     -0.1245
    146  CA        24.4370   57.1440    5.1250 C.3   138  LEU138      0.1561
    147  C         25.6600   56.4520    4.5200 C.2   138  LEU138      0.2260
    148  O         25.5870   55.9170    3.4180 O.2   138  LEU138     -0.2867
    149  CB        23.7270   56.1880    6.0960 C.3   138  LEU138      0.0270
    150  CG        22.5270   56.6820    6.9100 C.3   138  LEU138      0.0019
    151  CD1       22.1710   55.6040    7.9270 C.3   138  LEU138      0.0001
    152  CD2       22.8540   57.9970    7.6020 C.3   138  LEU138      0.0001
    153  N         27.3870   51.5040    4.3030 N.3   141  LEU141     -0.1245
    154  CA        26.2910   50.5430    4.2370 C.3   141  LEU141      0.1561
    155  C         26.7030   49.4370    3.2630 C.2   141  LEU141      0.2260
    156  O         26.1720   49.3180    2.1600 O.2   141  LEU141     -0.2867
    157  CB        24.9610   51.2370    3.8770 C.3   141  LEU141      0.0270
    158  CG        24.1150   51.6910    5.0830 C.3   141  LEU141      0.0019
    159  CD1       24.9500   52.3690    6.1640 C.3   141  LEU141      0.0001
    160  CD2       22.9340   52.5360    4.6450 C.3   141  LEU141      0.0001
@<TRIPOS>BOND
     1    24    22    1
     2    20    21    2
     3    20    19    1
     4    22    19    1
     5    22    23    1
     6    19    18    1
     7    34    33    1
     8     4     3    2
     9     3     2    1
    10    18    11   am
    11     5     2    1
    12     5     6    1
    13    35    33    1
    14   156   155    2
    15     9    10    1
    16    33    32    2
    17     2     1    1
    18    11    12    2
    19    11    10    1
    20     8     6   ar
    21    62    60    1
    22     6     7   ar
    23    59    60    2
    24    59    58    1
    25    10    13    1
    26   155   154    1
    27    60    61    1
    28   148   147    2
    29   100    98   ar
    30    32    31    1
    31    58    57    1
    32    31    30    1
    33   157   154    1
    34   157   158    1
    35   145   146    1
    36    13    14    1
    37   154   153    1
    38    17    16    1
    39    56    57    1
    40    56    53    1
    41    55    54    2
    42   147   146    1
    43    98    99   ar
    44    98    97    1
    45   160   158    1
    46    54    53    1
    47    14    15    1
    48    16    15    1
    49   158   159    1
    50   146   149    1
    51    30    29    1
    52    53    52    1
    53    97    94    1
    54    29    26    1
    55   111   109    1
    56   149   150    1
    57    48    47    2
    58   135   134    1
    59    65    66    2
    60    65    64    1
    61   108   109    2
    62   108   107    1
    63   109   110    1
    64   150   152    1
    65   150   151    1
    66    50    51    1
    67    50    49    1
    68    51    45    1
    69    94    95    1
    70    94    93    1
    71    26    25    1
    72    26    27    1
    73    96    95    2
    74   133   134   ar
    75   133   131   ar
    76    39    38    2
    77    47    46    1
    78    63    64    1
    79   134   132   ar
    80    67    64    1
    81    67    68    1
    82   107   106    1
    83    95   101   am
    84    45    38   am
    85    45    46    1
    86   106   105    1
    87    38    37    1
    88    27    36   am
    89    27    28    2
    90    49    46    1
    91    36    37    1
    92    69    68    1
    93   101   102    1
    94   131   129   ar
    95   132   130   ar
    96    68    70    1
    97    37    40    1
    98   105   102    1
    99   102   103    1
   100    81    79   ar
   101    81    80   ar
   102    79    77   ar
   103   129   130   ar
   104   129   128    1
   105    40    41    1
   106   117   116    1
   107   104   103    2
   108    80    78   ar
   109    77    76   ar
   110   128   125    1
   111    41    42    1
   112   116   113    1
   113   144   142   am
   114    78    76   ar
   115   125   124    1
   116   125   126    1
   117    76    75    1
   118   113   114    1
   119   113   112    1
   120    42    43   ar
   121    42    44   ar
   122   115   114    2
   123   127   126    2
   124   126   136   am
   125   114   118   am
   126   142   143    2
   127   142   141    1
   128    75    72    1
   129    72    71    1
   130    72    73    1
   131   136   137    1
   132    91    90    1
   133   118   119    1
   134   141   140    1
   135    74    73    2
   136   119   120    1
   137   119   122    1
   138   137   140    1
   139   137   138    1
   140    82    83    1
   141   123   122    1
   142    90    89    2
   143    90    92    1
   144    89    88    1
   145    83    86    1
   146    83    84    1
   147   120   121    2
   148   138   139    2
   149    86    87    1
   150    87    88    1
   151    84    85    2
