@<TRIPOS>MOLECULE
tmp/5x8bA00.pdb
 125 121 0 0 0
SMALL
GASTEIGER

@<TRIPOS>ATOM
      1  N         17.0730   48.3430    3.7610 N.3    11  ASP11      -0.1225
      2  CA        16.9320   49.0740    2.5310 C.3    11  ASP11       0.1805
      3  C         16.5460   48.0930    1.4100 C.2    11  ASP11       0.2598
      4  O         17.1470   47.0440    1.2760 O.2    11  ASP11      -0.2718
      5  CB        18.2530   49.7600    2.1260 C.3    11  ASP11       0.1424
      6  CG        18.7660   50.7650    3.1580 C.2    11  ASP11       0.3668
      7  OD1       19.0110   50.3600    4.2670 O.co2  11  ASP11      -0.2456
      8  OD2       19.0360   51.9170    2.8220 O.co2  11  ASP11      -0.2456
      9  N         15.5040   48.4400    0.6650 N.am   12  GLY12      -0.1942
     10  CA        15.0570   47.6390   -0.4680 C.3    12  GLY12       0.2014
     11  C         14.1960   46.4250   -0.1540 C.2    12  GLY12       0.2640
     12  O         13.9220   45.6270   -1.0210 O.2    12  GLY12      -0.2714
     13  N         13.7190   46.3140    1.0800 N.am   13  SER13      -0.1935
     14  CA        12.9560   45.1480    1.5350 C.3    13  SER13       0.2055
     15  C         11.4790   45.1930    1.2090 C.2    13  SER13       0.2644
     16  O         10.7900   44.2010    1.4480 O.2    13  SER13      -0.2714
     17  CB        13.1490   44.9750    3.0570 C.3    13  SER13       0.2130
     18  OG        12.6330   46.0810    3.7730 O.3    13  SER13      -0.2179
     19  N         10.9840   46.3080    0.6400 N.am   14  GLY14      -0.1939
     20  CA         9.5780   46.4180    0.2680 C.3    14  GLY14       0.2014
     21  C          8.7140   47.2000    1.2550 C.2    14  GLY14       0.2639
     22  O          7.4820   47.1850    1.1350 O.2    14  GLY14      -0.2714
     23  N          9.3510   47.9230    2.2020 N.am   15  LYS15      -0.1963
     24  CA         8.5710   48.6820    3.1910 C.3    15  LYS15       0.1728
     25  C          7.5940   49.6530    2.6010 C.2    15  LYS15       0.2617
     26  O          6.4160   49.6540    3.0120 O.2    15  LYS15      -0.2715
     27  CB         9.4880   49.4890    4.1230 C.3    15  LYS15       0.0311
     28  CG        10.3910   48.6190    4.9670 C.3    15  LYS15       0.0038
     29  CD        11.2730   49.4750    5.8400 C.3    15  LYS15       0.0206
     30  CE        12.1810   50.3970    5.0650 C.3    15  LYS15       0.1093
     31  NZ        13.2130   49.6840    4.2730 N.3    15  LYS15      -0.1314
     32  N          8.0870   50.5290    1.7250 N.am   16  THR16      -0.1937
     33  CA         7.2650   51.5660    1.1270 C.3    16  THR16       0.2028
     34  C          6.1610   50.9540    0.3040 C.2    16  THR16       0.2643
     35  O          5.0030   51.3830    0.3930 O.2    16  THR16      -0.2714
     36  CB         8.1360   52.5530    0.3210 C.3    16  THR16       0.1808
     37  OG1        9.0870   53.1480    1.2030 O.3    16  THR16      -0.2208
     38  CG2        7.3050   53.6260   -0.3330 C.3    16  THR16       0.0379
     39  N          6.4850   49.9020   -0.4500 N.am   17  THR17      -0.1936
     40  CA         5.4890   49.1840   -1.2410 C.3    17  THR17       0.2028
     41  C          4.3450   48.7120   -0.3420 C.2    17  THR17       0.2642
     42  O          3.1760   48.9500   -0.6380 O.2    17  THR17      -0.2714
     43  CB         6.1480   47.9830   -1.9550 C.3    17  THR17       0.1808
     44  OG1        7.1320   48.4470   -2.8820 O.3    17  THR17      -0.2208
     45  CG2        5.1570   47.1440   -2.6730 C.3    17  THR17       0.0379
     46  N          4.6800   48.0380    0.7610 N.am   18  GLN18      -0.1976
     47  CA         3.6530   47.4860    1.6330 C.3    18  GLN18       0.1601
     48  C          2.9290   48.5730    2.4430 C.2    18  GLN18       0.2287
     49  O          1.7410   48.4480    2.7090 O.2    18  GLN18      -0.2864
     50  CB         4.2190   46.4030    2.5590 C.3    18  GLN18       0.0394
     51  CG         4.6850   45.1750    1.7920 C.3    18  GLN18       0.0908
     52  CD         3.5890   44.4930    1.0310 C.2    18  GLN18       0.2608
     53  OE1        2.4380   44.4940    1.4610 O.2    18  GLN18      -0.2717
     54  NE2        3.9520   43.8640   -0.1000 N.am   18  GLN18      -0.0878
     55  N          6.2630   54.3000    7.8170 N.3    89  ASP89      -0.1225
     56  CA         7.2920   53.5970    7.0430 C.3    89  ASP89       0.1805
     57  C          8.6170   53.9680    7.7130 C.2    89  ASP89       0.2597
     58  O          9.1630   55.0340    7.4790 O.2    89  ASP89      -0.2718
     59  CB         7.1560   54.1260    5.6040 C.3    89  ASP89       0.1424
     60  CG         8.1510   53.5750    4.6280 C.2    89  ASP89       0.3668
     61  OD1        9.1330   52.9310    5.0040 O.co2  89  ASP89      -0.2456
     62  OD2        7.9100   53.8860    3.4250 O.co2  89  ASP89      -0.2456
     63  N          9.0730   53.0550    8.5950 N.am   90  ARG90      -0.1979
     64  CA        10.1570   53.1920    9.5540 C.3    90  ARG90       0.1597
     65  C          9.7560   53.9690   10.8110 C.2    90  ARG90       0.2287
     66  O          9.0110   54.9580   10.7780 O.2    90  ARG90      -0.2864
     67  CB        11.4390   53.8140    8.9970 C.3    90  ARG90       0.0334
     68  CG        12.0920   53.0010    7.8870 C.3    90  ARG90       0.0492
     69  CD        13.4830   53.5410    7.6210 C.3    90  ARG90       0.2205
     70  NE        14.2510   52.8050    6.6190 N.pl3  90  ARG90      -0.0865
     71  CZ        14.8690   51.6400    6.8100 C.cat  90  ARG90       0.5346
     72  NH1       14.7920   51.0250    7.9820 N.pl3  90  ARG90       0.1354
     73  NH2       15.5260   51.0700    5.8040 N.pl3  90  ARG90       0.1354
     74  N         20.0980   47.5180   -0.8390 N.3   137  LEU137     -0.1245
     75  CA        20.7240   48.4540   -1.7970 C.3   137  LEU137      0.1561
     76  C         19.9080   49.7420   -1.9380 C.2   137  LEU137      0.2260
     77  O         18.8330   49.8780   -1.3460 O.2   137  LEU137     -0.2867
     78  CB        20.9140   47.7980   -3.1700 C.3   137  LEU137      0.0270
     79  CG        21.6320   48.5950   -4.2500 C.3   137  LEU137      0.0019
     80  CD1       23.1190   48.7150   -3.9430 C.3   137  LEU137      0.0001
     81  CD2       21.4270   47.9490   -5.6180 C.3   137  LEU137      0.0001
     82  N         10.4740   38.8480    2.9830 N.3   169  ALA169     -0.1231
     83  CA        10.4060   39.9590    2.0140 C.3   169  ALA169      0.1694
     84  C         10.5060   39.5430    0.5560 C.2   169  ALA169      0.2593
     85  O         10.1490   40.3230   -0.3340 O.2   169  ALA169     -0.2718
     86  CB        11.4980   40.9670    2.2800 C.3   169  ALA169      0.0304
     87  N         10.9750   38.3260    0.3120 N.am  170  THR170     -0.1939
     88  CA        11.1080   37.8250   -1.0680 C.3   170  THR170      0.2028
     89  C          9.8350   37.1730   -1.5980 C.2   170  THR170      0.2642
     90  O          9.8180   36.7960   -2.7650 O.2   170  THR170     -0.2714
     91  CB        12.2730   36.8460   -1.2170 C.3   170  THR170      0.1808
     92  OG1       11.9640   35.5900   -0.5760 O.3   170  THR170     -0.2208
     93  CG2       13.5550   37.4500   -0.6540 C.3   170  THR170      0.0379
     94  N          8.8070   36.9950   -0.7690 N.am  171  LEU171     -0.1963
     95  CA         7.5020   36.5280   -1.2640 C.3   171  LEU171      0.1713
     96  C          6.9240   37.5540   -2.2300 C.2   171  LEU171      0.2458
     97  O          7.2620   38.7270   -2.1710 O.2   171  LEU171     -0.2730
     98  CB         6.5370   36.2990   -0.1090 C.3   171  LEU171      0.0310
     99  CG         6.8730   35.0880    0.7750 C.3   171  LEU171      0.0022
    100  CD1        6.0210   35.1240    2.0330 C.3   171  LEU171      0.0001
    101  CD2        6.6940   33.7500    0.0400 C.3   171  LEU171      0.0001
    102  N          6.0070   37.1160   -3.1080 N.am  172  PRO172     -0.2716
    103  CA         5.3000   38.0650   -3.9570 C.3   172  PRO172      0.1536
    104  C          4.5860   39.1660   -3.1560 C.2   172  PRO172      0.2598
    105  O          4.0400   38.9100   -2.0860 O.2   172  PRO172     -0.2715
    106  CB         4.2860   37.1920   -4.7010 C.3   172  PRO172      0.0310
    107  CG         4.9110   35.8660   -4.7050 C.3   172  PRO172      0.0237
    108  CD         5.6120   35.7310   -3.4170 C.3   172  PRO172      0.0939
    109  N          4.5730   40.3670   -3.7210 N.am  173  GLU173     -0.1978
    110  CA         4.0200   41.5450   -3.0680 C.3   173  GLU173      0.1602
    111  C          2.6060   41.2770   -2.5260 C.2   173  GLU173      0.2287
    112  O          2.2440   41.7030   -1.4320 O.2   173  GLU173     -0.2864
    113  CB         3.9870   42.7470   -4.0400 C.3   173  GLU173      0.0415
    114  CG         5.3280   43.2850   -4.5240 C.3   173  GLU173      0.1163
    115  CD         5.9110   42.5980   -5.7560 C.2   173  GLU173      0.3649
    116  OE1        6.7350   43.2810   -6.3830 O.co2 173  GLU173     -0.2457
    117  OE2        5.5970   41.4110   -6.0510 O.co2 173  GLU173     -0.2457
    118  N          2.5080   38.9910    0.6100 N.3   176  ILE176     -0.1245
    119  CA         2.8710   39.7570    1.8070 C.3   176  ILE176      0.1561
    120  C          1.7250   40.6530    2.2480 C.2   176  ILE176      0.2260
    121  O          1.4060   40.7230    3.4400 O.2   176  ILE176     -0.2867
    122  CB         4.1400   40.5760    1.5330 C.3   176  ILE176      0.0252
    123  CG1        5.3170   39.6210    1.2540 C.3   176  ILE176      0.0019
    124  CG2        4.4810   41.5130    2.6850 C.3   176  ILE176      0.0019
    125  CD1        6.5680   40.3400    0.7830 C.3   176  ILE176      0.0001
@<TRIPOS>BOND
     1   116   115   ar
     2   117   115   ar
     3   115   114    1
     4    81    79    1
     5   107   106    1
     6   107   108    1
     7   106   103    1
     8   114   113    1
     9    79    80    1
    10    79    78    1
    11   113   110    1
    12   103   104    1
    13   103   102    1
    14   109   104   am
    15   109   110    1
    16   108   102    1
    17    78    75    1
    18   104   105    2
    19   102    96   am
    20   110   111    1
    21    44    43    1
    22    90    89    2
    23    45    43    1
    24   111   112    2
    25    96    97    2
    26    96    95    1
    27    43    40    1
    28    76    75    1
    29    76    77    2
    30    75    74    1
    31    89    88    1
    32    89    94   am
    33    95    94    1
    34    95    98    1
    35    40    39    1
    36    40    41    1
    37    91    88    1
    38    91    93    1
    39    91    92    1
    40    88    87    1
    41    12    11    2
    42    42    41    2
    43    10    11    1
    44    10     9    1
    45    39    34   am
    46    41    46   am
    47    85    84    2
    48    38    36    1
    49    11    13   am
    50    98    99    1
    51    54    52   am
    52   101    99    1
    53    20    19    1
    54    20    21    1
    55    34    35    2
    56    34    33    1
    57    87    84   am
    58    36    33    1
    59    36    37    1
    60    84    83    1
    61   118   119    1
    62    19    15   am
    63     9     3   am
    64    46    47    1
    65    99   100    1
    66   125   123    1
    67    52    53    2
    68    52    51    1
    69    13    14    1
    70    33    32    1
    71    22    21    2
    72    15    16    2
    73    15    14    1
    74   123   122    1
    75    21    23   am
    76     4     3    2
    77     3     2    1
    78   122   119    1
    79   122   124    1
    80    14    17    1
    81    47    48    1
    82    47    50    1
    83    32    25   am
    84    51    50    1
    85   119   120    1
    86    83    86    1
    87    83    82    1
    88     5     2    1
    89     5     6    1
    90    23    24    1
    91   120   121    2
    92    48    49    2
    93     2     1    1
    94    25    26    2
    95    25    24    1
    96     8     6   ar
    97    17    18    1
    98     6     7   ar
    99    24    27    1
   100    62    60   ar
   101    27    28    1
   102    31    30    1
   103    60    61   ar
   104    60    59    1
   105    28    29    1
   106    30    29    1
   107    59    56    1
   108    73    71    1
   109    70    71    2
   110    70    69    1
   111    71    72    1
   112    56    57    1
   113    56    55    1
   114    58    57    2
   115    69    68    1
   116    57    63   am
   117    68    67    1
   118    63    64    1
   119    67    64    1
   120    64    65    1
   121    66    65    2
