@<TRIPOS>MOLECULE
tmp/5x8cA01.pdb
 120 116 0 0 0
SMALL
GASTEIGER

@<TRIPOS>ATOM
      1  N         16.6740    0.9180    3.6870 N.3    11  ASP11      -0.1225
      2  CA        16.6970    1.5640    2.3780 C.3    11  ASP11       0.1805
      3  C         16.4040    0.4940    1.3350 C.2    11  ASP11       0.2598
      4  O         17.0530   -0.5470    1.3150 O.2    11  ASP11      -0.2718
      5  CB        18.0820    2.2090    2.0780 C.3    11  ASP11       0.1424
      6  CG        18.5740    3.1110    3.2080 C.2    11  ASP11       0.3668
      7  OD1       19.0530    2.5870    4.2320 O.co2  11  ASP11      -0.2456
      8  OD2       18.4370    4.3330    3.1040 O.co2  11  ASP11      -0.2456
      9  N         15.3660    0.7240    0.5540 N.am   12  GLY12      -0.1942
     10  CA        14.9800   -0.1320   -0.5640 C.3    12  GLY12       0.2014
     11  C         14.0210   -1.2600   -0.1800 C.2    12  GLY12       0.2640
     12  O         13.6690   -2.0550   -1.0250 O.2    12  GLY12      -0.2714
     13  N         13.5560   -1.3190    1.0750 N.am   13  SER13      -0.1935
     14  CA        12.6970   -2.4580    1.5210 C.3    13  SER13       0.2055
     15  C         11.1960   -2.4170    1.1360 C.2    13  SER13       0.2644
     16  O         10.4830   -3.3820    1.3960 O.2    13  SER13      -0.2714
     17  CB        12.8120   -2.6470    3.0420 C.3    13  SER13       0.2130
     18  OG        12.2970   -1.5180    3.7450 O.3    13  SER13      -0.2179
     19  N         10.7230   -1.3080    0.5530 N.am   14  GLY14      -0.1939
     20  CA         9.3140   -1.1570    0.1510 C.3    14  GLY14       0.2014
     21  C          8.4210   -0.3960    1.1460 C.2    14  GLY14       0.2639
     22  O          7.1750   -0.3800    1.0310 O.2    14  GLY14      -0.2714
     23  N          9.0200    0.2630    2.1330 N.am   15  LYS15      -0.1963
     24  CA         8.1730    0.7970    3.1940 C.3    15  LYS15       0.1728
     25  C          7.4090    2.0320    2.7090 C.2    15  LYS15       0.2617
     26  O          6.2490    2.1880    3.0540 O.2    15  LYS15      -0.2715
     27  CB         8.9190    0.9260    4.5300 C.3    15  LYS15       0.0311
     28  CG         9.8230    2.0770    4.6090 C.3    15  LYS15       0.0038
     29  CD        10.8260    1.9340    5.7230 C.3    15  LYS15       0.0206
     30  CE        11.9870    2.8330    5.3750 C.3    15  LYS15       0.1093
     31  NZ        12.9300    2.2730    4.3420 N.3    15  LYS15      -0.1314
     32  N          7.9830    2.8250    1.8020 N.am   16  THR16      -0.1937
     33  CA         7.2350    3.9550    1.2400 C.3    16  THR16       0.2028
     34  C          6.0790    3.4190    0.4110 C.2    16  THR16       0.2643
     35  O          4.9410    3.8770    0.5740 O.2    16  THR16      -0.2714
     36  CB         8.1280    4.9480    0.4560 C.3    16  THR16       0.1808
     37  OG1        9.0230    5.5910    1.3700 O.3    16  THR16      -0.2208
     38  CG2        7.3040    6.0200   -0.1950 C.3    16  THR16       0.0379
     39  N          6.3560    2.4140   -0.4160 N.am   17  THR17      -0.1936
     40  CA         5.3270    1.7720   -1.2150 C.3    17  THR17       0.2028
     41  C          4.1630    1.3070   -0.3500 C.2    17  THR17       0.2642
     42  O          3.0120    1.6640   -0.6290 O.2    17  THR17      -0.2714
     43  CB         5.8410    0.5410   -2.0170 C.3    17  THR17       0.1808
     44  OG1        7.0060    0.8910   -2.7490 O.3    17  THR17      -0.2208
     45  CG2        4.7830    0.0400   -2.9900 C.3    17  THR17       0.0379
     46  N          4.4450    0.5360    0.6930 N.am   18  GLN18      -0.1976
     47  CA         3.3810   -0.0020    1.5670 C.3    18  GLN18       0.1601
     48  C          2.6830    1.0550    2.4270 C.2    18  GLN18       0.2287
     49  O          1.5210    0.8860    2.7770 O.2    18  GLN18      -0.2864
     50  CB         3.9290   -1.1070    2.4750 C.3    18  GLN18       0.0394
     51  CG         4.4030   -2.3620    1.7400 C.3    18  GLN18       0.0908
     52  CD         3.2890   -3.0470    1.0030 C.2    18  GLN18       0.2608
     53  OE1        2.1370   -3.0120    1.4450 O.2    18  GLN18      -0.2717
     54  NE2        3.6150   -3.6720   -0.1580 N.am   18  GLN18      -0.0878
     55  N          6.2580   11.1090    7.4050 N.3    37  ARG37      -0.1245
     56  CA         7.5520   10.4480    7.2570 C.3    37  ARG37       0.1563
     57  C          8.6600   11.1230    8.0330 C.2    37  ARG37       0.2260
     58  O          8.5630   12.3140    8.3680 O.2    37  ARG37      -0.2867
     59  CB         7.9780   10.4930    5.8090 C.3    37  ARG37       0.0307
     60  CG         8.0910   11.9120    5.2750 C.3    37  ARG37       0.0489
     61  CD         8.9830   12.0140    4.0630 C.3    37  ARG37       0.2205
     62  NE        10.4310   12.1310    4.3690 N.pl3  37  ARG37      -0.0865
     63  CZ        11.3990   11.2510    4.0530 C.cat  37  ARG37       0.5346
     64  NH1       11.1230   10.1150    3.4440 N.pl3  37  ARG37       0.1354
     65  NH2       12.6730   11.5140    4.3620 N.pl3  37  ARG37       0.1354
     66  N          8.8220    5.5510    8.6800 N.3    90  ARG90      -0.1245
     67  CA         9.9460    5.6980    9.6300 C.3    90  ARG90       0.1563
     68  C          9.5710    6.4820   10.8860 C.2    90  ARG90       0.2260
     69  O          8.8810    7.5000   10.8220 O.2    90  ARG90      -0.2867
     70  CB        11.2270    6.3090    9.0350 C.3    90  ARG90       0.0307
     71  CG        11.9030    5.4940    7.9290 C.3    90  ARG90       0.0489
     72  CD        13.3030    6.0410    7.6590 C.3    90  ARG90       0.2205
     73  NE        14.0250    5.2780    6.6320 N.pl3  90  ARG90      -0.0865
     74  CZ        14.6390    4.1030    6.8030 C.cat  90  ARG90       0.5346
     75  NH1       14.6180    3.4700    7.9540 N.pl3  90  ARG90       0.1354
     76  NH2       15.2720    3.5360    5.7750 N.pl3  90  ARG90       0.1354
     77  N         10.1860   -8.7010    2.9780 N.3   169  ALA169     -0.1231
     78  CA        10.2060   -7.6090    2.0030 C.3   169  ALA169      0.1694
     79  C         10.3080   -8.0450    0.5380 C.2   169  ALA169      0.2593
     80  O         10.0100   -7.2430   -0.3660 O.2   169  ALA169     -0.2718
     81  CB        11.3320   -6.6110    2.3360 C.3   169  ALA169      0.0304
     82  N         10.7350   -9.2900    0.2910 N.am  170  THR170     -0.1939
     83  CA        10.9260   -9.7970   -1.0810 C.3   170  THR170      0.2028
     84  C          9.6280  -10.3600   -1.6420 C.2   170  THR170      0.2642
     85  O          9.5800  -10.6810   -2.8090 O.2   170  THR170     -0.2714
     86  CB        12.0270  -10.8770   -1.1410 C.3   170  THR170      0.1808
     87  OG1       11.6890  -11.9630   -0.2960 O.3   170  THR170     -0.2208
     88  CG2       13.3710  -10.3080   -0.6230 C.3   170  THR170      0.0379
     89  N          8.5780  -10.4940   -0.8260 N.am  171  LEU171     -0.1963
     90  CA         7.2710  -10.9200   -1.3550 C.3   171  LEU171      0.1713
     91  C          6.6860   -9.8540   -2.2780 C.2   171  LEU171      0.2458
     92  O          7.0450   -8.6770   -2.1770 O.2   171  LEU171     -0.2730
     93  CB         6.2680  -11.2340   -0.2440 C.3   171  LEU171      0.0310
     94  CG         6.6370  -12.3980    0.6470 C.3   171  LEU171      0.0022
     95  CD1        5.8360  -12.3090    1.9200 C.3   171  LEU171      0.0001
     96  CD2        6.4260  -13.7510   -0.0370 C.3   171  LEU171      0.0001
     97  N          5.8120  -10.2610   -3.2180 N.am  172  PRO172     -0.2716
     98  CA         5.1540   -9.2610   -4.0600 C.3   172  PRO172      0.1536
     99  C          4.4070   -8.1970   -3.2360 C.2   172  PRO172      0.2598
    100  O          3.8680   -8.5070   -2.1750 O.2   172  PRO172     -0.2715
    101  CB         4.1590  -10.0860   -4.8840 C.3   172  PRO172      0.0310
    102  CG         4.6820  -11.4850   -4.8440 C.3   172  PRO172      0.0237
    103  CD         5.3810  -11.6330   -3.5270 C.3   172  PRO172      0.0939
    104  N          4.3730   -6.9760   -3.7550 N.am  173  GLU173     -0.1978
    105  CA         3.7720   -5.7980   -3.0880 C.3   173  GLU173      0.1602
    106  C          2.3560   -6.0660   -2.5850 C.2   173  GLU173      0.2287
    107  O          2.0300   -5.6940   -1.4660 O.2   173  GLU173     -0.2864
    108  CB         3.7170   -4.5750   -4.0360 C.3   173  GLU173      0.0415
    109  CG         5.0470   -3.9810   -4.4660 C.3   173  GLU173      0.1163
    110  CD         5.7120   -4.6580   -5.6780 C.2   173  GLU173      0.3649
    111  OE1        6.5000   -3.9480   -6.3520 O.co2 173  GLU173     -0.2457
    112  OE2        5.4660   -5.8840   -5.9700 O.co2 173  GLU173     -0.2457
    113  N          2.2300   -8.3830    0.5190 N.3   176  ILE176     -0.1245
    114  CA         2.6150   -7.6510    1.7570 C.3   176  ILE176      0.1561
    115  C          1.4600   -6.7330    2.2150 C.2   176  ILE176      0.2260
    116  O          1.1100   -6.6900    3.3940 O.2   176  ILE176     -0.2867
    117  CB         3.9150   -6.8420    1.5320 C.3   176  ILE176      0.0252
    118  CG1        5.0650   -7.8250    1.1930 C.3   176  ILE176      0.0019
    119  CG2        4.2470   -5.9510    2.7390 C.3   176  ILE176      0.0019
    120  CD1        6.3580   -7.1420    0.8010 C.3   176  ILE176      0.0001
@<TRIPOS>BOND
     1   111   110   ar
     2   112   110   ar
     3   110   109    1
     4   101   102    1
     5   101    98    1
     6   102   103    1
     7   109   108    1
     8    98    99    1
     9    98    97    1
    10   108   105    1
    11   104    99   am
    12   104   105    1
    13   103    97    1
    14    99   100    2
    15    97    91   am
    16   105   106    1
    17    45    43    1
    18    85    84    2
    19    44    43    1
    20   106   107    2
    21    91    92    2
    22    91    90    1
    23    43    40    1
    24    84    83    1
    25    84    89   am
    26    90    89    1
    27    90    93    1
    28    40    39    1
    29    40    41    1
    30    86    83    1
    31    86    88    1
    32    86    87    1
    33    83    82    1
    34    12    11    2
    35    42    41    2
    36    10    11    1
    37    10     9    1
    38    39    34   am
    39    80    79    2
    40    41    46   am
    41    93    94    1
    42    38    36    1
    43    11    13   am
    44    54    52   am
    45    96    94    1
    46    20    19    1
    47    20    21    1
    48    82    79   am
    49    34    35    2
    50    34    33    1
    51    36    33    1
    52    36    37    1
    53   113   114    1
    54    79    78    1
    55    19    15   am
    56     9     3   am
    57    94    95    1
    58    46    47    1
    59   120   118    1
    60    52    53    2
    61    52    51    1
    62    22    21    2
    63    13    14    1
    64    15    16    2
    65    15    14    1
    66    21    23   am
    67   118   117    1
    68    33    32    1
    69     4     3    2
    70     3     2    1
    71    14    17    1
    72   117   114    1
    73   117   119    1
    74    47    48    1
    75    47    50    1
    76    51    50    1
    77   114   115    1
    78    32    25   am
    79    78    81    1
    80    78    77    1
    81     5     2    1
    82     5     6    1
    83    23    24    1
    84   115   116    2
    85     2     1    1
    86    48    49    2
    87    25    26    2
    88    25    24    1
    89    17    18    1
    90     8     6   ar
    91    24    27    1
    92     6     7   ar
    93    64    63    1
    94    63    65    1
    95    63    62    2
    96    61    62    1
    97    61    60    1
    98    31    30    1
    99    27    28    1
   100    28    29    1
   101    60    59    1
   102    30    29    1
   103    76    74    1
   104    59    56    1
   105    73    74    2
   106    73    72    1
   107    74    75    1
   108    56    55    1
   109    56    57    1
   110    72    71    1
   111    71    70    1
   112    57    58    2
   113    66    67    1
   114    70    67    1
   115    67    68    1
   116    69    68    2
