@<TRIPOS>MOLECULE
tmp/5x8iB00.pdb
 172 160 0 0 0
SMALL
GASTEIGER

@<TRIPOS>ATOM
      1  N        -19.3170   13.4550   19.0460 N.3    14  LEU14      -0.1231
      2  CA       -19.7590   12.5490   17.9920 C.3    14  LEU14       0.1693
      3  C        -20.9860   13.0690   17.2550 C.2    14  LEU14       0.2593
      4  O        -21.1740   12.7630   16.0740 O.2    14  LEU14      -0.2718
      5  CB       -20.0600   11.1770   18.5840 C.3    14  LEU14       0.0284
      6  CG       -18.8900   10.4840   19.2660 C.3    14  LEU14       0.0019
      7  CD1      -19.3750    9.2080   19.9550 C.3    14  LEU14       0.0001
      8  CD2      -17.8000   10.1840   18.2400 C.3    14  LEU14       0.0001
      9  N        -21.8340   13.8220   17.9300 N.am   15  GLY15      -0.1942
     10  CA       -23.0350   14.3210   17.3050 C.3    15  GLY15       0.2014
     11  C        -23.7770   15.1970   18.2870 C.2    15  GLY15       0.2638
     12  O        -23.5870   15.1040   19.5040 O.2    15  GLY15      -0.2714
     13  N        -24.6390   16.0410   17.7250 N.am   16  GLU16      -0.1977
     14  CA       -25.2660   17.1430   18.4350 C.3    16  GLU16       0.1602
     15  C        -26.7170   17.2490   18.0050 C.2    16  GLU16       0.2287
     16  O        -27.0360   17.0360   16.8320 O.2    16  GLU16      -0.2864
     17  CB       -24.5430   18.4560   18.1310 C.3    16  GLU16       0.0415
     18  CG       -24.7450   19.5200   19.1650 C.3    16  GLU16       0.1163
     19  CD       -23.6710   20.5720   19.0900 C.2    16  GLU16       0.3649
     20  OE1      -23.7990   21.4940   18.2520 O.co2  16  GLU16      -0.2457
     21  OE2      -22.6830   20.4540   19.8500 O.co2  16  GLU16      -0.2457
     22  N        -31.3890   17.7210   22.0000 N.3    19  PHE19      -0.1241
     23  CA       -31.3050   17.1590   23.3440 C.3    19  PHE19       0.1605
     24  C        -30.0420   17.5940   24.0760 C.2    19  PHE19       0.2264
     25  O        -30.0250   17.6400   25.3100 O.2    19  PHE19      -0.2867
     26  CB       -31.3260   15.6400   23.2620 C.3    19  PHE19       0.0534
     27  CG       -30.1570   15.0760   22.5050 C.ar   19  PHE19      -0.0203
     28  CD1      -30.2180   14.9210   21.1290 C.ar   19  PHE19      -0.0042
     29  CD2      -28.9800   14.7420   23.1590 C.ar   19  PHE19      -0.0042
     30  CE1      -29.1350   14.4290   20.4170 C.ar   19  PHE19      -0.0003
     31  CE2      -27.8930   14.2390   22.4480 C.ar   19  PHE19      -0.0003
     32  CZ       -27.9750   14.0860   21.0750 C.ar   19  PHE19      -0.0000
     33  N        -23.6950   13.9910   22.1120 N.3    22  VAL22      -0.1245
     34  CA       -23.0830   12.7100   22.4470 C.3    22  VAL22       0.1561
     35  C        -21.5900   12.8630   22.2120 C.2    22  VAL22       0.2260
     36  O        -21.1670   13.2590   21.1200 O.2    22  VAL22      -0.2867
     37  CB       -23.6740   11.5520   21.6240 C.3    22  VAL22       0.0252
     38  CG1      -22.9160   10.2400   21.8950 C.3    22  VAL22       0.0019
     39  CG2      -25.1600   11.3930   21.9320 C.3    22  VAL22       0.0019
     40  N        -19.3820    6.0640   24.7110 N.3    36  ALA36      -0.1245
     41  CA       -20.1910    7.1800   24.2380 C.3    36  ALA36       0.1562
     42  C        -21.0080    7.7130   25.4060 C.2    36  ALA36       0.2260
     43  O        -21.6040    6.9340   26.1590 O.2    36  ALA36      -0.2867
     44  CB       -21.1180    6.7510   23.0970 C.3    36  ALA36       0.0290
     45  N        -23.9510   10.5080   26.4310 N.3    38  LYS38      -0.1245
     46  CA       -24.9570   11.4920   26.0820 C.3    38  LYS38       0.1561
     47  C        -25.0870   12.4970   27.2230 C.2    38  LYS38       0.2260
     48  O        -25.4310   12.1160   28.3480 O.2    38  LYS38      -0.2867
     49  CB       -26.2870   10.7960   25.8070 C.3    38  LYS38       0.0271
     50  CG       -27.4340   11.7360   25.5740 C.3    38  LYS38       0.0035
     51  CD       -28.7280   10.9520   25.5370 C.3    38  LYS38       0.0206
     52  CE       -29.8900   11.8220   25.1140 C.3    38  LYS38       0.1093
     53  NZ       -31.1280   11.0000   24.9550 N.3    38  LYS38      -0.1314
     54  N        -35.8240    7.7010   28.9060 N.3    53  GLU53      -0.1245
     55  CA       -34.8940    6.8100   28.2190 C.3    53  GLU53       0.1567
     56  C        -34.1960    5.8880   29.2090 C.2    53  GLU53       0.2260
     57  O        -34.0760    4.6820   28.9720 O.2    53  GLU53      -0.2867
     58  CB       -33.8720    7.6320   27.4390 C.3    53  GLU53       0.0388
     59  CG       -32.8540    6.7910   26.6690 C.3    53  GLU53       0.1160
     60  CD       -32.0460    7.6300   25.6960 C.2    53  GLU53       0.3649
     61  OE1      -31.7310    8.7900   26.0570 O.co2  53  GLU53      -0.2457
     62  OE2      -31.7550    7.1480   24.5710 O.co2  53  GLU53      -0.2457
     63  N        -29.1840   -0.3770   21.7190 N.3    72  VAL72      -0.1245
     64  CA       -27.9210    0.0830   22.2870 C.3    72  VAL72       0.1561
     65  C        -27.8900   -0.1750   23.7980 C.2    72  VAL72       0.2260
     66  O        -28.9190   -0.1370   24.4810 O.2    72  VAL72      -0.2867
     67  CB       -27.7000    1.5720   21.9610 C.3    72  VAL72       0.0252
     68  CG1      -28.7350    2.4740   22.6540 C.3    72  VAL72       0.0019
     69  CG2      -26.2780    2.0060   22.2940 C.3    72  VAL72       0.0019
     70  N        -23.0300    5.0250   27.1960 N.3    88  PHE88      -0.1227
     71  CA       -23.3900    3.9680   26.2630 C.3    88  PHE88       0.1736
     72  C        -22.1340    3.2610   25.7650 C.2    88  PHE88       0.2595
     73  O        -21.0480    3.8430   25.7360 O.2    88  PHE88      -0.2718
     74  CB       -24.1420    4.5330   25.0440 C.3    88  PHE88       0.0547
     75  CG       -25.4980    5.0880   25.3650 C.ar   88  PHE88      -0.0202
     76  CD1      -26.5850    4.2320   25.5540 C.ar   88  PHE88      -0.0042
     77  CD2      -25.6950    6.4610   25.4570 C.ar   88  PHE88      -0.0042
     78  CE1      -27.8410    4.7440   25.8570 C.ar   88  PHE88      -0.0003
     79  CE2      -26.9560    6.9810   25.7680 C.ar   88  PHE88      -0.0003
     80  CZ       -28.0240    6.1230   25.9440 C.ar   88  PHE88      -0.0000
     81  N        -22.2900    1.9950   25.3760 N.am   89  GLU89      -0.1965
     82  CA       -21.3020    1.3660   24.5150 C.3    89  GLU89       0.1733
     83  C        -21.0350    2.2480   23.3000 C.2    89  GLU89       0.2616
     84  O        -21.9470    2.8660   22.7310 O.2    89  GLU89      -0.2715
     85  CB       -21.7860   -0.0150   24.0620 C.3    89  GLU89       0.0429
     86  CG       -23.0560    0.0580   23.2360 C.3    89  GLU89       0.1163
     87  CD       -23.5070   -1.2810   22.6740 C.2    89  GLU89       0.3649
     88  OE1      -22.6500   -2.1160   22.3100 O.co2  89  GLU89      -0.2457
     89  OE2      -24.7300   -1.4870   22.5880 O.co2  89  GLU89      -0.2457
     90  N        -19.7750    2.3330   22.9170 N.am   90  LEU90      -0.1963
     91  CA       -19.4090    3.1340   21.7600 C.3    90  LEU90       0.1728
     92  C        -19.7210    2.3530   20.4870 C.2    90  LEU90       0.2616
     93  O        -19.2010    1.2510   20.2870 O.2    90  LEU90      -0.2715
     94  CB       -17.9330    3.5130   21.8130 C.3    90  LEU90       0.0311
     95  CG       -17.4630    4.3950   20.6530 C.3    90  LEU90       0.0022
     96  CD1      -18.2710    5.6940   20.5880 C.3    90  LEU90       0.0001
     97  CD2      -15.9570    4.6840   20.7880 C.3    90  LEU90       0.0001
     98  N        -20.5630    2.9270   19.6340 N.am   91  LEU91      -0.1963
     99  CA       -20.8800    2.3680   18.3300 C.3    91  LEU91       0.1728
    100  C        -20.1550    3.1650   17.2540 C.2    91  LEU91       0.2616
    101  O        -19.5260    4.1920   17.5230 O.2    91  LEU91      -0.2715
    102  CB       -22.3960    2.3700   18.1020 C.3    91  LEU91       0.0311
    103  CG       -23.2470    1.7100   19.1930 C.3    91  LEU91       0.0022
    104  CD1      -24.7510    1.9690   18.9710 C.3    91  LEU91       0.0001
    105  CD2      -22.9480    0.2140   19.2470 C.3    91  LEU91       0.0001
    106  N        -20.2450    2.6860   16.0150 N.am   92  GLY92      -0.1955
    107  CA       -19.6520    3.3580   14.8780 C.3    92  GLY92       0.1869
    108  C        -20.5830    4.3970   14.2870 C.2    92  GLY92       0.2309
    109  O        -21.4800    4.9260   14.9480 O.2    92  GLY92      -0.2863
    110  N        -23.5190    6.2150   12.1020 N.3    94  SER94      -0.1217
    111  CA       -24.8930    5.8990   11.7700 C.3    94  SER94       0.1889
    112  C        -24.9800    5.4440   10.3190 C.2    94  SER94       0.2288
    113  O        -24.0930    5.7120    9.5010 O.2    94  SER94      -0.2866
    114  CB       -25.8080    7.1020   11.9840 C.3    94  SER94       0.2089
    115  OG       -25.6150    8.0590   10.9520 O.3    94  SER94      -0.2183
    116  N        -24.7870    8.5200    8.2030 N.3    97  ASP97      -0.1239
    117  CA       -23.3960    8.9660    8.0640 C.3    97  ASP97       0.1674
    118  C        -22.6480    8.1640    7.0080 C.2    97  ASP97       0.2266
    119  O        -21.8600    8.7250    6.2370 O.2    97  ASP97      -0.2867
    120  CB       -22.6330    8.8450    9.3900 C.3    97  ASP97       0.1410
    121  CG       -23.0660    9.8560   10.4280 C.2    97  ASP97       0.3668
    122  OD1      -23.6250   10.8960   10.0380 O.co2  97  ASP97      -0.2456
    123  OD2      -22.8190    9.6150   11.6420 O.co2  97  ASP97      -0.2456
    124  N        -35.1180    6.4930   12.1550 N.3   137  LYS137     -0.1245
    125  CA       -34.5400    7.1400   10.9890 C.3   137  LYS137      0.1561
    126  C        -33.1120    6.6330   10.8570 C.2   137  LYS137      0.2260
    127  O        -32.5820    6.0610   11.8140 O.2   137  LYS137     -0.2867
    128  CB       -34.5740    8.6720   11.1340 C.3   137  LYS137      0.0271
    129  CG       -33.9910    9.1590   12.4210 C.3   137  LYS137      0.0035
    130  CD       -34.1730   10.6820   12.5520 C.3   137  LYS137      0.0206
    131  CE       -33.6280   11.1600   13.8740 C.3   137  LYS137      0.1093
    132  NZ       -33.7100   12.6460   13.9470 N.3   137  LYS137     -0.1314
    133  N        -30.3410    8.0070   10.9540 N.3   139  GLU139     -0.1231
    134  CA       -29.4570    8.6110   11.9340 C.3   139  GLU139      0.1699
    135  C        -29.5130    7.9140   13.2830 C.2   139  GLU139      0.2592
    136  O        -28.5650    8.0570   14.0660 O.2   139  GLU139     -0.2718
    137  CB       -29.8060   10.0930   12.1200 C.3   139  GLU139      0.0402
    138  CG       -29.5690   10.9740   10.8850 C.3   139  GLU139      0.1161
    139  CD       -30.7090   10.9630    9.8580 C.2   139  GLU139      0.3649
    140  OE1      -31.6820   10.1870    9.9920 O.co2 139  GLU139     -0.2457
    141  OE2      -30.6260   11.7590    8.9010 O.co2 139  GLU139     -0.2457
    142  N        -30.5980    7.1870   13.5810 N.am  140  ASN140     -0.1974
    143  CA       -30.7510    6.4620   14.8430 C.3   140  ASN140      0.1688
    144  C        -30.4620    4.9690   14.7060 C.2   140  ASN140      0.2292
    145  O        -30.6950    4.2100   15.6560 O.2   140  ASN140     -0.2864
    146  CB       -32.1640    6.6650   15.4130 C.3   140  ASN140      0.1181
    147  CG       -32.3020    7.9650   16.1870 C.2   140  ASN140      0.2629
    148  OD1      -31.3160    8.4830   16.7120 O.2   140  ASN140     -0.2716
    149  ND2      -33.5280    8.5030   16.2660 N.am  140  ASN140     -0.0877
    150  N        -27.2540    2.6890   14.1020 N.3   142  LEU142     -0.1245
    151  CA       -25.8060    2.8400   14.1040 C.3   142  LEU142      0.1561
    152  C        -25.1410    1.4920   13.8820 C.2   142  LEU142      0.2260
    153  O        -25.5810    0.4720   14.4340 O.2   142  LEU142     -0.2867
    154  CB       -25.3000    3.4550   15.4200 C.3   142  LEU142      0.0270
    155  CG       -25.2140    4.9810   15.5490 C.3   142  LEU142      0.0019
    156  CD1      -26.5460    5.6450   15.2930 C.3   142  LEU142      0.0001
    157  CD2      -24.6740    5.3830   16.9180 C.3   142  LEU142      0.0001
    158  N        -30.7420    3.2450   18.4630 N.3   171  VAL171     -0.1231
    159  CA       -30.4440    4.1670   19.5480 C.3   171  VAL171      0.1692
    160  C        -31.6180    5.1260   19.7100 C.2   171  VAL171      0.2592
    161  O        -32.5500    5.1490   18.9050 O.2   171  VAL171     -0.2718
    162  CB       -29.1270    4.9570   19.3280 C.3   171  VAL171      0.0266
    163  CG1      -27.9150    4.0130   19.0650 C.3   171  VAL171      0.0020
    164  CG2      -29.2960    6.0010   18.2160 C.3   171  VAL171      0.0020
    165  N        -31.5440    5.9280   20.7770 N.am  172  ASP172     -0.1974
    166  CA       -32.4770    7.0060   21.1000 C.3   172  ASP172      0.1709
    167  C        -33.8810    6.6550   21.5730 C.2   172  ASP172      0.2293
    168  O        -34.8740    6.9140   20.8850 O.2   172  ASP172     -0.2864
    169  CB       -32.6410    7.9820   19.9270 C.3   172  ASP172      0.1436
    170  CG       -33.5490    9.1610   20.2720 C.2   172  ASP172      0.3671
    171  OD1      -33.8740    9.3630   21.4620 O.co2 172  ASP172     -0.2456
    172  OD2      -33.9150    9.9170   19.3560 O.co2 172  ASP172     -0.2456
@<TRIPOS>BOND
     1   119   118    2
     2   118   117    1
     3   117   116    1
     4   117   120    1
     5   141   139   ar
     6   120   121    1
     7   113   112    2
     8   139   140   ar
     9   139   138    1
    10   122   121   ar
    11   112   111    1
    12   121   123   ar
    13   126   125    1
    14   126   127    2
    15   138   137    1
    16   115   114    1
    17   133   134    1
    18   125   128    1
    19   125   124    1
    20   128   129    1
    21   111   114    1
    22   111   110    1
    23   134   137    1
    24   134   135    1
    25   129   130    1
    26   130   131    1
    27   135   142   am
    28   135   136    2
    29   142   143    1
    30   131   132    1
    31   152   151    1
    32   152   153    2
    33   150   151    1
    34   151   154    1
    35   108   107    1
    36   108   109    2
    37   144   143    1
    38   144   145    2
    39   143   146    1
    40   107   106    1
    41   156   155    1
    42   146   147    1
    43   154   155    1
    44   155   157    1
    45   106   100   am
    46     4     3    2
    47   147   149   am
    48   147   148    2
    49    16    15    2
    50   100   101    2
    51   100    99    1
    52     3     9   am
    53     3     2    1
    54    10     9    1
    55    10    11    1
    56    13    11   am
    57    13    14    1
    58     2     5    1
    59     2     1    1
    60    15    14    1
    61   102    99    1
    62   102   103    1
    63    17    14    1
    64    17    18    1
    65   164   162    1
    66     8     6    1
    67    20    19   ar
    68    11    12    2
    69    99    98    1
    70   158   159    1
    71     5     6    1
    72   161   160    2
    73   104   103    1
    74   163   162    1
    75    19    18    1
    76    19    21   ar
    77   103   105    1
    78     6     7    1
    79   162   159    1
    80   172   170   ar
    81   159   160    1
    82    98    92   am
    83   160   165   am
    84   169   170    1
    85   169   166    1
    86   170   171   ar
    87    93    92    2
    88    30    32   ar
    89    30    28   ar
    90    92    91    1
    91    96    95    1
    92    95    97    1
    93    95    94    1
    94   165   166    1
    95   168   167    2
    96    32    31   ar
    97   166   167    1
    98    36    35    2
    99    28    27   ar
   100    37    38    1
   101    37    39    1
   102    37    34    1
   103    63    64    1
   104    91    94    1
   105    91    90    1
   106    67    64    1
   107    67    69    1
   108    67    68    1
   109    22    23    1
   110    33    34    1
   111    35    34    1
   112    64    65    1
   113    88    87   ar
   114    31    29   ar
   115    27    29   ar
   116    27    26    1
   117    89    87   ar
   118    87    86    1
   119    84    83    2
   120    90    83   am
   121    44    41    1
   122    86    85    1
   123    26    23    1
   124    83    82    1
   125    23    24    1
   126    65    66    2
   127    85    82    1
   128    24    25    2
   129    41    40    1
   130    41    42    1
   131    82    81    1
   132    62    60   ar
   133    53    52    1
   134    74    75    1
   135    74    71    1
   136    52    51    1
   137    75    77   ar
   138    75    76   ar
   139    81    72   am
   140    42    43    2
   141    77    79   ar
   142    51    50    1
   143    76    78   ar
   144    50    49    1
   145    60    61   ar
   146    60    59    1
   147    73    72    2
   148    72    71    1
   149    79    80   ar
   150    49    46    1
   151    78    80   ar
   152    46    45    1
   153    46    47    1
   154    71    70    1
   155    59    58    1
   156    47    48    2
   157    58    55    1
   158    55    54    1
   159    55    56    1
   160    57    56    2
