@<TRIPOS>MOLECULE
tmp/5x8oA00.pdb
 178 168 0 0 0
SMALL
GASTEIGER

@<TRIPOS>ATOM
      1  N         31.6750   25.1120   17.6220 N.3    66  ARG66      -0.1245
      2  CA        31.2440   26.4480   17.1680 C.3    66  ARG66       0.1563
      3  C         29.9110   26.7870   17.7990 C.2    66  ARG66       0.2260
      4  O         29.7030   27.9130   18.1390 O.2    66  ARG66      -0.2867
      5  CB        31.0760   26.5600   15.6470 C.3    66  ARG66       0.0307
      6  CG        32.3690   26.6340   14.8580 C.3    66  ARG66       0.0489
      7  CD        32.2170   27.3670   13.5330 C.3    66  ARG66       0.2205
      8  NE        33.5510   27.8260   13.1400 N.pl3  66  ARG66      -0.0865
      9  CZ        34.3590   27.2790   12.2190 C.cat  66  ARG66       0.5346
     10  NH1       33.9920   26.2380   11.4710 N.pl3  66  ARG66       0.1354
     11  NH2       35.5650   27.8140   12.0190 N.pl3  66  ARG66       0.1354
     12  N         43.2250   22.6470   14.0520 N.3    91  ARG91      -0.1231
     13  CA        43.5390   23.6840   13.0310 C.3    91  ARG91       0.1694
     14  C         42.3860   24.4900   12.5250 C.2    91  ARG91       0.2592
     15  O         42.6190   25.4300   11.8320 O.2    91  ARG91      -0.2718
     16  CB        44.2140   23.1190   11.7820 C.3    91  ARG91       0.0321
     17  CG        45.5170   22.3950   12.0040 C.3    91  ARG91       0.0489
     18  CD        46.5690   23.2850   12.6050 C.3    91  ARG91       0.2205
     19  NE        47.0600   24.3280   11.7070 N.pl3  91  ARG91      -0.0865
     20  CZ        48.3250   24.4370   11.2890 C.cat  91  ARG91       0.5346
     21  NH1       49.2660   23.5730   11.6610 N.pl3  91  ARG91       0.1354
     22  NH2       48.6570   25.4300   10.4740 N.pl3  91  ARG91       0.1354
     23  N         41.1500   24.1440   12.8360 N.am   92  ALA92      -0.1966
     24  CA        40.0070   24.9200   12.3140 C.3    92  ALA92       0.1728
     25  C         40.0980   26.4200   12.6160 C.2    92  ALA92       0.2616
     26  O         39.9240   27.2750   11.7100 O.2    92  ALA92      -0.2715
     27  CB        38.7040   24.3670   12.8620 C.3    92  ALA92       0.0334
     28  N         40.3510   26.7050   13.9000 N.am   93  GLN93      -0.1963
     29  CA        40.7100   28.0380   14.3470 C.3    93  GLN93       0.1733
     30  C         41.7290   28.0290   15.4810 C.2    93  GLN93       0.2617
     31  O         41.9220   27.0110   16.1490 O.2    93  GLN93      -0.2715
     32  CB        39.4680   28.8420   14.7240 C.3    93  GLN93       0.0408
     33  CG        38.4250   28.1530   15.5730 C.3    93  GLN93       0.0908
     34  CD        37.4210   29.1650   16.1360 C.2    93  GLN93       0.2608
     35  OE1       37.7440   30.0200   17.0220 O.2    93  GLN93      -0.2717
     36  NE2       36.2060   29.1020   15.6160 N.am   93  GLN93      -0.0878
     37  N         42.4090   29.1600   15.6270 N.am   94  SER94      -0.1950
     38  CA        43.2930   29.4530   16.7500 C.3    94  SER94       0.1924
     39  C         43.3500   30.9370   16.9630 C.2    94  SER94       0.2314
     40  O         42.7780   31.6920   16.2050 O.2    94  SER94      -0.2863
     41  CB        44.7170   29.0000   16.4580 C.3    94  SER94       0.2116
     42  OG        45.4860   28.9970   17.6510 O.3    94  SER94      -0.2180
     43  N         48.5710   30.8730   15.5520 N.3    97  ILE97      -0.1245
     44  CA        48.7540   29.6240   14.8310 C.3    97  ILE97       0.1561
     45  C         50.2150   29.1850   14.9240 C.2    97  ILE97       0.2260
     46  O         51.0970   29.8580   14.3900 O.2    97  ILE97      -0.2867
     47  CB        48.3710   29.7530   13.3470 C.3    97  ILE97       0.0252
     48  CG1       46.9870   30.3710   13.1720 C.3    97  ILE97       0.0019
     49  CG2       48.4150   28.3960   12.6500 C.3    97  ILE97       0.0019
     50  CD1       46.8000   30.9250   11.7700 C.3    97  ILE97       0.0001
     51  N         52.6130   27.8740   11.0540 N.3   100  PRO100     -0.2102
     52  CA        51.7610   28.2920    9.9560 C.3   100  PRO100      0.1504
     53  C         52.3350   27.8420    8.6490 C.2   100  PRO100      0.2575
     54  O         53.5300   27.6190    8.5670 O.2   100  PRO100     -0.2718
     55  CB        51.7790   29.8030   10.0370 C.3   100  PRO100      0.0282
     56  CG        53.0000   30.1300   10.7920 C.3   100  PRO100      0.0208
     57  CD        53.2650   28.9970   11.7210 C.3   100  PRO100      0.0893
     58  N         51.4900   27.7370    7.6350 N.am  101  ARG101     -0.1980
     59  CA        51.9260   27.2050    6.3580 C.3   101  ARG101      0.1597
     60  C         52.7870   28.2040    5.6110 C.2   101  ARG101      0.2287
     61  O         52.5040   29.4100    5.6110 O.2   101  ARG101     -0.2864
     62  CB        50.7530   26.8030    5.4690 C.3   101  ARG101      0.0334
     63  CG        49.7720   25.8300    6.0870 C.3   101  ARG101      0.0492
     64  CD        50.4280   24.5760    6.6260 C.3   101  ARG101      0.2205
     65  NE        50.8760   23.7900    5.5070 N.pl3 101  ARG101     -0.0865
     66  CZ        51.5260   22.6380    5.5790 C.cat 101  ARG101      0.5346
     67  NH1       51.8730   22.1000    6.7370 N.pl3 101  ARG101      0.1354
     68  NH2       51.8310   22.0250    4.4560 N.pl3 101  ARG101      0.1354
     69  N         45.5680   22.9690    1.5740 N.3   118  TRP118     -0.1241
     70  CA        46.1860   21.9410    2.4280 C.3   118  TRP118      0.1605
     71  C         45.1570   21.0000    3.0810 C.2   118  TRP118      0.2264
     72  O         44.1710   21.4470    3.6450 O.2   118  TRP118     -0.2867
     73  CB        47.0180   22.6400    3.4860 C.3   118  TRP118      0.0550
     74  CG        47.7800   21.8250    4.4520 C.ar  118  TRP118      0.0003
     75  CD1       48.7110   20.8690    4.1800 C.ar  118  TRP118      0.0946
     76  CD2       47.7700   21.9890    5.8850 C.ar  118  TRP118      0.0152
     77  NE1       49.2650   20.4070    5.3560 N.ar  118  TRP118     -0.2442
     78  CE2       48.7020   21.0770    6.4170 C.ar  118  TRP118      0.0810
     79  CE3       47.0680   22.8190    6.7620 C.ar  118  TRP118      0.0012
     80  CZ2       48.9330   20.9560    7.8110 C.ar  118  TRP118      0.0191
     81  CZ3       47.2970   22.6820    8.1530 C.ar  118  TRP118      0.0001
     82  CH2       48.2290   21.7680    8.6520 C.ar  118  TRP118      0.0015
     83  N         43.5450   21.0910    7.0520 N.3   121  ARG121     -0.1231
     84  CA        42.4080   21.8210    7.5200 C.3   121  ARG121      0.1694
     85  C         41.3440   21.7200    6.4840 C.2   121  ARG121      0.2592
     86  O         41.5630   22.0810    5.3050 O.2   121  ARG121     -0.2718
     87  CB        42.7400   23.3010    7.6680 C.3   121  ARG121      0.0321
     88  CG        41.5290   24.1970    7.9230 C.3   121  ARG121      0.0489
     89  CD        41.9190   25.4490    8.6830 C.3   121  ARG121      0.2205
     90  NE        40.7970   26.3240    9.0430 N.pl3 121  ARG121     -0.0865
     91  CZ        40.1270   27.1040    8.1870 C.cat 121  ARG121      0.5346
     92  NH1       40.4080   27.1160    6.8880 N.pl3 121  ARG121      0.1354
     93  NH2       39.1480   27.8790    8.6260 N.pl3 121  ARG121      0.1354
     94  N         40.1580   21.3380    6.9440 N.am  122  VAL122     -0.1966
     95  CA        38.9970   21.3730    6.0670 C.3   122  VAL122      0.1727
     96  C         38.8200   22.7860    5.5470 C.2   122  VAL122      0.2616
     97  O         38.6270   23.7040    6.3300 O.2   122  VAL122     -0.2715
     98  CB        37.7040   20.9440    6.7750 C.3   122  VAL122      0.0290
     99  CG1       36.4890   21.1820    5.8600 C.3   122  VAL122      0.0023
    100  CG2       37.8230   19.4850    7.2330 C.3   122  VAL122      0.0023
    101  N         38.8890   22.9300    4.2280 N.am  123  GLY123     -0.1955
    102  CA        38.7270   24.2140    3.5510 C.3   123  GLY123      0.1869
    103  C         40.0410   24.9290    3.2560 C.2   123  GLY123      0.2309
    104  O         40.0280   26.0440    2.7420 O.2   123  GLY123     -0.2863
    105  N         43.7270   26.8750    3.9790 N.3   125  VAL125     -0.1231
    106  CA        44.1650   28.0020    4.7850 C.3   125  VAL125      0.1692
    107  C         44.1510   29.2330    3.8920 C.2   125  VAL125      0.2593
    108  O         44.2920   29.1220    2.6620 O.2   125  VAL125     -0.2718
    109  CB        45.5930   27.7950    5.3110 C.3   125  VAL125      0.0266
    110  CG1       45.6910   26.5140    6.1390 C.3   125  VAL125      0.0020
    111  CG2       46.6120   27.7510    4.1900 C.3   125  VAL125      0.0020
    112  N         44.0020   30.4100    4.4900 N.am  126  GLY126     -0.1942
    113  CA        43.8710   31.6480    3.6950 C.3   126  GLY126      0.2014
    114  C         45.1530   32.3440    3.2350 C.2   126  GLY126      0.2639
    115  O         45.0770   33.3780    2.5610 O.2   126  GLY126     -0.2714
    116  N         46.3170   31.8280    3.6230 N.am  127  CYS127     -0.1967
    117  CA        47.5710   32.3710    3.1410 C.3   127  CYS127      0.1712
    118  C         48.7650   31.4500    3.3890 C.2   127  CYS127      0.2296
    119  O         48.8070   30.6470    4.3580 O.2   127  CYS127     -0.2864
    120  CB        47.8790   33.7340    3.7650 C.3   127  CYS127      0.0983
    121  SG        48.5340   33.6750    5.4400 S.3   127  CYS127     -0.0798
    122  N         44.8860   33.7960   -1.7170 N.3   145  ARG145     -0.1245
    123  CA        44.1080   33.4420   -2.9120 C.3   145  ARG145      0.1563
    124  C         43.9660   34.6300   -3.8670 C.2   145  ARG145      0.2260
    125  O         44.0790   34.4740   -5.1020 O.2   145  ARG145     -0.2867
    126  CB        42.7230   32.8840   -2.5390 C.3   145  ARG145      0.0307
    127  CG        42.8130   31.4360   -2.0880 C.3   145  ARG145      0.0489
    128  CD        41.4800   30.6930   -1.9020 C.3   145  ARG145      0.2205
    129  NE        41.7230   29.2980   -1.4770 N.pl3 145  ARG145     -0.0865
    130  CZ        42.1030   28.9190   -0.2500 C.cat 145  ARG145      0.5346
    131  NH1       42.2590   29.8180    0.7220 N.pl3 145  ARG145      0.1354
    132  NH2       42.3360   27.6320    0.0180 N.pl3 145  ARG145      0.1354
    133  N         46.3560   39.5940    7.9510 N.3   191  ASN191     -0.1240
    134  CA        47.3390   38.6780    8.4790 C.3   191  ASN191      0.1653
    135  C         48.4500   39.4220    9.1530 C.2   191  ASN191      0.2266
    136  O         48.9550   40.3660    8.5900 O.2   191  ASN191     -0.2867
    137  CB        47.9190   37.8290    7.3740 C.3   191  ASN191      0.1155
    138  CG        46.8950   36.8820    6.7870 C.2   191  ASN191      0.2627
    139  OD1       46.5600   35.8060    7.3410 O.2   191  ASN191     -0.2716
    140  ND2       46.3800   37.2850    5.6490 N.am  191  ASN191     -0.0877
    141  N         51.3190   32.8690   13.2220 N.3   204  LEU204     -0.1245
    142  CA        50.4510   33.7350   12.4200 C.3   204  LEU204      0.1561
    143  C         49.1660   34.0570   13.1760 C.2   204  LEU204      0.2260
    144  O         48.5990   33.1750   13.8080 O.2   204  LEU204     -0.2867
    145  CB        50.1370   33.1190   11.0220 C.3   204  LEU204      0.0270
    146  CG        49.1660   33.9080   10.0890 C.3   204  LEU204      0.0019
    147  CD1       49.6420   35.2870    9.6680 C.3   204  LEU204      0.0001
    148  CD2       48.8160   33.1110    8.8480 C.3   204  LEU204      0.0001
    149  N         45.3720   35.7290   12.0900 N.3   206  THR206     -0.1218
    150  CA        44.5150   36.0870   10.9880 C.3   206  THR206      0.1862
    151  C         43.3330   36.9390   11.4110 C.2   206  THR206      0.2287
    152  O         42.9130   36.8870   12.5150 O.2   206  THR206     -0.2866
    153  CB        44.0010   34.8400   10.2520 C.3   206  THR206      0.1770
    154  OG1       43.0230   34.1330   11.0340 O.3   206  THR206     -0.2211
    155  CG2       45.1530   33.9060    9.9440 C.3   206  THR206      0.0375
    156  N         40.5190   36.4720   10.1270 N.3   208  SER208     -0.1202
    157  CA        39.5180   35.4330   10.1340 C.3   208  SER208      0.2020
    158  C         39.3100   34.9820   11.6000 C.2   208  SER208      0.2618
    159  O         38.1870   35.0180   12.1010 O.2   208  SER208     -0.2717
    160  CB        39.9530   34.3170    9.1470 C.3   208  SER208      0.2103
    161  OG        39.2540   33.0970    9.3130 O.3   208  SER208     -0.2182
    162  N         40.4040   34.6510   12.2920 N.am  209  ASP209     -0.1973
    163  CA        40.3430   34.2490   13.6820 C.3   209  ASP209      0.1709
    164  C         39.8790   35.3780   14.6360 C.2   209  ASP209      0.2293
    165  O         39.0160   35.1300   15.4920 O.2   209  ASP209     -0.2864
    166  CB        41.6840   33.6880   14.1420 C.3   209  ASP209      0.1436
    167  CG        41.9710   32.3060   13.5830 C.2   209  ASP209      0.3671
    168  OD1       41.0930   31.4350   13.6250 O.co2 209  ASP209     -0.2456
    169  OD2       43.1110   32.0610   13.1540 O.co2 209  ASP209     -0.2456
    170  N         36.1390   35.8590   14.5760 N.3   212  LYS212     -0.1245
    171  CA        35.4730   34.7620   15.2960 C.3   212  LYS212      0.1561
    172  C         35.5630   34.9280   16.8290 C.2   212  LYS212      0.2260
    173  O         34.6040   34.6870   17.5400 O.2   212  LYS212     -0.2867
    174  CB        36.0460   33.3960   14.9070 C.3   212  LYS212      0.0271
    175  CG        35.5650   32.7850   13.6100 C.3   212  LYS212      0.0035
    176  CD        36.5650   31.7260   13.1560 C.3   212  LYS212      0.0206
    177  CE        36.4230   31.3250   11.6850 C.3   212  LYS212      0.1093
    178  NZ        37.7160   30.8200   11.0660 N.3   212  LYS212     -0.1314
@<TRIPOS>BOND
     1   125   124    2
     2   124   123    1
     3   123   126    1
     4   123   122    1
     5   126   127    1
     6   127   128    1
     7   128   129    1
     8   129   130    2
     9   130   132    1
    10   130   131    1
    11    69    70    1
    12    70    71    1
    13    70    73    1
    14   115   114    2
    15   108   107    2
    16   104   103    2
    17    71    72    2
    18   117   118    1
    19   117   116    1
    20   117   120    1
    21   114   116   am
    22   114   113    1
    23   103   102    1
    24   118   119    2
    25    73    74    1
    26   102   101    1
    27   113   112    1
    28   120   121    1
    29   107   112   am
    30   107   106    1
    31   105   106    1
    32    75    74   ar
    33    75    77   ar
    34   111   109    1
    35   101    96   am
    36    74    76   ar
    37    68    66    1
    38   106   109    1
    39    86    85    2
    40   109   110    1
    41    77    78   ar
    42    62    63    1
    43    62    59    1
    44    65    66    2
    45    65    64    1
    46    96    95    1
    47    96    97    2
    48    66    67    1
    49    61    60    2
    50    60    59    1
    51   140   138   am
    52    99    98    1
    53    76    78   ar
    54    76    79   ar
    55    95    98    1
    56    95    94    1
    57    63    64    1
    58    59    58    1
    59    78    80   ar
    60    85    94   am
    61    85    84    1
    62    79    81   ar
    63    98   100    1
    64   138   139    2
    65   138   137    1
    66    92    91    1
    67    83    84    1
    68   137   134    1
    69    84    87    1
    70    58    53   am
    71    87    88    1
    72    80    82   ar
    73    88    89    1
    74   133   134    1
    75    81    82   ar
    76    91    93    1
    77    91    90    2
    78   134   135    1
    79    54    53    2
    80   136   135    2
    81    53    52    1
    82    89    90    1
    83   148   146    1
    84   160   161    1
    85   160   157    1
    86   147   146    1
    87   155   153    1
    88    52    55    1
    89    52    51    1
    90    55    56    1
    91   146   145    1
    92   156   157    1
    93   157   158    1
    94   153   150    1
    95   153   154    1
    96    22    20    1
    97    56    57    1
    98   150   151    1
    99   150   149    1
   100   145   142    1
   101    51    57    1
   102   178   177    1
   103    20    21    1
   104    20    19    2
   105   151   152    2
   106    10     9    1
   107   158   159    2
   108   158   162   am
   109   177   176    1
   110    19    18    1
   111    26    25    2
   112    50    48    1
   113    16    17    1
   114    16    13    1
   115    15    14    2
   116    17    18    1
   117    11     9    1
   118     9     8    2
   119   162   163    1
   120    24    25    1
   121    24    23    1
   122    24    27    1
   123   142   143    1
   124   142   141    1
   125    14    23   am
   126    14    13    1
   127    25    28   am
   128    49    47    1
   129    13    12    1
   130     8     7    1
   131   169   167   ar
   132   176   175    1
   133    48    47    1
   134   143   144    2
   135    47    44    1
   136     7     6    1
   137   167   168   ar
   138   167   166    1
   139   175   174    1
   140   163   166    1
   141   163   164    1
   142    28    29    1
   143    29    32    1
   144    29    30    1
   145    46    45    2
   146   170   171    1
   147   164   165    2
   148    32    33    1
   149    44    45    1
   150    44    43    1
   151     6     5    1
   152   174   171    1
   153   171   172    1
   154    30    37   am
   155    30    31    2
   156    33    34    1
   157    36    34   am
   158    37    38    1
   159     5     2    1
   160    34    35    2
   161    40    39    2
   162    41    38    1
   163    41    42    1
   164    38    39    1
   165   172   173    2
   166     2     1    1
   167     2     3    1
   168     3     4    2
