@<TRIPOS>MOLECULE
tmp/5x8qC00.pdb
 225 217 0 0 0
SMALL
GASTEIGER

@<TRIPOS>ATOM
      1  N          1.4640   12.8120  -31.3810 N.3    16  TYR16      -0.1241
      2  CA         0.8570   11.8130  -30.5330 C.3    16  TYR16       0.1605
      3  C          0.2660   12.4500  -29.2880 C.2    16  TYR16       0.2264
      4  O         -0.8380   12.1290  -28.8920 O.2    16  TYR16      -0.2867
      5  CB         1.8630   10.7380  -30.1480 C.3    16  TYR16       0.0534
      6  CG         1.2630    9.6420  -29.3180 C.ar   16  TYR16      -0.0201
      7  CD1        0.5790    8.6060  -29.9070 C.ar   16  TYR16      -0.0009
      8  CD2        1.3770    9.6470  -27.9500 C.ar   16  TYR16      -0.0009
      9  CE1        0.0260    7.6010  -29.1610 C.ar   16  TYR16       0.0417
     10  CE2        0.8250    8.6460  -27.1880 C.ar   16  TYR16       0.0417
     11  CZ         0.1490    7.6250  -27.8020 C.ar   16  TYR16       0.1957
     12  OH        -0.4080    6.6250  -27.0540 O.3    16  TYR16      -0.2866
     13  N         -3.9650   11.9660  -28.5580 N.3    20  CYS20      -0.1221
     14  CA        -4.0480   10.6790  -27.8720 C.3    20  CYS20       0.1808
     15  C         -5.1980   10.6100  -26.8940 C.2    20  CYS20       0.2601
     16  O         -5.2930    9.6410  -26.0780 O.2    20  CYS20      -0.2717
     17  CB        -2.7490   10.3020  -27.1700 C.3    20  CYS20       0.0970
     18  SG        -2.2810   11.4610  -25.8520 S.3    20  CYS20      -0.0800
     19  N         -6.0430   11.6490  -26.9210 N.am   21  GLN21      -0.1965
     20  CA        -7.3450   11.6870  -26.2140 C.3    21  GLN21       0.1733
     21  C         -7.2230   11.9140  -24.7250 C.2    21  GLN21       0.2616
     22  O         -7.8730   12.8350  -24.1690 O.2    21  GLN21      -0.2715
     23  CB        -8.2420   10.4230  -26.4580 C.3    21  GLN21       0.0408
     24  CG        -9.0250   10.4480  -27.7580 C.3    21  GLN21       0.0908
     25  CD        -9.6270    9.1010  -28.1850 C.2    21  GLN21       0.2608
     26  OE1       -9.0260    8.3900  -28.9620 O.2    21  GLN21      -0.2717
     27  NE2      -10.8460    8.8210  -27.7750 N.am   21  GLN21      -0.0878
     28  N         -6.4780   11.0210  -24.0770 N.am   22  LEU22      -0.1977
     29  CA        -6.2710   11.0120  -22.6510 C.3    22  LEU22       0.1596
     30  C         -4.7560   11.0540  -22.3320 C.2    22  LEU22       0.2287
     31  O         -3.9330   10.3730  -22.9890 O.2    22  LEU22      -0.2864
     32  CB        -6.9310    9.7620  -22.0450 C.3    22  LEU22       0.0297
     33  CG        -8.4520    9.7030  -22.0540 C.3    22  LEU22       0.0022
     34  CD1       -8.9710    8.3210  -21.6910 C.3    22  LEU22       0.0001
     35  CD2       -9.0360   10.7630  -21.1200 C.3    22  LEU22       0.0001
     36  N         -4.5380    8.5630  -16.7110 N.3    27  LEU27      -0.1245
     37  CA        -4.8610    7.1260  -16.7890 C.3    27  LEU27       0.1561
     38  C         -4.2370    6.2920  -15.6480 C.2    27  LEU27       0.2260
     39  O         -4.8990    5.4290  -15.0590 O.2    27  LEU27      -0.2867
     40  CB        -4.4690    6.5720  -18.1620 C.3    27  LEU27       0.0270
     41  CG        -5.3250    6.8840  -19.4090 C.3    27  LEU27       0.0019
     42  CD1       -4.7970    6.1570  -20.6330 C.3    27  LEU27       0.0001
     43  CD2       -6.7610    6.4520  -19.2300 C.3    27  LEU27       0.0001
     44  N        -23.4950   -2.0620  -27.6670 N.3    52  TRP52      -0.1241
     45  CA       -22.8360   -1.9430  -28.9610 C.3    52  TRP52       0.1605
     46  C        -22.8130   -0.5180  -29.5250 C.2    52  TRP52       0.2264
     47  O        -21.8040   -0.0860  -30.0920 O.2    52  TRP52      -0.2867
     48  CB       -23.4280   -2.9290  -29.9820 C.3    52  TRP52       0.0550
     49  CG       -22.5960   -4.1710  -30.1210 C.ar   52  TRP52       0.0003
     50  CD1      -23.0210   -5.4750  -29.9140 C.ar   52  TRP52       0.0946
     51  CD2      -21.2080   -4.2540  -30.4670 C.ar   52  TRP52       0.0152
     52  NE1      -21.9560   -6.3460  -30.1220 N.ar   52  TRP52      -0.2442
     53  CE2      -20.8520   -5.6300  -30.4720 C.ar   52  TRP52       0.0810
     54  CE3      -20.2420   -3.3040  -30.8210 C.ar   52  TRP52       0.0012
     55  CZ2      -19.5800   -6.0720  -30.7210 C.ar   52  TRP52       0.0191
     56  CZ3      -18.9660   -3.7530  -31.1020 C.ar   52  TRP52       0.0001
     57  CH2      -18.6400   -5.1190  -31.0280 C.ar   52  TRP52       0.0015
     58  N        -20.1310    1.3990  -27.5340 N.3    55  CYS55      -0.1235
     59  CA       -18.8120    0.8980  -27.8820 C.3    55  CYS55       0.1677
     60  C        -18.4200    1.3480  -29.2710 C.2    55  CYS55       0.2270
     61  O        -17.2970    1.7490  -29.4910 O.2    55  CYS55      -0.2867
     62  CB       -18.7460   -0.6110  -27.7570 C.3    55  CYS55       0.0956
     63  SG       -18.7520   -1.1540  -26.0520 S.3    55  CYS55      -0.0801
     64  N        -17.3350    4.9090  -29.2850 N.3    58  HIS58      -0.1226
     65  CA       -15.9370    5.0410  -28.7820 C.3    58  HIS58       0.1752
     66  C        -14.9280    4.6510  -29.8300 C.2    58  HIS58       0.2595
     67  O        -13.9780    5.4140  -30.0810 O.2    58  HIS58      -0.2718
     68  CB       -15.6990    4.2420  -27.5090 C.3    58  HIS58       0.0759
     69  CG       -16.5700    4.6280  -26.3520 C.ar   58  HIS58       0.0818
     70  ND1      -16.5500    5.8880  -25.7840 N.ar   58  HIS58      -0.2268
     71  CD2      -17.4310    3.8910  -25.6130 C.ar   58  HIS58       0.1154
     72  CE1      -17.3970    5.9180  -24.7710 C.ar   58  HIS58       0.1986
     73  NE2      -17.9410    4.7190  -24.6430 N.ar   58  HIS58      -0.2212
     74  N        -15.1430    3.4810  -30.4540 N.am   59  LEU59      -0.1980
     75  CA       -14.2870    3.0200  -31.5470 C.3    59  LEU59       0.1596
     76  C        -14.2400    4.0240  -32.7100 C.2    59  LEU59       0.2287
     77  O        -13.1400    4.2800  -33.3030 O.2    59  LEU59      -0.2864
     78  CB       -14.7510    1.6790  -32.1050 C.3    59  LEU59       0.0297
     79  CG       -14.4910    0.4440  -31.2080 C.3    59  LEU59       0.0022
     80  CD1      -15.2960   -0.7650  -31.7070 C.3    59  LEU59       0.0001
     81  CD2      -13.0100    0.0800  -31.1720 C.3    59  LEU59       0.0001
     82  N        -12.2710    7.0270  -31.5880 N.3    62  ALA62      -0.1245
     83  CA       -10.8460    6.6680  -31.5430 C.3    62  ALA62       0.1562
     84  C        -10.2390    6.6880  -32.9160 C.2    62  ALA62       0.2260
     85  O         -9.1720    7.2730  -33.0880 O.2    62  ALA62      -0.2867
     86  CB       -10.6800    5.3200  -30.8850 C.3    62  ALA62       0.0290
     87  N         -5.5700    2.1470  -33.3720 N.3    96  VAL96      -0.1231
     88  CA        -6.5080    2.2650  -32.2200 C.3    96  VAL96       0.1692
     89  C         -6.2730    1.1370  -31.1900 C.2    96  VAL96       0.2591
     90  O         -6.3180    1.3950  -29.9720 O.2    96  VAL96      -0.2718
     91  CB        -8.0060    2.2000  -32.7070 C.3    96  VAL96       0.0266
     92  CG1       -8.9910    1.9750  -31.5520 C.3    96  VAL96       0.0020
     93  CG2       -8.4330    3.5100  -33.3670 C.3    96  VAL96       0.0020
     94  N         -6.0580   -0.1000  -31.6600 N.am   97  LEU97      -0.1980
     95  CA        -5.8900   -1.2360  -30.7120 C.3    97  LEU97       0.1596
     96  C         -4.5140   -1.1690  -29.9760 C.2    97  LEU97       0.2287
     97  O         -4.4680   -1.5100  -28.7980 O.2    97  LEU97      -0.2864
     98  CB        -6.0770   -2.5770  -31.4240 C.3    97  LEU97       0.0297
     99  CG        -7.5340   -2.9530  -31.7590 C.3    97  LEU97       0.0022
    100  CD1       -7.5790   -4.3520  -32.3460 C.3    97  LEU97       0.0001
    101  CD2       -8.4900   -2.9100  -30.5550 C.3    97  LEU97       0.0001
    102  N         -2.9630    1.9740  -29.4350 N.3    99  ARG99      -0.1231
    103  CA        -3.2560    3.0690  -28.4660 C.3    99  ARG99       0.1694
    104  C         -3.9940    2.6110  -27.2500 C.2    99  ARG99       0.2591
    105  O         -3.8110    3.1540  -26.1280 O.2    99  ARG99      -0.2718
    106  CB        -4.0050    4.2440  -29.0860 C.3    99  ARG99       0.0321
    107  CG        -3.1850    5.0370  -30.0890 C.3    99  ARG99       0.0489
    108  CD        -4.1200    6.0160  -30.8560 C.3    99  ARG99       0.2205
    109  NE        -3.3750    7.1960  -31.3730 N.pl3  99  ARG99      -0.0865
    110  CZ        -3.8150    8.4560  -31.3120 C.cat  99  ARG99       0.5346
    111  NH1       -4.9840    8.7570  -30.7910 N.pl3  99  ARG99       0.1354
    112  NH2       -3.0520    9.4180  -31.7720 N.pl3  99  ARG99       0.1354
    113  N         -4.8300    1.5710  -27.4320 N.am  100  MET100     -0.1979
    114  CA        -5.7360    1.1320  -26.3620 C.3   100  MET100      0.1605
    115  C         -4.9400    0.5720  -25.1410 C.2   100  MET100      0.2287
    116  O         -5.4490    0.6230  -24.0010 O.2   100  MET100     -0.2864
    117  CB        -6.7070    0.0420  -26.8820 C.3   100  MET100      0.0413
    118  CG        -7.6790   -0.4520  -25.8300 C.3   100  MET100      0.0598
    119  SD        -8.4620   -1.8960  -26.4980 S.3   100  MET100     -0.1393
    120  CE        -9.3400   -2.3830  -25.0660 C.3   100  MET100      0.0692
    121  N         -2.5470    1.6310  -23.4540 N.3   102  ARG102     -0.1231
    122  CA        -2.2630    2.6500  -22.4770 C.3   102  ARG102      0.1694
    123  C         -3.3150    2.6680  -21.4060 C.2   102  ARG102      0.2591
    124  O         -3.0390    2.9810  -20.2720 O.2   102  ARG102     -0.2718
    125  CB        -2.2100    4.0090  -23.1490 C.3   102  ARG102      0.0321
    126  CG        -0.8880    4.3220  -23.8100 C.3   102  ARG102      0.0489
    127  CD        -0.8960    5.6870  -24.4830 C.3   102  ARG102      0.2205
    128  NE        -1.9620    6.5640  -24.0040 N.pl3 102  ARG102     -0.0865
    129  CZ        -1.7740    7.6740  -23.3160 C.cat 102  ARG102      0.5346
    130  NH1       -2.7860    8.2180  -22.6600 N.pl3 102  ARG102      0.1354
    131  NH2       -0.5890    8.2430  -23.3050 N.pl3 102  ARG102      0.1354
    132  N         -4.5490    2.4150  -21.7890 N.am  103  ALA103     -0.1980
    133  CA        -5.6520    2.4300  -20.8300 C.3   103  ALA103      0.1597
    134  C         -5.8430    1.1080  -20.1760 C.2   103  ALA103      0.2287
    135  O         -6.7980    0.9210  -19.4770 O.2   103  ALA103     -0.2864
    136  CB        -6.9190    2.8180  -21.5320 C.3   103  ALA103      0.0319
    137  N         -9.3980   -2.3270  -18.0350 N.3   111  VAL111     -0.1231
    138  CA        -9.1680   -1.2330  -18.9670 C.3   111  VAL111      0.1692
    139  C         -9.9580   -0.0410  -18.5190 C.2   111  VAL111      0.2592
    140  O        -10.9990   -0.1630  -17.8720 O.2   111  VAL111     -0.2718
    141  CB        -9.4990   -1.6960  -20.4290 C.3   111  VAL111      0.0266
    142  CG1      -11.0220   -1.9730  -20.6130 C.3   111  VAL111      0.0020
    143  CG2       -8.9860   -0.7510  -21.5060 C.3   111  VAL111      0.0020
    144  N         -9.4550    1.1360  -18.7950 N.am  112  PHE112     -0.1962
    145  CA       -10.2160    2.3900  -18.4800 C.3   112  PHE112      0.1771
    146  C        -11.3160    2.6090  -19.5260 C.2   112  PHE112      0.2619
    147  O        -11.0140    2.7220  -20.7010 O.2   112  PHE112     -0.2715
    148  CB        -9.2710    3.5960  -18.4950 C.3   112  PHE112      0.0574
    149  CG        -9.9080    4.9150  -18.1130 C.ar  112  PHE112     -0.0200
    150  CD1      -10.0750    5.2570  -16.7880 C.ar  112  PHE112     -0.0042
    151  CD2      -10.3070    5.8320  -19.0670 C.ar  112  PHE112     -0.0042
    152  CE1      -10.6040    6.5060  -16.4140 C.ar  112  PHE112     -0.0003
    153  CE2      -10.8750    7.0660  -18.7020 C.ar  112  PHE112     -0.0003
    154  CZ       -10.9920    7.4170  -17.3730 C.ar  112  PHE112     -0.0000
    155  N        -12.5690    2.5980  -19.0900 N.am  113  PHE113     -0.1974
    156  CA       -13.7160    2.6930  -19.9630 C.3   113  PHE113      0.1639
    157  C        -14.7400    3.6370  -19.3700 C.2   113  PHE113      0.2290
    158  O        -15.2830    3.3080  -18.3610 O.2   113  PHE113     -0.2864
    159  CB       -14.3100    1.2960  -20.2060 C.3   113  PHE113      0.0560
    160  CG       -15.5080    1.2800  -21.0960 C.ar  113  PHE113     -0.0200
    161  CD1      -15.3740    1.2560  -22.5110 C.ar  113  PHE113     -0.0042
    162  CD2      -16.7940    1.2880  -20.5500 C.ar  113  PHE113     -0.0042
    163  CE1      -16.4950    1.2240  -23.3280 C.ar  113  PHE113     -0.0003
    164  CE2      -17.9090    1.2460  -21.3680 C.ar  113  PHE113     -0.0003
    165  CZ       -17.7760    1.2120  -22.7410 C.ar  113  PHE113     -0.0000
    166  N        -18.2850   -5.9930  -20.2540 N.3   123  PHE123     -0.1241
    167  CA       -18.7310   -5.9740  -21.6410 C.3   123  PHE123      0.1605
    168  C        -19.5000   -7.2270  -22.0380 C.2   123  PHE123      0.2264
    169  O        -19.4800   -7.6110  -23.2170 O.2   123  PHE123     -0.2867
    170  CB       -17.4790   -5.8560  -22.5270 C.3   123  PHE123      0.0534
    171  CG       -16.6490   -4.6840  -22.1770 C.ar  123  PHE123     -0.0203
    172  CD1      -17.0390   -3.4170  -22.5880 C.ar  123  PHE123     -0.0042
    173  CD2      -15.4750   -4.8340  -21.4080 C.ar  123  PHE123     -0.0042
    174  CE1      -16.2890   -2.3170  -22.2560 C.ar  123  PHE123     -0.0003
    175  CE2      -14.7290   -3.7210  -21.0530 C.ar  123  PHE123     -0.0003
    176  CZ       -15.1490   -2.4810  -21.4730 C.ar  123  PHE123     -0.0000
    177  N        -22.3420   -7.3680  -24.9280 N.3   126  LEU126     -0.1245
    178  CA       -21.9670   -7.3520  -26.3150 C.3   126  LEU126      0.1561
    179  C        -22.1900   -8.7230  -26.9700 C.2   126  LEU126      0.2260
    180  O        -22.3270   -8.8060  -28.2020 O.2   126  LEU126     -0.2867
    181  CB       -20.5100   -6.8790  -26.4980 C.3   126  LEU126      0.0270
    182  CG       -20.0920   -5.4170  -26.1520 C.3   126  LEU126      0.0019
    183  CD1      -18.5980   -5.1340  -26.3440 C.3   126  LEU126      0.0001
    184  CD2      -20.8380   -4.3750  -26.9090 C.3   126  LEU126      0.0001
    185  N        -14.0600  -12.1630  -28.6080 N.3   131  LEU131     -0.1231
    186  CA       -13.4190  -10.9590  -29.1310 C.3   131  LEU131      0.1693
    187  C        -12.8000  -10.1250  -27.9750 C.2   131  LEU131      0.2591
    188  O        -11.6550   -9.6870  -28.0740 O.2   131  LEU131     -0.2718
    189  CB       -14.4070  -10.1430  -29.9590 C.3   131  LEU131      0.0284
    190  CG       -14.0540   -8.7580  -30.4830 C.3   131  LEU131      0.0019
    191  CD1      -12.8460   -8.8110  -31.3920 C.3   131  LEU131      0.0001
    192  CD2      -15.2560   -8.1560  -31.2050 C.3   131  LEU131      0.0001
    193  N        -13.5730   -9.9280  -26.9150 N.am  132  ILE132     -0.1980
    194  CA       -13.1830   -9.1040  -25.7700 C.3   132  ILE132      0.1595
    195  C        -11.9950   -9.7130  -25.0660 C.2   132  ILE132      0.2287
    196  O        -11.0150   -9.0050  -24.8360 O.2   132  ILE132     -0.2864
    197  CB       -14.3560   -8.9280  -24.7850 C.3   132  ILE132      0.0276
    198  CG1      -15.5250   -8.1560  -25.4360 C.3   132  ILE132      0.0022
    199  CG2      -13.9490   -8.2280  -23.4840 C.3   132  ILE132      0.0022
    200  CD1      -15.1900   -6.8150  -26.0700 C.3   132  ILE132      0.0001
    201  N         -8.9960   -9.2120  -27.2160 N.3   135  ILE135     -0.1231
    202  CA        -8.5780   -7.7870  -27.0950 C.3   135  ILE135      0.1692
    203  C         -7.8060   -7.5250  -25.7800 C.2   135  ILE135      0.2592
    204  O         -6.7800   -6.8930  -25.7830 O.2   135  ILE135     -0.2718
    205  CB        -9.7850   -6.8260  -27.3030 C.3   135  ILE135      0.0266
    206  CG1      -10.1190   -6.7980  -28.7880 C.3   135  ILE135      0.0019
    207  CG2       -9.3940   -5.3770  -27.0430 C.3   135  ILE135      0.0020
    208  CD1      -11.5440   -6.4140  -28.9920 C.3   135  ILE135      0.0001
    209  N         -8.2570   -8.1340  -24.7120 N.am  136  PHE136     -0.1976
    210  CA        -7.5690   -8.0820  -23.4330 C.3   136  PHE136      0.1639
    211  C         -6.2380   -8.8020  -23.4540 C.2   136  PHE136      0.2290
    212  O         -5.2970   -8.2640  -22.8870 O.2   136  PHE136     -0.2864
    213  CB        -8.4400   -8.6290  -22.3180 C.3   136  PHE136      0.0560
    214  CG        -9.3490   -7.5800  -21.7040 C.ar  136  PHE136     -0.0200
    215  CD1      -10.3530   -6.9420  -22.4670 C.ar  136  PHE136     -0.0042
    216  CD2       -9.1840   -7.2100  -20.3650 C.ar  136  PHE136     -0.0042
    217  CE1      -11.1660   -5.9610  -21.8960 C.ar  136  PHE136     -0.0003
    218  CE2      -10.0160   -6.2560  -19.7940 C.ar  136  PHE136     -0.0003
    219  CZ       -11.0110   -5.6440  -20.5510 C.ar  136  PHE136     -0.0000
    220  N        -13.1230   -5.6360  -35.3020 N.3   211  CYS211     -0.1235
    221  CA       -13.5890   -4.3820  -34.6980 C.3   211  CYS211      0.1677
    222  C        -14.1670   -3.4440  -35.7870 C.2   211  CYS211      0.2270
    223  O        -15.2430   -2.8820  -35.6130 O.2   211  CYS211     -0.2867
    224  CB       -12.4940   -3.6810  -33.8960 C.3   211  CYS211      0.0956
    225  SG       -12.0110   -4.4940  -32.3660 S.3   211  CYS211     -0.0801
@<TRIPOS>BOND
     1   222   223    2
     2   222   221    1
     3   220   221    1
     4   221   224    1
     5   224   225    1
     6    87    88    1
     7    93    91    1
     8    77    76    2
     9    85    84    2
    10    84    83    1
    11    76    75    1
    12    91    88    1
    13    91    92    1
    14   100    99    1
    15    88    89    1
    16    78    75    1
    17    78    79    1
    18   112   110    1
    19    99    98    1
    20    99   101    1
    21    80    79    1
    22    94    89   am
    23    94    95    1
    24    82    83    1
    25    75    74    1
    26    83    86    1
    27    98    95    1
    28   191   190    1
    29     1     2    1
    30   109   110    2
    31   109   108    1
    32   110   111    1
    33    79    81    1
    34   192   190    1
    35    89    90    2
    36    56    57   ar
    37    56    54   ar
    38    57    55   ar
    39   108   107    1
    40    54    51   ar
    41    55    53   ar
    42    95    96    1
    43     2     5    1
    44     2     3    1
    45   190   189    1
    46    53    51   ar
    47    53    52   ar
    48    51    49   ar
    49    74    66   am
    50     5     6    1
    51    52    50   ar
    52    49    48    1
    53    49    50   ar
    54    47    46    2
    55   107   106    1
    56    67    66    2
    57    48    45    1
    58    96    97    2
    59   189   186    1
    60     7     6   ar
    61     7     9   ar
    62    66    65    1
    63    46    45    1
    64    61    60    2
    65   102   103    1
    66     6     8   ar
    67     3     4    2
    68    64    65    1
    69    60    59    1
    70     9    11   ar
    71   186   185    1
    72   186   187    1
    73   106   103    1
    74   208   206    1
    75    26    25    2
    76    45    44    1
    77   206   205    1
    78    65    68    1
    79    13    14    1
    80   103   104    1
    81   180   179    2
    82    25    27   am
    83    25    24    1
    84   188   187    2
    85   187   193   am
    86     8    10   ar
    87    59    62    1
    88    59    58    1
    89    14    17    1
    90    14    15    1
    91    11    10   ar
    92    11    12    1
    93    24    23    1
    94    62    63    1
    95    68    69    1
    96   113   104   am
    97   113   114    1
    98   205   202    1
    99   205   207    1
   100   104   105    2
   101   201   202    1
   102    17    18    1
   103   202   203    1
   104   179   178    1
   105    19    15   am
   106    19    20    1
   107   193   194    1
   108   184   182    1
   109    15    16    2
   110   117   114    1
   111   117   118    1
   112   119   118    1
   113   119   120    1
   114   181   178    1
   115   181   182    1
   116    23    20    1
   117   114   115    1
   118    69    70   ar
   119    69    71   ar
   120   183   182    1
   121   178   177    1
   122    20    21    1
   123   200   198    1
   124    70    72   ar
   125   204   203    2
   126   203   209   am
   127   194   195    1
   128   194   197    1
   129    71    73   ar
   130   198   197    1
   131   115   116    2
   132   195   196    2
   133   197   199    1
   134    72    73   ar
   135    21    22    2
   136    21    28   am
   137   209   210    1
   138   127   128    1
   139   127   126    1
   140    28    29    1
   141   128   129    2
   142   126   125    1
   143   211   210    1
   144   211   212    2
   145   121   122    1
   146   210   213    1
   147   163   165   ar
   148   163   161   ar
   149   129   131    1
   150   129   130    1
   151   169   168    2
   152   125   122    1
   153    31    30    2
   154   165   164   ar
   155    29    30    1
   156    29    32    1
   157   172   174   ar
   158   172   171   ar
   159   170   171    1
   160   170   167    1
   161   161   160   ar
   162   122   123    1
   163   215   217   ar
   164   215   214   ar
   165   213   214    1
   166   174   176   ar
   167   171   173   ar
   168    33    32    1
   169    33    34    1
   170    33    35    1
   171   168   167    1
   172   217   219   ar
   173   132   123   am
   174   132   133    1
   175   214   216   ar
   176   167   166    1
   177   136   133    1
   178   143   141    1
   179   176   175   ar
   180   173   175   ar
   181   123   124    2
   182   164   162   ar
   183   160   162   ar
   184   160   159    1
   185   133   134    1
   186   147   146    2
   187    42    41    1
   188   142   141    1
   189   219   218   ar
   190   141   138    1
   191   216   218   ar
   192   159   156    1
   193   134   135    2
   194   156   157    1
   195   156   155    1
   196   146   155   am
   197   146   145    1
   198    41    43    1
   199    41    40    1
   200   157   158    2
   201   151   153   ar
   202   151   149   ar
   203   138   139    1
   204   138   137    1
   205   144   139   am
   206   144   145    1
   207   153   154   ar
   208   139   140    2
   209   148   145    1
   210   148   149    1
   211    40    37    1
   212   149   150   ar
   213   154   152   ar
   214    37    36    1
   215    37    38    1
   216   150   152   ar
   217    38    39    2
