@<TRIPOS>MOLECULE
tmp/5x8xA01.pdb
 215 207 0 0 0
SMALL
GASTEIGER

@<TRIPOS>ATOM
      1  N         14.3880    5.8430   42.7340 N.3    21  GLN21      -0.1231
      2  CA        15.5630    6.1810   41.9380 C.3    21  GLN21       0.1698
      3  C         15.2680    6.0930   40.4430 C.2    21  GLN21       0.2592
      4  O         15.5260    7.0610   39.6930 O.2    21  GLN21      -0.2718
      5  CB        16.8200    5.4070   42.3490 C.3    21  GLN21       0.0381
      6  CG        18.0970    6.0840   41.8230 C.3    21  GLN21       0.0905
      7  CD        19.3850    5.6900   42.5280 C.2    21  GLN21       0.2608
      8  OE1       19.3890    4.9620   43.5270 O.2    21  GLN21      -0.2717
      9  NE2       20.4930    6.2120   42.0270 N.am   21  GLN21      -0.0878
     10  N         14.6780    4.9700   40.0340 N.am   22  LEU22      -0.1980
     11  CA        14.1860    4.7950   38.6440 C.3    22  LEU22       0.1596
     12  C         12.6680    4.6120   38.6300 C.2    22  LEU22       0.2287
     13  O         12.1250    3.9290   39.5050 O.2    22  LEU22      -0.2864
     14  CB        14.8290    3.5680   38.0140 C.3    22  LEU22       0.0297
     15  CG        16.2960    3.6800   37.6210 C.3    22  LEU22       0.0022
     16  CD1       16.7210    2.4650   36.8060 C.3    22  LEU22       0.0001
     17  CD2       16.5460    4.9890   36.8550 C.3    22  LEU22       0.0001
     18  N         12.3640    0.3610   35.1090 N.3    27  LEU27      -0.1245
     19  CA        12.8510   -0.9260   35.6120 C.3    27  LEU27       0.1561
     20  C         12.3770   -2.0810   34.7800 C.2    27  LEU27       0.2260
     21  O         13.1450   -2.9950   34.5070 O.2    27  LEU27      -0.2867
     22  CB        12.5050   -1.1660   37.0910 C.3    27  LEU27       0.0270
     23  CG        13.4250   -0.4810   38.0870 C.3    27  LEU27       0.0019
     24  CD1       12.8600   -0.5270   39.4800 C.3    27  LEU27       0.0001
     25  CD2       14.7380   -1.2280   38.0800 C.3    27  LEU27       0.0001
     26  N         31.0760   -6.2820   49.1130 N.3    52  TRP52      -0.1241
     27  CA        30.3790   -5.6370   50.2170 C.3    52  TRP52       0.1605
     28  C         30.5380   -4.1310   50.1930 C.2    52  TRP52       0.2264
     29  O         29.6310   -3.4180   50.6040 O.2    52  TRP52      -0.2867
     30  CB        30.8440   -6.1780   51.5530 C.3    52  TRP52       0.0550
     31  CG        30.1200   -7.3970   51.9850 C.ar   52  TRP52       0.0003
     32  CD1       30.6250   -8.6650   52.1470 C.ar   52  TRP52       0.0946
     33  CD2       28.7340   -7.4770   52.3190 C.ar   52  TRP52       0.0152
     34  NE1       29.6130   -9.5500   52.5250 N.ar   52  TRP52      -0.2442
     35  CE2       28.4490   -8.8360   52.6480 C.ar   52  TRP52       0.0810
     36  CE3       27.6900   -6.5280   52.3680 C.ar   52  TRP52       0.0012
     37  CZ2       27.1560   -9.2650   52.9980 C.ar   52  TRP52       0.0191
     38  CZ3       26.4180   -6.9520   52.6900 C.ar   52  TRP52       0.0001
     39  CH2       26.1640   -8.3160   53.0250 C.ar   52  TRP52       0.0015
     40  N         27.9020   -3.2410   47.5130 N.3    55  CYS55      -0.1235
     41  CA        26.5750   -3.5070   48.0470 C.3    55  CYS55       0.1677
     42  C         26.1750   -2.4970   49.1310 C.2    55  CYS55       0.2270
     43  O         25.1220   -1.8580   48.9990 O.2    55  CYS55      -0.2867
     44  CB        26.4360   -4.9540   48.5020 C.3    55  CYS55       0.0956
     45  SG        26.5170   -6.0030   47.0580 S.3    55  CYS55      -0.0801
     46  N         25.2570    0.8500   47.8640 N.3    58  HIS58      -0.1226
     47  CA        23.9060    0.8890   47.2920 C.3    58  HIS58       0.1752
     48  C         22.8120    0.7850   48.3750 C.2    58  HIS58       0.2595
     49  O         21.7800    1.4600   48.2780 O.2    58  HIS58      -0.2718
     50  CB        23.7070   -0.1480   46.1690 C.3    58  HIS58       0.0759
     51  CG        24.5690    0.0930   44.9720 C.ar   58  HIS58       0.0818
     52  ND1       25.5100   -0.8120   44.5290 N.ar   58  HIS58      -0.2268
     53  CD2       24.6680    1.1650   44.1530 C.ar   58  HIS58       0.1154
     54  CE1       26.1460   -0.3080   43.4880 C.ar   58  HIS58       0.1986
     55  NE2       25.6570    0.8940   43.2400 N.ar   58  HIS58      -0.2212
     56  N         23.0520   -0.0200   49.4090 N.am   59  LEU59      -0.1980
     57  CA        22.1530   -0.0720   50.5630 C.3    59  LEU59       0.1596
     58  C         22.0060    1.3210   51.1260 C.2    59  LEU59       0.2287
     59  O         20.8660    1.7950   51.2900 O.2    59  LEU59      -0.2864
     60  CB        22.6150   -1.0630   51.5820 C.3    59  LEU59       0.0297
     61  CG        22.2970   -2.5180   51.1820 C.3    59  LEU59       0.0022
     62  CD1       23.0690   -3.5160   52.0640 C.3    59  LEU59       0.0001
     63  CD2       20.7920   -2.8490   51.2090 C.3    59  LEU59       0.0001
     64  N         20.0560    3.7400   48.9360 N.3    62  ALA62      -0.1245
     65  CA        18.6230    3.5090   48.9740 C.3    62  ALA62       0.1562
     66  C         18.0450    4.1400   50.2360 C.2    62  ALA62       0.2260
     67  O         16.9940    4.7980   50.1840 O.2    62  ALA62      -0.2867
     68  CB        18.2980    2.0200   48.9480 C.3    62  ALA62       0.0290
     69  N         13.4340   -0.1420   52.4470 N.3    96  VAL96      -0.1245
     70  CA        14.3450   -0.4560   51.3600 C.3    96  VAL96       0.1561
     71  C         14.0190   -1.8390   50.8460 C.2    96  VAL96       0.2260
     72  O         13.8670   -2.0100   49.6460 O.2    96  VAL96      -0.2867
     73  CB        15.8310   -0.2900   51.7660 C.3    96  VAL96       0.0252
     74  CG1       16.7820   -0.9810   50.7880 C.3    96  VAL96       0.0019
     75  CG2       16.1710    1.2130   51.9140 C.3    96  VAL96       0.0019
     76  N         12.6230   -2.8930   47.0310 N.3   100  MET100     -0.1245
     77  CA        13.4230   -3.7790   46.2150 C.3   100  MET100      0.1570
     78  C         12.6120   -4.7160   45.3410 C.2   100  MET100      0.2261
     79  O         13.0650   -5.0560   44.2680 O.2   100  MET100     -0.2867
     80  CB        14.4540   -4.5540   47.0540 C.3   100  MET100      0.0387
     81  CG        15.6640   -3.7060   47.4250 C.3   100  MET100      0.0595
     82  SD        16.7240   -4.4930   48.6290 S.3   100  MET100     -0.1393
     83  CE        17.2140   -6.0410   47.8150 C.3   100  MET100      0.0692
     84  N         10.3520   -4.1790   43.3950 N.3   102  ARG102     -0.1231
     85  CA        10.1470   -3.5140   42.1180 C.3   102  ARG102      0.1694
     86  C         11.2180   -3.8760   41.1000 C.2   102  ARG102      0.2592
     87  O         10.9430   -4.0210   39.9170 O.2   102  ARG102     -0.2718
     88  CB        10.1910   -2.0060   42.2980 C.3   102  ARG102      0.0321
     89  CG         9.1690   -1.4370   43.2530 C.3   102  ARG102      0.0489
     90  CD         8.9900    0.0390   42.9630 C.3   102  ARG102      0.2205
     91  NE        10.2650    0.6670   42.6480 N.pl3 102  ARG102     -0.0865
     92  CZ        10.3960    1.7500   41.8970 C.cat 102  ARG102      0.5346
     93  NH1        9.3290    2.3280   41.3770 N.pl3 102  ARG102      0.1354
     94  NH2       11.5940    2.2500   41.6580 N.pl3 102  ARG102      0.1354
     95  N         12.4480   -3.9960   41.5730 N.am  103  ALA103     -0.1966
     96  CA        13.5870   -4.2960   40.7270 C.3   103  ALA103      0.1728
     97  C         13.8460   -5.7790   40.5550 C.2   103  ALA103      0.2616
     98  O         14.8520   -6.1630   39.9820 O.2   103  ALA103     -0.2715
     99  CB        14.8270   -3.6020   41.2510 C.3   103  ALA103      0.0334
    100  N         12.9770   -6.6180   41.0940 N.am  104  TYR104     -0.1974
    101  CA        13.1650   -8.0540   40.9410 C.3   104  TYR104      0.1639
    102  C         12.2290   -8.5480   39.8560 C.2   104  TYR104      0.2290
    103  O         11.0540   -8.1930   39.8280 O.2   104  TYR104     -0.2864
    104  CB        12.8010   -8.7240   42.2520 C.3   104  TYR104      0.0560
    105  CG        12.7500  -10.2180   42.2400 C.ar  104  TYR104     -0.0198
    106  CD1       13.8650  -11.0040   42.6000 C.ar  104  TYR104     -0.0009
    107  CD2       11.5780  -10.8680   41.9320 C.ar  104  TYR104     -0.0009
    108  CE1       13.7780  -12.4160   42.6220 C.ar  104  TYR104      0.0417
    109  CE2       11.5120  -12.2660   41.9500 C.ar  104  TYR104      0.0417
    110  CZ        12.5930  -13.0270   42.3190 C.ar  104  TYR104      0.1957
    111  OH        12.4740  -14.4170   42.3250 O.3   104  TYR104     -0.2866
    112  N         17.6710   -9.6970   39.1260 N.3   111  VAL111     -0.1231
    113  CA        17.4910   -8.4130   39.8280 C.3   111  VAL111      0.1692
    114  C         18.3100   -7.2910   39.2000 C.2   111  VAL111      0.2592
    115  O         19.4160   -7.5510   38.7590 O.2   111  VAL111     -0.2718
    116  CB        17.8990   -8.5620   41.3260 C.3   111  VAL111      0.0266
    117  CG1       17.1270   -9.6970   41.9660 C.3   111  VAL111      0.0020
    118  CG2       19.3990   -8.8450   41.4840 C.3   111  VAL111      0.0020
    119  N         17.7950   -6.0670   39.1630 N.am  112  PHE112     -0.1962
    120  CA        18.5710   -4.9250   38.6730 C.3   112  PHE112      0.1771
    121  C         19.7620   -4.6910   39.5910 C.2   112  PHE112      0.2620
    122  O         19.6040   -4.5840   40.8020 O.2   112  PHE112     -0.2715
    123  CB        17.7030   -3.6550   38.6220 C.3   112  PHE112      0.0574
    124  CG        18.4150   -2.4400   38.0850 C.ar  112  PHE112     -0.0200
    125  CD1       18.3030   -2.0930   36.7300 C.ar  112  PHE112     -0.0042
    126  CD2       19.2270   -1.6470   38.8920 C.ar  112  PHE112     -0.0042
    127  CE1       18.9790   -0.9830   36.2080 C.ar  112  PHE112     -0.0003
    128  CE2       19.8860   -0.5240   38.3920 C.ar  112  PHE112     -0.0003
    129  CZ        19.7480   -0.1820   37.0450 C.ar  112  PHE112     -0.0000
    130  N         20.9530   -4.6200   39.0200 N.am  113  PHE113     -0.1960
    131  CA        22.1930   -4.3290   39.7590 C.3   113  PHE113      0.1771
    132  C         23.1460   -3.5670   38.8310 C.2   113  PHE113      0.2619
    133  O         23.5590   -4.0780   37.7800 O.2   113  PHE113     -0.2715
    134  CB        22.8370   -5.6170   40.2680 C.3   113  PHE113      0.0574
    135  CG        24.0060   -5.3900   41.2180 C.ar  113  PHE113     -0.0200
    136  CD1       23.8020   -4.8610   42.4950 C.ar  113  PHE113     -0.0042
    137  CD2       25.3070   -5.7090   40.8330 C.ar  113  PHE113     -0.0042
    138  CE1       24.8620   -4.6360   43.3670 C.ar  113  PHE113     -0.0003
    139  CE2       26.3700   -5.5160   41.7020 C.ar  113  PHE113     -0.0003
    140  CZ        26.1540   -4.9680   42.9640 C.ar  113  PHE113     -0.0000
    141  N         23.4220   -2.3130   39.1760 N.am  114  GLU114     -0.1977
    142  CA        24.4040   -1.4840   38.4840 C.3   114  GLU114      0.1602
    143  C         24.2320   -1.5160   36.9680 C.2   114  GLU114      0.2287
    144  O         25.1590   -1.8840   36.2350 O.2   114  GLU114     -0.2864
    145  CB        25.8360   -1.9300   38.8550 C.3   114  GLU114      0.0415
    146  CG        26.1940   -2.0100   40.3280 C.3   114  GLU114      0.1163
    147  CD        27.6440   -2.4630   40.5750 C.2   114  GLU114      0.3649
    148  OE1       28.3880   -2.8480   39.6130 O.co2 114  GLU114     -0.2457
    149  OE2       28.0600   -2.4280   41.7570 O.co2 114  GLU114     -0.2457
    150  N         26.1500  -12.4510   43.2400 N.3   123  PHE123     -0.1241
    151  CA        26.5930  -12.0480   44.5650 C.3   123  PHE123      0.1605
    152  C         27.3950  -13.1100   45.3190 C.2   123  PHE123      0.2264
    153  O         27.5090  -13.0240   46.5410 O.2   123  PHE123     -0.2867
    154  CB        25.3830  -11.5530   45.3970 C.3   123  PHE123      0.0534
    155  CG        24.5860  -10.4940   44.7120 C.ar  123  PHE123     -0.0203
    156  CD1       25.0030   -9.1470   44.7240 C.ar  123  PHE123     -0.0042
    157  CD2       23.4660  -10.8430   43.9730 C.ar  123  PHE123     -0.0042
    158  CE1       24.2800   -8.1760   44.0480 C.ar  123  PHE123     -0.0003
    159  CE2       22.7510   -9.8680   43.3070 C.ar  123  PHE123     -0.0003
    160  CZ        23.1570   -8.5290   43.3520 C.ar  123  PHE123     -0.0000
    161  N         30.0250  -12.1360   48.1870 N.3   126  LEU126     -0.1245
    162  CA        29.5560  -11.6630   49.4800 C.3   126  LEU126      0.1561
    163  C         29.6650  -12.7450   50.5060 C.2   126  LEU126      0.2260
    164  O         29.8810  -12.4320   51.6860 O.2   126  LEU126     -0.2867
    165  CB        28.1250  -11.1460   49.4200 C.3   126  LEU126      0.0270
    166  CG        27.8760   -9.9360   48.5410 C.3   126  LEU126      0.0019
    167  CD1       26.4120   -9.5140   48.5780 C.3   126  LEU126      0.0001
    168  CD2       28.7570   -8.7550   48.9300 C.3   126  LEU126      0.0001
    169  N         21.8640  -15.5760   53.7470 N.3   131  LEU131     -0.1231
    170  CA        21.2660  -14.2340   53.7940 C.3   131  LEU131      0.1693
    171  C         20.8100  -13.7510   52.4270 C.2   131  LEU131      0.2591
    172  O         19.6990  -13.2690   52.2870 O.2   131  LEU131     -0.2718
    173  CB        22.2340  -13.2140   54.4190 C.3   131  LEU131      0.0284
    174  CG        21.9170  -11.7240   54.2240 C.3   131  LEU131      0.0019
    175  CD1       20.5860  -11.2480   54.8020 C.3   131  LEU131      0.0001
    176  CD2       22.9200  -10.8850   54.9300 C.3   131  LEU131      0.0001
    177  N         21.6840  -13.8430   51.4330 N.am  132  ILE132     -0.1980
    178  CA        21.3560  -13.4750   50.0340 C.3   132  ILE132      0.1595
    179  C         20.1400  -14.2510   49.5350 C.2   132  ILE132      0.2287
    180  O         19.1940  -13.6630   48.9950 O.2   132  ILE132     -0.2864
    181  CB        22.5570  -13.7430   49.0640 C.3   132  ILE132      0.0276
    182  CG1       23.8800  -13.0970   49.5800 C.3   132  ILE132      0.0022
    183  CG2       22.2170  -13.3600   47.6320 C.3   132  ILE132      0.0022
    184  CD1       23.7970  -11.6370   49.9920 C.3   132  ILE132      0.0001
    185  N         16.9760  -12.8370   51.0360 N.3   135  ILE135     -0.1231
    186  CA        16.5740  -11.5670   50.4450 C.3   135  ILE135      0.1692
    187  C         15.8870  -11.8150   49.0870 C.2   135  ILE135      0.2592
    188  O         14.9250  -11.1370   48.7380 O.2   135  ILE135     -0.2718
    189  CB        17.7730  -10.6250   50.2540 C.3   135  ILE135      0.0266
    190  CG1       18.4030  -10.3490   51.6240 C.3   135  ILE135      0.0019
    191  CG2       17.4000   -9.3430   49.4810 C.3   135  ILE135      0.0020
    192  CD1       19.4440   -9.2410   51.6550 C.3   135  ILE135      0.0001
    193  N         16.3700  -12.8070   48.3410 N.am  136  PHE136     -0.1976
    194  CA        15.7350  -13.1700   47.0800 C.3   136  PHE136      0.1639
    195  C         14.3310  -13.7260   47.3080 C.2   136  PHE136      0.2290
    196  O         13.3820  -13.2200   46.7170 O.2   136  PHE136     -0.2864
    197  CB        16.6260  -14.0930   46.2180 C.3   136  PHE136      0.0560
    198  CG        17.5820  -13.3510   45.3110 C.ar  136  PHE136     -0.0200
    199  CD1       18.5970  -12.5330   45.8390 C.ar  136  PHE136     -0.0042
    200  CD2       17.4940  -13.4840   43.9370 C.ar  136  PHE136     -0.0042
    201  CE1       19.4660  -11.8350   45.0100 C.ar  136  PHE136     -0.0003
    202  CE2       18.3700  -12.8090   43.0910 C.ar  136  PHE136     -0.0003
    203  CZ        19.3490  -11.9810   43.6280 C.ar  136  PHE136     -0.0000
    204  N         11.8340  -11.0990   48.1780 N.3   139  SER139     -0.1217
    205  CA        11.4160  -10.2780   47.0400 C.3   139  SER139      0.1889
    206  C         10.4840  -11.0410   46.0990 C.2   139  SER139      0.2288
    207  O          9.5390  -10.4900   45.5430 O.2   139  SER139     -0.2866
    208  CB        12.6300   -9.7250   46.3080 C.3   139  SER139      0.2089
    209  OG        13.0130   -8.5090   46.8970 O.3   139  SER139     -0.2183
    210  N         20.6900   -6.5350   57.2610 N.3   211  CYS211     -0.1235
    211  CA        21.2530   -5.6140   56.2980 C.3   211  CYS211      0.1677
    212  C         21.8320   -4.4270   56.9820 C.2   211  CYS211      0.2270
    213  O         22.9020   -3.9780   56.6030 O.2   211  CYS211     -0.2867
    214  CB        20.2350   -5.1520   55.2520 C.3   211  CYS211      0.0956
    215  SG        19.7210   -6.5670   54.2660 S.3   211  CYS211     -0.0801
@<TRIPOS>BOND
     1    21    20    2
     2    20    19    1
     3    18    19    1
     4    19    22    1
     5   127   125   ar
     6   127   129   ar
     7   144   143    2
     8   125   124   ar
     9    16    15    1
    10    17    15    1
    11   143   142    1
    12   129   128   ar
    13    22    23    1
    14    15    14    1
    15   133   132    2
    16    14    11    1
    17    25    23    1
    18   124   123    1
    19   124   126   ar
    20    23    24    1
    21   128   126   ar
    22   142   145    1
    23   142   141    1
    24   123   120    1
    25    12    11    1
    26    12    13    2
    27    11    10    1
    28   120   119    1
    29   120   121    1
    30   115   114    2
    31   132   141   am
    32   132   131    1
    33   145   146    1
    34   130   121   am
    35   130   131    1
    36   112   113    1
    37   119   114   am
    38   114   113    1
    39   121   122    2
    40   148   147   ar
    41     4     3    2
    42   131   134    1
    43   103   102    2
    44   113   116    1
    45   102   101    1
    46    87    86    2
    47    98    97    2
    48    10     3   am
    49   134   135    1
    50   146   147    1
    51     3     2    1
    52    97    96    1
    53    97   100   am
    54   147   149   ar
    55    96    99    1
    56    96    95    1
    57   137   135   ar
    58   137   139   ar
    59   101   100    1
    60   101   104    1
    61    86    95   am
    62    86    85    1
    63   135   136   ar
    64   116   118    1
    65   116   117    1
    66    93    92    1
    67    94    92    1
    68   139   140   ar
    69     6     5    1
    70     6     7    1
    71    92    91    2
    72   107   109   ar
    73   107   105   ar
    74     2     5    1
    75     2     1    1
    76   109   110   ar
    77     9     7   am
    78    85    88    1
    79    85    84    1
    80   105   104    1
    81   105   106   ar
    82    88    89    1
    83   110   111    1
    84   110   108   ar
    85   136   138   ar
    86     7     8    2
    87   106   108   ar
    88    91    90    1
    89    90    89    1
    90   140   138   ar
    91   202   203   ar
    92   202   200   ar
    93   150   151    1
    94    55    54   ar
    95    55    53   ar
    96   159   160   ar
    97   159   157   ar
    98   160   158   ar
    99    54    52   ar
   100   203   201   ar
   101   200   198   ar
   102   157   155   ar
   103   158   156   ar
   104    53    51   ar
   105    79    78    2
   106    52    51   ar
   107   151   152    1
   108   151   154    1
   109   155   156   ar
   110   155   154    1
   111    51    50    1
   112   201   199   ar
   113   198   199   ar
   114   198   197    1
   115   152   153    2
   116    78    77    1
   117   207   206    2
   118   206   205    1
   119    50    47    1
   120    77    76    1
   121    77    80    1
   122   197   194    1
   123   208   209    1
   124   208   205    1
   125   196   195    2
   126   205   204    1
   127    80    81    1
   128    45    44    1
   129   194   195    1
   130   194   193    1
   131    47    46    1
   132    47    48    1
   133    81    82    1
   134    40    41    1
   135   183   181    1
   136    83    82    1
   137    41    44    1
   138    41    42    1
   139   161   162    1
   140    49    48    2
   141   193   187   am
   142    48    56   am
   143   166   167    1
   144   166   168    1
   145   166   165    1
   146   188   187    2
   147    64    65    1
   148    68    65    1
   149    65    66    1
   150   180   179    2
   151    43    42    2
   152   181   182    1
   153   181   178    1
   154   187   186    1
   155    26    27    1
   156    56    57    1
   157   165   162    1
   158   162   163    1
   159   191   189    1
   160   179   178    1
   161   182   184    1
   162    72    71    2
   163   178   177    1
   164    67    66    2
   165    28    27    1
   166    28    29    2
   167    27    30    1
   168   189   186    1
   169   189   190    1
   170   186   185    1
   171   163   164    2
   172    57    58    1
   173    57    60    1
   174    74    73    1
   175    71    70    1
   176    58    59    2
   177    61    63    1
   178    61    60    1
   179    61    62    1
   180    70    73    1
   181    70    69    1
   182   177   171   am
   183    30    31    1
   184   190   192    1
   185    73    75    1
   186    31    32   ar
   187    31    33   ar
   188    32    34   ar
   189   172   171    2
   190    33    36   ar
   191    33    35   ar
   192    36    38   ar
   193   171   170    1
   194    34    35   ar
   195    35    37   ar
   196    38    39   ar
   197    37    39   ar
   198   169   170    1
   199   170   173    1
   200   174   173    1
   201   174   175    1
   202   174   176    1
   203   215   214    1
   204   214   211    1
   205   211   212    1
   206   211   210    1
   207   213   212    2
