@<TRIPOS>MOLECULE
tmp/5x93A08.pdb
 105 103 0 0 0
SMALL
GASTEIGER

@<TRIPOS>ATOM
      1  N         12.0530   39.0140   10.3080 N.3   147  VAL147     -0.1231
      2  CA        13.0980   40.0300   10.4130 C.3   147  VAL147      0.1692
      3  C         13.1920   40.8330    9.1220 C.2   147  VAL147      0.2591
      4  O         13.3180   42.0640    9.1450 O.2   147  VAL147     -0.2718
      5  CB        14.4460   39.3760   10.7750 C.3   147  VAL147      0.0266
      6  CG1       15.5830   40.3790   10.6370 C.3   147  VAL147      0.0020
      7  CG2       14.4040   38.8120   12.1860 C.3   147  VAL147      0.0020
      8  N         13.1130   40.1530    7.9740 N.am  148  LEU148     -0.1980
      9  CA        13.2070   40.8440    6.6920 C.3   148  LEU148      0.1596
     10  C         12.0210   41.7610    6.4440 C.2   148  LEU148      0.2287
     11  O         12.1480   42.7500    5.7110 O.2   148  LEU148     -0.2864
     12  CB        13.3270   39.8280    5.5580 C.3   148  LEU148      0.0297
     13  CG        14.6390   39.0610    5.4540 C.3   148  LEU148      0.0022
     14  CD1       14.6360   38.2510    4.1890 C.3   148  LEU148      0.0001
     15  CD2       15.8260   40.0050    5.4740 C.3   148  LEU148      0.0001
     16  N         10.5100   43.4590    8.8500 N.3   150  VAL150     -0.1231
     17  CA        10.4870   44.5380    9.8430 C.3   150  VAL150      0.1678
     18  C         10.5690   45.9210    9.2020 C.2   150  VAL150      0.2434
     19  O          9.8570   46.8170    9.6570 O.2   150  VAL150     -0.2733
     20  CB        11.5520   44.2870   10.9150 C.3   150  VAL150      0.0265
     21  CG1       11.7890   45.5370   11.7460 C.3   150  VAL150      0.0020
     22  CG2       11.1520   43.1020   11.7840 C.3   150  VAL150      0.0020
     23  N         11.3970   46.1820    8.1810 N.am  151  PRO151     -0.2729
     24  CA        11.4510   47.5530    7.6260 C.3   151  PRO151      0.1401
     25  C         10.1080   48.0830    7.1540 C.2   151  PRO151      0.2269
     26  O          9.8930   49.3010    7.1970 O.2   151  PRO151     -0.2865
     27  CB        12.4460   47.4090    6.4690 C.3   151  PRO151      0.0296
     28  CG        13.3590   46.3230    6.9010 C.3   151  PRO151      0.0237
     29  CD        12.4790   45.3430    7.6380 C.3   151  PRO151      0.0939
     30  N          8.5460   49.6330   10.1250 N.3   154  ILE154     -0.1245
     31  CA         9.1900   50.8860   10.5060 C.3   154  ILE154      0.1561
     32  C          8.8410   51.9910    9.5160 C.2   154  ILE154      0.2260
     33  O          8.5640   53.1320    9.9070 O.2   154  ILE154     -0.2867
     34  CB        10.7140   50.6910   10.6220 C.3   154  ILE154      0.0252
     35  CG1       11.0550   49.7460   11.7730 C.3   154  ILE154      0.0019
     36  CG2       11.4170   52.0300   10.7980 C.3   154  ILE154      0.0019
     37  CD1       12.4840   49.2320   11.7260 C.3   154  ILE154      0.0001
     38  N         16.0250   57.3500    9.7210 N.3   179  THR179     -0.1218
     39  CA        17.3980   56.8740    9.7790 C.3   179  THR179      0.1862
     40  C         17.9640   56.6540    8.3800 C.2   179  THR179      0.2287
     41  O         17.2310   56.5140    7.3970 O.2   179  THR179     -0.2866
     42  CB        17.4880   55.5780   10.5910 C.3   179  THR179      0.1770
     43  OG1       16.6870   54.5650    9.9740 O.3   179  THR179     -0.2211
     44  CG2       17.0020   55.8100   12.0180 C.3   179  THR179      0.0375
     45  N         19.5980   54.0500    7.2510 N.3   181  PHE181     -0.1227
     46  CA        19.2500   52.7310    6.7340 C.3   181  PHE181      0.1736
     47  C         17.8510   52.7320    6.1340 C.2   181  PHE181      0.2595
     48  O         17.6290   52.1860    5.0480 O.2   181  PHE181     -0.2718
     49  CB        19.3450   51.6730    7.8330 C.3   181  PHE181      0.0547
     50  CG        18.8010   50.3340    7.4140 C.ar  181  PHE181     -0.0202
     51  CD1       19.5890   49.4510    6.6960 C.ar  181  PHE181     -0.0042
     52  CD2       17.4940   49.9710    7.7090 C.ar  181  PHE181     -0.0042
     53  CE1       19.0920   48.2260    6.2940 C.ar  181  PHE181     -0.0003
     54  CE2       16.9910   48.7490    7.3070 C.ar  181  PHE181     -0.0003
     55  CZ        17.7920   47.8750    6.5990 C.ar  181  PHE181     -0.0000
     56  N         16.8850   53.3250    6.8430 N.am  182  MET182     -0.1979
     57  CA        15.5190   53.3500    6.3350 C.3   182  MET182      0.1605
     58  C         15.4140   54.1820    5.0660 C.2   182  MET182      0.2287
     59  O         14.5910   53.8770    4.1950 O.2   182  MET182     -0.2864
     60  CB        14.5650   53.8770    7.4080 C.3   182  MET182      0.0413
     61  CG        14.1720   52.8400    8.4520 C.3   182  MET182      0.0598
     62  SD        13.7620   51.2290    7.7440 S.3   182  MET182     -0.1393
     63  CE        12.3910   51.6470    6.6640 C.3   182  MET182      0.0692
     64  N         17.9270   54.3370    2.8790 N.3   184  PHE184     -0.1227
     65  CA        18.4900   53.4370    1.8800 C.3   184  PHE184      0.1736
     66  C         17.4830   52.3680    1.4760 C.2   184  PHE184      0.2595
     67  O         17.3560   52.0420    0.2900 O.2   184  PHE184     -0.2718
     68  CB        19.7670   52.7850    2.4070 C.3   184  PHE184      0.0547
     69  CG        20.2280   51.6190    1.5810 C.ar  184  PHE184     -0.0202
     70  CD1       20.6200   51.8040    0.2650 C.ar  184  PHE184     -0.0042
     71  CD2       20.2500   50.3380    2.1080 C.ar  184  PHE184     -0.0042
     72  CE1       21.0390   50.7370   -0.5060 C.ar  184  PHE184     -0.0003
     73  CE2       20.6670   49.2660    1.3400 C.ar  184  PHE184     -0.0003
     74  CZ        21.0610   49.4660    0.0320 C.ar  184  PHE184     -0.0000
     75  N         16.7640   51.8090    2.4530 N.am  185  TYR185     -0.1976
     76  CA        15.7590   50.7940    2.1590 C.3   185  TYR185      0.1639
     77  C         14.7170   51.3080    1.1750 C.2   185  TYR185      0.2290
     78  O         14.3480   50.6000    0.2320 O.2   185  TYR185     -0.2864
     79  CB        15.0880   50.3340    3.4550 C.3   185  TYR185      0.0560
     80  CG        13.9140   49.4060    3.2390 C.ar  185  TYR185     -0.0198
     81  CD1       14.1060   48.0960    2.8220 C.ar  185  TYR185     -0.0009
     82  CD2       12.6110   49.8430    3.4480 C.ar  185  TYR185     -0.0009
     83  CE1       13.0350   47.2450    2.6200 C.ar  185  TYR185      0.0417
     84  CE2       11.5350   49.0000    3.2480 C.ar  185  TYR185      0.0417
     85  CZ        11.7520   47.7030    2.8350 C.ar  185  TYR185      0.1957
     86  OH        10.6820   46.8600    2.6360 O.3   185  TYR185     -0.2866
     87  N         16.1710   51.3830   -2.3320 N.3   188  ALA188     -0.1245
     88  CA        16.5600   50.0830   -2.8620 C.3   188  ALA188      0.1562
     89  C         15.4420   49.0500   -2.8190 C.2   188  ALA188      0.2260
     90  O         15.6390   47.9310   -3.3050 O.2   188  ALA188     -0.2867
     91  CB        17.7720   49.5550   -2.0910 C.3   188  ALA188      0.0290
     92  N         15.3440   45.2040   -4.3440 N.3   192  TRP192     -0.1241
     93  CA        15.4620   44.1910   -3.3040 C.3   192  TRP192      0.1605
     94  C         14.3080   43.1950   -3.3700 C.2   192  TRP192      0.2264
     95  O         14.5110   41.9870   -3.2040 O.2   192  TRP192     -0.2867
     96  CB        15.5210   44.8840   -1.9430 C.3   192  TRP192      0.0550
     97  CG        15.0700   44.0510   -0.8030 C.ar  192  TRP192      0.0003
     98  CD1       13.9040   44.1780   -0.1060 C.ar  192  TRP192      0.0946
     99  CD2       15.7810   42.9650   -0.2050 C.ar  192  TRP192      0.0152
    100  NE1       13.8430   43.2320    0.8860 N.ar  192  TRP192     -0.2442
    101  CE2       14.9830   42.4740    0.8460 C.ar  192  TRP192      0.0810
    102  CE3       17.0130   42.3570   -0.4580 C.ar  192  TRP192      0.0012
    103  CZ2       15.3780   41.4030    1.6430 C.ar  192  TRP192      0.0191
    104  CZ3       17.4030   41.2940    0.3330 C.ar  192  TRP192      0.0001
    105  CH2       16.5890   40.8290    1.3720 C.ar  192  TRP192      0.0015
@<TRIPOS>BOND
     1    92    93    1
     2    94    93    1
     3    94    95    2
     4    90    89    2
     5    93    96    1
     6    88    89    1
     7    88    87    1
     8    88    91    1
     9    96    97    1
    10    97    99   ar
    11    97    98   ar
    12    72    74   ar
    13    72    70   ar
    14   102    99   ar
    15   102   104   ar
    16    99   101   ar
    17    98   100   ar
    18    74    73   ar
    19    78    77    2
    20    70    69   ar
    21    67    66    2
    22   104   105   ar
    23   101   100   ar
    24   101   103   ar
    25    77    76    1
    26    73    71   ar
    27   105   103   ar
    28    66    65    1
    29    66    75   am
    30    69    71   ar
    31    69    68    1
    32    65    68    1
    33    65    64    1
    34    76    75    1
    35    76    79    1
    36    83    81   ar
    37    83    85   ar
    38    86    85    1
    39    81    80   ar
    40    85    84   ar
    41    80    82   ar
    42    80    79    1
    43    84    82   ar
    44    14    13    1
    45    59    58    2
    46    48    47    2
    47    58    57    1
    48    13    15    1
    49    13    12    1
    50    12     9    1
    51    11    10    2
    52    47    46    1
    53    47    56   am
    54    53    55   ar
    55    53    51   ar
    56    57    56    1
    57    57    60    1
    58    10     9    1
    59    27    28    1
    60    27    24    1
    61    55    54   ar
    62    63    62    1
    63     9     8    1
    64    51    50   ar
    65    46    45    1
    66    46    49    1
    67    28    29    1
    68    25    26    2
    69    25    24    1
    70    54    52   ar
    71    41    40    2
    72    60    61    1
    73    50    52   ar
    74    50    49    1
    75    24    23    1
    76    29    23    1
    77    62    61    1
    78     8     3   am
    79    23    18   am
    80    40    39    1
    81    16    17    1
    82     3     4    2
    83     3     2    1
    84    18    19    2
    85    18    17    1
    86    32    33    2
    87    32    31    1
    88    38    39    1
    89    39    42    1
    90    17    20    1
    91    43    42    1
    92    30    31    1
    93     1     2    1
    94     2     5    1
    95    31    34    1
    96    42    44    1
    97    34    36    1
    98    34    35    1
    99     6     5    1
   100     5     7    1
   101    20    21    1
   102    20    22    1
   103    37    35    1
