@<TRIPOS>MOLECULE
tmp/5x93A04.pdb
 95 95 0 0 0
SMALL
GASTEIGER

@<TRIPOS>ATOM
      1  N         17.9270   54.3370    2.8790 N.3   184  PHE184     -0.1241
      2  CA        18.4900   53.4370    1.8800 C.3   184  PHE184      0.1605
      3  C         17.4830   52.3680    1.4760 C.2   184  PHE184      0.2264
      4  O         17.3560   52.0420    0.2900 O.2   184  PHE184     -0.2867
      5  CB        19.7670   52.7850    2.4070 C.3   184  PHE184      0.0534
      6  CG        20.2280   51.6190    1.5810 C.ar  184  PHE184     -0.0203
      7  CD1       20.6200   51.8040    0.2650 C.ar  184  PHE184     -0.0042
      8  CD2       20.2500   50.3380    2.1080 C.ar  184  PHE184     -0.0042
      9  CE1       21.0390   50.7370   -0.5060 C.ar  184  PHE184     -0.0003
     10  CE2       20.6670   49.2660    1.3400 C.ar  184  PHE184     -0.0003
     11  CZ        21.0610   49.4660    0.0320 C.ar  184  PHE184     -0.0000
     12  N         14.9860   53.6100   -1.1180 N.3   187  THR187     -0.1203
     13  CA        15.5480   53.7390   -2.4590 C.3   187  THR187      0.1994
     14  C         15.7530   52.3760   -3.1100 C.2   187  THR187      0.2617
     15  O         15.5270   52.2170   -4.3160 O.2   187  THR187     -0.2717
     16  CB        16.8720   54.5040   -2.4000 C.3   187  THR187      0.1784
     17  OG1       16.7250   55.6600   -1.5660 O.3   187  THR187     -0.2211
     18  CG2       17.3090   54.9400   -3.7950 C.3   187  THR187      0.0376
     19  N         16.1710   51.3830   -2.3320 N.am  188  ALA188     -0.1979
     20  CA        16.5600   50.0830   -2.8620 C.3   188  ALA188      0.1597
     21  C         15.4420   49.0500   -2.8190 C.2   188  ALA188      0.2287
     22  O         15.6390   47.9310   -3.3050 O.2   188  ALA188     -0.2864
     23  CB        17.7720   49.5550   -2.0910 C.3   188  ALA188      0.0319
     24  N         14.3000   47.0040   -6.1660 N.3   191  TRP191     -0.1227
     25  CA        15.2700   46.0180   -6.6330 C.3   191  TRP191      0.1737
     26  C         15.4220   44.8820   -5.6340 C.2   191  TRP191      0.2595
     27  O         15.6180   43.7240   -6.0200 O.2   191  TRP191     -0.2718
     28  CB        16.6170   46.6900   -6.8770 C.3   191  TRP191      0.0564
     29  CG        16.6280   47.5090   -8.1080 C.ar  191  TRP191      0.0003
     30  CD1       16.8140   48.8560   -8.1940 C.ar  191  TRP191      0.0946
     31  CD2       16.4270   47.0420   -9.4450 C.ar  191  TRP191      0.0152
     32  NE1       16.7530   49.2570   -9.5050 N.ar  191  TRP191     -0.2442
     33  CE2       16.5180   48.1610  -10.2940 C.ar  191  TRP191      0.0810
     34  CE3       16.1950   45.7830  -10.0080 C.ar  191  TRP191      0.0012
     35  CZ2       16.3770   48.0610  -11.6750 C.ar  191  TRP191      0.0191
     36  CZ3       16.0540   45.6860  -11.3790 C.ar  191  TRP191      0.0001
     37  CH2       16.1450   46.8180  -12.1970 C.ar  191  TRP191      0.0015
     38  N         15.3440   45.2040   -4.3440 N.am  192  TRP192     -0.1976
     39  CA        15.4620   44.1910   -3.3040 C.3   192  TRP192      0.1640
     40  C         14.3080   43.1950   -3.3700 C.2   192  TRP192      0.2290
     41  O         14.5110   41.9870   -3.2040 O.2   192  TRP192     -0.2864
     42  CB        15.5210   44.8840   -1.9430 C.3   192  TRP192      0.0576
     43  CG        15.0700   44.0510   -0.8030 C.ar  192  TRP192      0.0006
     44  CD1       13.9040   44.1780   -0.1060 C.ar  192  TRP192      0.0946
     45  CD2       15.7810   42.9650   -0.2050 C.ar  192  TRP192      0.0152
     46  NE1       13.8430   43.2320    0.8860 N.ar  192  TRP192     -0.2442
     47  CE2       14.9830   42.4740    0.8460 C.ar  192  TRP192      0.0810
     48  CE3       17.0130   42.3570   -0.4580 C.ar  192  TRP192      0.0012
     49  CZ2       15.3780   41.4030    1.6430 C.ar  192  TRP192      0.0191
     50  CZ3       17.4030   41.2940    0.3330 C.ar  192  TRP192      0.0001
     51  CH2       16.5890   40.8290    1.3720 C.ar  192  TRP192      0.0015
     52  N         14.8970   40.8260   -6.0930 N.3   195  SER195     -0.1202
     53  CA        16.0350   39.9510   -5.8350 C.3   195  SER195      0.2020
     54  C         15.6590   38.8280   -4.8750 C.2   195  SER195      0.2618
     55  O         15.8490   37.6440   -5.1790 O.2   195  SER195     -0.2717
     56  CB        17.2060   40.7680   -5.2890 C.3   195  SER195      0.2103
     57  OG        17.6990   41.6860   -6.2480 O.3   195  SER195     -0.2182
     58  N         15.1240   39.1780   -3.7060 N.am  196  PHE196     -0.1975
     59  CA        14.9250   38.1640   -2.6760 C.3   196  PHE196      0.1639
     60  C         13.6510   37.3570   -2.8980 C.2   196  PHE196      0.2290
     61  O         13.6460   36.1380   -2.6940 O.2   196  PHE196     -0.2864
     62  CB        14.8950   38.8050   -1.2860 C.3   196  PHE196      0.0560
     63  CG        14.7160   37.8070   -0.1780 C.ar  196  PHE196     -0.0200
     64  CD1       13.4480   37.4460    0.2520 C.ar  196  PHE196     -0.0042
     65  CD2       15.8140   37.2040    0.4100 C.ar  196  PHE196     -0.0042
     66  CE1       13.2790   36.5150    1.2580 C.ar  196  PHE196     -0.0003
     67  CE2       15.6510   36.2720    1.4200 C.ar  196  PHE196     -0.0003
     68  CZ        14.3810   35.9230    1.8390 C.ar  196  PHE196     -0.0000
     69  N         13.9930   36.4040   -7.6900 N.3   199  CYS199     -0.1221
     70  CA        15.1930   35.8260   -8.2900 C.3   199  CYS199      0.1808
     71  C         15.7770   34.7220   -7.4150 C.2   199  CYS199      0.2601
     72  O         16.1380   33.6470   -7.9120 O.2   199  CYS199     -0.2717
     73  CB        16.2330   36.9160   -8.5400 C.3   199  CYS199      0.0970
     74  SG        15.8660   37.9780   -9.9510 S.3   199  CYS199     -0.0800
     75  N         15.8850   34.9720   -6.1100 N.am  200  LEU200     -0.1979
     76  CA        16.4400   33.9650   -5.2080 C.3   200  LEU200      0.1596
     77  C         15.6560   32.6580   -5.2200 C.2   200  LEU200      0.2287
     78  O         16.2800   31.5970   -5.3880 O.2   200  LEU200     -0.2864
     79  CB        16.5450   34.5400   -3.7920 C.3   200  LEU200      0.0297
     80  CG        16.8980   33.5160   -2.7140 C.3   200  LEU200      0.0022
     81  CD1       18.3440   33.0640   -2.8700 C.3   200  LEU200      0.0001
     82  CD2       16.6510   34.0730   -1.3220 C.3   200  LEU200      0.0001
     83  N         16.2560   30.7530   -8.4810 N.3   203  ALA203     -0.1231
     84  CA        17.6150   30.2340   -8.6030 C.3   203  ALA203      0.1694
     85  C         17.8220   29.0030   -7.7290 C.2   203  ALA203      0.2591
     86  O         18.4070   28.0120   -8.1760 O.2   203  ALA203     -0.2718
     87  CB        18.6270   31.3230   -8.2480 C.3   203  ALA203      0.0304
     88  N         17.3440   29.0440   -6.4840 N.am  204  ILE204     -0.1980
     89  CA        17.5150   27.9060   -5.5870 C.3   204  ILE204      0.1595
     90  C         16.7140   26.7080   -6.0840 C.2   204  ILE204      0.2287
     91  O         17.2360   25.5930   -6.1770 O.2   204  ILE204     -0.2864
     92  CB        17.1240   28.2880   -4.1480 C.3   204  ILE204      0.0276
     93  CG1       17.9560   29.4760   -3.6590 C.3   204  ILE204      0.0022
     94  CG2       17.2920   27.0950   -3.2150 C.3   204  ILE204      0.0022
     95  CD1       19.4120   29.1520   -3.4020 C.3   204  ILE204      0.0001
@<TRIPOS>BOND
     1    37    35   ar
     2    37    36   ar
     3    35    33   ar
     4    36    34   ar
     5    33    32   ar
     6    33    31   ar
     7    34    31   ar
     8    74    73    1
     9    32    30   ar
    10    31    29   ar
    11    84    83    1
    12    84    87    1
    13    84    85    1
    14    73    70    1
    15    70    69    1
    16    70    71    1
    17    30    29   ar
    18    86    85    2
    19    29    28    1
    20    72    71    2
    21    85    88   am
    22    71    75   am
    23    28    25    1
    24    25    24    1
    25    25    26    1
    26    88    89    1
    27    57    56    1
    28    91    90    2
    29    75    76    1
    30    52    53    1
    31    90    89    1
    32    27    26    2
    33    53    56    1
    34    53    54    1
    35    26    38   am
    36    89    92    1
    37    78    77    2
    38    77    76    1
    39    76    79    1
    40    55    54    2
    41    54    58   am
    42    38    39    1
    43    15    14    2
    44    92    93    1
    45    92    94    1
    46    18    16    1
    47    79    80    1
    48    58    59    1
    49    93    95    1
    50    40    39    1
    51    40    41    2
    52    22    21    2
    53    39    42    1
    54    14    13    1
    55    14    19   am
    56    60    61    2
    57    60    59    1
    58    81    80    1
    59    20    21    1
    60    20    19    1
    61    20    23    1
    62    80    82    1
    63    59    62    1
    64    13    16    1
    65    13    12    1
    66    16    17    1
    67    42    43    1
    68    62    63    1
    69    43    45   ar
    70    43    44   ar
    71     9    11   ar
    72     9     7   ar
    73    48    45   ar
    74    48    50   ar
    75    45    47   ar
    76    63    64   ar
    77    63    65   ar
    78    44    46   ar
    79    11    10   ar
    80    64    66   ar
    81     7     6   ar
    82     4     3    2
    83    50    51   ar
    84    65    67   ar
    85    47    46   ar
    86    47    49   ar
    87    66    68   ar
    88    10     8   ar
    89    51    49   ar
    90    67    68   ar
    91     3     2    1
    92     6     8   ar
    93     6     5    1
    94     2     5    1
    95     2     1    1
