@<TRIPOS>MOLECULE
tmp/5x93A10.pdb
 103 96 0 0 0
SMALL
GASTEIGER

@<TRIPOS>ATOM
      1  N         15.9470   21.3460   -8.1370 N.3   209  TYR209     -0.1241
      2  CA        15.0660   20.5200   -8.9530 C.3   209  TYR209      0.1605
      3  C         15.8440   19.8390  -10.0710 C.2   209  TYR209      0.2264
      4  O         15.5980   18.6690  -10.3850 O.2   209  TYR209     -0.2867
      5  CB        13.9310   21.3590   -9.5360 C.3   209  TYR209      0.0534
      6  CG        13.0160   20.5750  -10.4400 C.ar  209  TYR209     -0.0201
      7  CD1       11.9570   19.8420   -9.9180 C.ar  209  TYR209     -0.0009
      8  CD2       13.2170   20.5530  -11.8140 C.ar  209  TYR209     -0.0009
      9  CE1       11.1210   19.1160  -10.7410 C.ar  209  TYR209      0.0417
     10  CE2       12.3850   19.8310  -12.6440 C.ar  209  TYR209      0.0417
     11  CZ        11.3390   19.1150  -12.1020 C.ar  209  TYR209      0.1957
     12  OH        10.5060   18.3890  -12.9230 O.3   209  TYR209     -0.2866
     13  N          6.6750   15.9930   -9.6010 N.3   349  LYS349     -0.1245
     14  CA         5.5290   16.7600  -10.0790 C.3   349  LYS349      0.1561
     15  C          5.1230   17.8370   -9.0790 C.2   349  LYS349      0.2260
     16  O          4.8770   18.9880   -9.4580 O.2   349  LYS349     -0.2867
     17  CB         4.3580   15.8220  -10.3730 C.3   349  LYS349      0.0271
     18  CG         4.2790   15.3780  -11.8260 C.3   349  LYS349      0.0035
     19  CD         3.4170   14.1370  -11.9860 C.3   349  LYS349      0.0206
     20  CE         1.9990   14.3870  -11.5000 C.3   349  LYS349      0.1093
     21  NZ         1.1160   13.2130  -11.7430 N.3   349  LYS349     -0.1314
     22  N          7.7700   20.6830   -8.8530 N.3   352  PHE352     -0.1227
     23  CA         7.7200   21.4570  -10.0880 C.3   352  PHE352      0.1736
     24  C          6.4820   22.3450  -10.1300 C.2   352  PHE352      0.2595
     25  O          6.5640   23.5290  -10.4780 O.2   352  PHE352     -0.2718
     26  CB         7.7440   20.5180  -11.2950 C.3   352  PHE352      0.0547
     27  CG         7.7940   21.2290  -12.6150 C.ar  352  PHE352     -0.0202
     28  CD1        8.9990   21.6770  -13.1270 C.ar  352  PHE352     -0.0042
     29  CD2        6.6360   21.4500  -13.3440 C.ar  352  PHE352     -0.0042
     30  CE1        9.0520   22.3310  -14.3410 C.ar  352  PHE352     -0.0003
     31  CE2        6.6820   22.1050  -14.5600 C.ar  352  PHE352     -0.0003
     32  CZ         7.8920   22.5460  -15.0600 C.ar  352  PHE352     -0.0000
     33  N          5.3260   21.7880   -9.7670 N.am  353  CYS353     -0.1970
     34  CA         4.0740   22.5300   -9.8740 C.3   353  CYS353      0.1712
     35  C          4.0550   23.7290   -8.9330 C.2   353  CYS353      0.2296
     36  O          3.6860   24.8380   -9.3360 O.2   353  CYS353     -0.2864
     37  CB         2.8910   21.6030   -9.5930 C.3   353  CYS353      0.0983
     38  SG         1.2790   22.3800   -9.8320 S.3   353  CYS353     -0.0798
     39  N          6.4570   26.4520  -10.2160 N.3   356  LEU356     -0.1231
     40  CA         5.9450   27.0760  -11.4320 C.3   356  LEU356      0.1693
     41  C          4.7390   27.9600  -11.1370 C.2   356  LEU356      0.2591
     42  O          4.5990   29.0420  -11.7190 O.2   356  LEU356     -0.2718
     43  CB         5.5840   26.0030  -12.4570 C.3   356  LEU356      0.0284
     44  CG         5.0880   26.5250  -13.8030 C.3   356  LEU356      0.0019
     45  CD1        6.2040   27.2640  -14.5250 C.3   356  LEU356      0.0001
     46  CD2        4.5490   25.3870  -14.6540 C.3   356  LEU356      0.0001
     47  N          3.8570   27.5130  -10.2400 N.am  357  VAL357     -0.1980
     48  CA         2.7000   28.3230   -9.8690 C.3   357  VAL357      0.1595
     49  C          3.1510   29.6150   -9.2000 C.2   357  VAL357      0.2287
     50  O          2.6210   30.6950   -9.4870 O.2   357  VAL357     -0.2864
     51  CB         1.7490   27.5110   -8.9700 C.3   357  VAL357      0.0276
     52  CG1        0.8290   28.4350   -8.1830 C.3   357  VAL357      0.0022
     53  CG2        0.9380   26.5320   -9.8060 C.3   357  VAL357      0.0022
     54  N          4.6890   31.9740  -12.0380 N.3   360  LEU360     -0.1231
     55  CA         3.7230   32.5770  -12.9480 C.3   360  LEU360      0.1693
     56  C          2.8050   33.5620  -12.2340 C.2   360  LEU360      0.2592
     57  O          2.3930   34.5640  -12.8300 O.2   360  LEU360     -0.2718
     58  CB         2.9130   31.4840  -13.6420 C.3   360  LEU360      0.0284
     59  CG         3.7670   30.5960  -14.5500 C.3   360  LEU360      0.0019
     60  CD1        2.9880   29.4040  -15.0620 C.3   360  LEU360      0.0001
     61  CD2        4.3180   31.4100  -15.7080 C.3   360  LEU360      0.0001
     62  N          2.4790   33.3050  -10.9650 N.am  361  CYS361     -0.1970
     63  CA         1.6370   34.2340  -10.2220 C.3   361  CYS361      0.1712
     64  C          2.3400   35.5690  -10.0080 C.2   361  CYS361      0.2296
     65  O          1.6990   36.6270  -10.0140 O.2   361  CYS361     -0.2864
     66  CB         1.2370   33.6190   -8.8780 C.3   361  CYS361      0.0983
     67  SG        -0.0310   32.3270   -8.9730 S.3   361  CYS361     -0.0798
     68  N         -2.8010   38.8410   -9.7780 N.3   400  MET400     -0.1245
     69  CA        -2.1980   37.5430  -10.0680 C.3   400  MET400      0.1570
     70  C         -1.2640   37.1000   -8.9490 C.2   400  MET400      0.2261
     71  O         -1.2450   35.9190   -8.5810 O.2   400  MET400     -0.2867
     72  CB        -1.4450   37.5950  -11.3970 C.3   400  MET400      0.0387
     73  CG        -2.3330   37.7780  -12.6120 C.3   400  MET400      0.0595
     74  SD        -1.6100   37.0230  -14.0790 S.3   400  MET400     -0.1393
     75  CE        -1.6940   35.2870  -13.6390 C.3   400  MET400      0.0692
     76  N         -3.2990   35.7790   -6.1760 N.3   403  LEU403     -0.1245
     77  CA        -3.8670   34.4520   -6.3880 C.3   403  LEU403      0.1561
     78  C         -2.9780   33.3550   -5.8180 C.2   403  LEU403      0.2260
     79  O         -3.4740   32.2790   -5.4610 O.2   403  LEU403     -0.2867
     80  CB        -4.1020   34.2120   -7.8800 C.3   403  LEU403      0.0270
     81  CG        -5.2190   35.0170   -8.5450 C.3   403  LEU403      0.0019
     82  CD1       -5.2910   34.6960  -10.0300 C.3   403  LEU403      0.0001
     83  CD2       -6.5550   34.7510   -7.8680 C.3   403  LEU403      0.0001
     84  N         -3.4790   29.4470   -4.3770 N.3   407  ALA407     -0.1245
     85  CA        -3.2660   28.5880   -5.5360 C.3   407  ALA407      0.1562
     86  C         -2.6890   27.2280   -5.1670 C.2   407  ALA407      0.2260
     87  O         -2.9470   26.2430   -5.8690 O.2   407  ALA407     -0.2867
     88  CB        -2.3450   29.2850   -6.5370 C.3   407  ALA407      0.0290
     89  N         -4.9090   19.2570   -8.0100 N.3   414  LEU414     -0.1231
     90  CA        -4.9260   18.9300   -9.4290 C.3   414  LEU414      0.1693
     91  C         -3.7880   18.0020   -9.8380 C.2   414  LEU414      0.2591
     92  O         -3.9430   17.2310  -10.7910 O.2   414  LEU414     -0.2718
     93  CB        -4.8690   20.2150  -10.2590 C.3   414  LEU414      0.0284
     94  CG        -6.1800   20.9880  -10.4210 C.3   414  LEU414      0.0019
     95  CD1       -5.9740   22.2210  -11.2900 C.3   414  LEU414      0.0001
     96  CD2       -7.2640   20.0900  -11.0010 C.3   414  LEU414      0.0001
     97  N         -2.6550   18.0470   -9.1470 N.am  415  VAL415     -0.1980
     98  CA        -1.4370   17.3790   -9.6020 C.3   415  VAL415      0.1595
     99  C         -1.2160   16.0460   -8.8950 C.2   415  VAL415      0.2287
    100  O         -0.9220   15.0390   -9.5390 O.2   415  VAL415     -0.2864
    101  CB        -0.2210   18.3170   -9.4320 C.3   415  VAL415      0.0276
    102  CG1        1.0550   17.5170   -9.2270 C.3   415  VAL415      0.0022
    103  CG2       -0.0820   19.2120  -10.6440 C.3   415  VAL415      0.0022
@<TRIPOS>BOND
     1    61    59    1
     2    60    59    1
     3    32    31   ar
     4    32    30   ar
     5    46    44    1
     6    31    29   ar
     7    59    58    1
     8    45    44    1
     9    30    28   ar
    10    74    75    1
    11    74    73    1
    12    44    43    1
    13    58    55    1
    14    29    27   ar
    15    28    27   ar
    16    55    56    1
    17    55    54    1
    18    12    11    1
    19    57    56    2
    20    10    11   ar
    21    10     8   ar
    22    27    26    1
    23    73    72    1
    24    43    40    1
    25    56    62   am
    26    11     9   ar
    27    19    18    1
    28    19    20    1
    29    18    17    1
    30     8     6   ar
    31    21    20    1
    32    42    41    2
    33    40    41    1
    34    40    39    1
    35    72    69    1
    36    26    23    1
    37    95    94    1
    38    41    47   am
    39    96    94    1
    40    62    63    1
    41    92    91    2
    42     9     7   ar
    43   103   101    1
    44    25    24    2
    45     6     7   ar
    46     6     5    1
    47    94    93    1
    48     4     3    2
    49    17    14    1
    50    93    90    1
    51    47    48    1
    52    63    64    1
    53    63    66    1
    54    24    23    1
    55    24    33   am
    56    23    22    1
    57    14    13    1
    58    14    15    1
    59     3     2    1
    60    69    68    1
    61    69    70    1
    62    82    81    1
    63    65    64    2
    64    34    33    1
    65    34    37    1
    66    34    35    1
    67    48    49    1
    68    48    51    1
    69    91    90    1
    70    91    97   am
    71    38    37    1
    72    53    51    1
    73    98   101    1
    74    98    97    1
    75    98    99    1
    76   100    99    2
    77     5     2    1
    78    50    49    2
    79    16    15    2
    80   101   102    1
    81    90    89    1
    82    36    35    2
    83    67    66    1
    84    51    52    1
    85     2     1    1
    86    70    71    2
    87    81    80    1
    88    81    83    1
    89    80    77    1
    90    88    85    1
    91    77    76    1
    92    77    78    1
    93    87    86    2
    94    78    79    2
    95    85    86    1
    96    85    84    1
