@<TRIPOS>MOLECULE
tmp/5x93A06.pdb
 99 90 0 0 0
SMALL
GASTEIGER

@<TRIPOS>ATOM
      1  N         -4.8450   59.5980  -17.4730 N.3     8  GLY8       -0.1225
      2  CA        -5.0500   58.2000  -17.7920 C.3     8  GLY8        0.1811
      3  C         -5.3780   57.3310  -16.5910 C.2     8  GLY8        0.2280
      4  O         -6.3170   56.5280  -16.6090 O.2     8  GLY8       -0.2866
      5  N         -9.6190   56.6010  -14.7120 N.3    11  GLU11      -0.1231
      6  CA       -10.6510   55.6090  -14.9840 C.3    11  GLU11       0.1699
      7  C        -10.1410   54.1910  -14.7700 C.2    11  GLU11       0.2592
      8  O        -10.9170   53.3130  -14.3800 O.2    11  GLU11      -0.2718
      9  CB       -11.1850   55.7870  -16.4040 C.3    11  GLU11       0.0402
     10  CG       -11.7050   57.1880  -16.6840 C.3    11  GLU11       0.1161
     11  CD       -10.7420   58.0080  -17.5190 C.2    11  GLU11       0.3649
     12  OE1      -10.6250   59.2290  -17.2750 O.co2  11  GLU11      -0.2457
     13  OE2      -10.1030   57.4290  -18.4210 O.co2  11  GLU11      -0.2457
     14  N         -8.8510   53.9490  -15.0100 N.am   12  ILE12      -0.1980
     15  CA        -8.2820   52.6290  -14.7520 C.3    12  ILE12       0.1595
     16  C         -8.3870   52.2870  -13.2730 C.2    12  ILE12       0.2287
     17  O         -8.7870   51.1780  -12.9000 O.2    12  ILE12      -0.2864
     18  CB        -6.8240   52.5660  -15.2370 C.3    12  ILE12       0.0276
     19  CG1       -6.7600   52.7220  -16.7530 C.3    12  ILE12       0.0022
     20  CG2       -6.1760   51.2620  -14.7950 C.3    12  ILE12       0.0022
     21  CD1       -5.4580   53.2860  -17.2260 C.3    12  ILE12       0.0001
     22  N        -12.0110   51.7120  -12.6370 N.3    15  THR15      -0.1203
     23  CA       -12.3980   50.4530  -13.2690 C.3    15  THR15       0.1994
     24  C        -11.8780   49.2580  -12.4800 C.2    15  THR15       0.2617
     25  O        -12.5990   48.2740  -12.2790 O.2    15  THR15      -0.2717
     26  CB       -11.8840   50.4020  -14.7120 C.3    15  THR15       0.1784
     27  OG1      -12.5630   51.3860  -15.5030 O.3    15  THR15      -0.2211
     28  CG2      -12.1090   49.0250  -15.3260 C.3    15  THR15       0.0376
     29  N        -10.6340   49.3310  -12.0080 N.am   16  PHE16      -0.1975
     30  CA       -10.0450   48.2000  -11.3070 C.3    16  PHE16       0.1639
     31  C        -10.4850   48.0960   -9.8550 C.2    16  PHE16       0.2290
     32  O        -10.1800   47.0870   -9.2090 O.2    16  PHE16      -0.2864
     33  CB        -8.5200   48.2750  -11.3760 C.3    16  PHE16       0.0560
     34  CG        -7.9320   47.4030  -12.4380 C.ar   16  PHE16      -0.0200
     35  CD1       -7.6770   46.0660  -12.1870 C.ar   16  PHE16      -0.0042
     36  CD2       -7.6520   47.9120  -13.6940 C.ar   16  PHE16      -0.0042
     37  CE1       -7.1420   45.2540  -13.1650 C.ar   16  PHE16      -0.0003
     38  CE2       -7.1180   47.1050  -14.6780 C.ar   16  PHE16      -0.0003
     39  CZ        -6.8610   45.7740  -14.4130 C.ar   16  PHE16      -0.0000
     40  N        -12.6230   45.0910   -9.9170 N.3    19  ILE19      -0.1245
     41  CA       -11.8470   43.8910  -10.2240 C.3    19  ILE19       0.1561
     42  C        -11.0140   43.4780   -9.0170 C.2    19  ILE19       0.2260
     43  O        -10.9880   42.3040   -8.6290 O.2    19  ILE19      -0.2867
     44  CB       -10.9650   44.1210  -11.4650 C.3    19  ILE19       0.0252
     45  CG1      -11.8310   44.4390  -12.6850 C.3    19  ILE19       0.0019
     46  CG2      -10.0940   42.9040  -11.7240 C.3    19  ILE19       0.0019
     47  CD1      -11.0350   44.6380  -13.9580 C.3    19  ILE19       0.0001
     48  N        -11.3990   39.9010   -6.8970 N.3    23  VAL23      -0.1245
     49  CA       -10.2860   38.9580   -6.8080 C.3    23  VAL23       0.1561
     50  C         -9.8950   38.7290   -5.3520 C.2    23  VAL23       0.2260
     51  O         -9.6450   37.5920   -4.9320 O.2    23  VAL23      -0.2867
     52  CB        -9.0920   39.4580   -7.6430 C.3    23  VAL23       0.0252
     53  CG1       -7.8570   38.6200   -7.3570 C.3    23  VAL23       0.0019
     54  CG2       -9.4270   39.4190   -9.1270 C.3    23  VAL23       0.0019
     55  N         -0.4910   54.8070  -18.1590 N.3   388  SER388     -0.1217
     56  CA        -1.7150   54.0280  -18.3160 C.3   388  SER388      0.1889
     57  C         -1.4180   52.5430  -18.4850 C.2   388  SER388      0.2288
     58  O         -2.0580   51.6960  -17.8500 O.2   388  SER388     -0.2866
     59  CB        -2.5120   54.5560  -19.5110 C.3   388  SER388      0.2089
     60  OG        -3.7110   53.8310  -19.6950 O.3   388  SER388     -0.2183
     61  N         -2.0840   49.4950  -15.5520 N.3   392  VAL392     -0.1245
     62  CA        -2.9210   48.3340  -15.8370 C.3   392  VAL392      0.1561
     63  C         -2.1570   47.0430  -15.5700 C.2   392  VAL392      0.2260
     64  O         -2.6860   46.1160  -14.9430 O.2   392  VAL392     -0.2867
     65  CB        -3.4470   48.3940  -17.2830 C.3   392  VAL392      0.0252
     66  CG1       -4.0250   47.0470  -17.6980 C.3   392  VAL392      0.0019
     67  CG2       -4.4900   49.4860  -17.4220 C.3   392  VAL392      0.0019
     68  N         -3.0030   44.1640  -12.8120 N.3   396  ILE396     -0.1245
     69  CA        -3.0480   42.7420  -13.1470 C.3   396  ILE396      0.1561
     70  C         -2.0400   41.9720  -12.3030 C.2   396  ILE396      0.2260
     71  O         -2.3440   40.9050  -11.7560 O.2   396  ILE396     -0.2867
     72  CB        -2.7880   42.5340  -14.6510 C.3   396  ILE396      0.0252
     73  CG1       -3.8830   43.1880  -15.4920 C.3   396  ILE396      0.0019
     74  CG2       -2.6820   41.0480  -14.9770 C.3   396  ILE396      0.0019
     75  CD1       -3.6580   43.0400  -16.9830 C.3   396  ILE396      0.0001
     76  N         -3.2410   41.3930   -8.6780 N.3   399  ASN399     -0.1225
     77  CA        -4.2630   40.3610   -8.5380 C.3   399  ASN399      0.1785
     78  C         -3.6880   38.9710   -8.7860 C.2   399  ASN399      0.2597
     79  O         -4.0330   38.0160   -8.0810 O.2   399  ASN399     -0.2718
     80  CB        -5.4260   40.6450   -9.4900 C.3   399  ASN399      0.1169
     81  CG        -6.2130   41.8800   -9.0940 C.2   399  ASN399      0.2627
     82  OD1       -6.8550   41.9100   -8.0440 O.2   399  ASN399     -0.2716
     83  ND2       -6.1690   42.9060   -9.9360 N.am  399  ASN399     -0.0877
     84  N         -2.8010   38.8410   -9.7780 N.am  400  MET400     -0.1979
     85  CA        -2.1980   37.5430  -10.0680 C.3   400  MET400      0.1605
     86  C         -1.2640   37.1000   -8.9490 C.2   400  MET400      0.2287
     87  O         -1.2450   35.9190   -8.5810 O.2   400  MET400     -0.2864
     88  CB        -1.4450   37.5950  -11.3970 C.3   400  MET400      0.0413
     89  CG        -2.3330   37.7780  -12.6120 C.3   400  MET400      0.0598
     90  SD        -1.6100   37.0230  -14.0790 S.3   400  MET400     -0.1393
     91  CE        -1.6940   35.2870  -13.6390 C.3   400  MET400      0.0692
     92  N         -3.2990   35.7790   -6.1760 N.3   403  LEU403     -0.1245
     93  CA        -3.8670   34.4520   -6.3880 C.3   403  LEU403      0.1561
     94  C         -2.9780   33.3550   -5.8180 C.2   403  LEU403      0.2260
     95  O         -3.4740   32.2790   -5.4610 O.2   403  LEU403     -0.2867
     96  CB        -4.1020   34.2120   -7.8800 C.3   403  LEU403      0.0270
     97  CG        -5.2190   35.0170   -8.5450 C.3   403  LEU403      0.0019
     98  CD1       -5.2910   34.6960  -10.0300 C.3   403  LEU403      0.0001
     99  CD2       -6.5550   34.7510   -7.8680 C.3   403  LEU403      0.0001
@<TRIPOS>BOND
     1    60    59    1
     2    59    56    1
     3    57    56    1
     4    57    58    2
     5    13    11   ar
     6    56    55    1
     7     2     1    1
     8     2     3    1
     9    66    65    1
    10    11    12   ar
    11    11    10    1
    12    67    65    1
    13    65    62    1
    14    21    19    1
    15    75    73    1
    16    19    18    1
    17    10     9    1
    18     4     3    2
    19     9     6    1
    20    62    63    1
    21    62    61    1
    22    63    64    2
    23    27    26    1
    24    73    72    1
    25    28    26    1
    26    18    20    1
    27    18    15    1
    28    14     7   am
    29    14    15    1
    30     6     7    1
    31     6     5    1
    32    74    72    1
    33     7     8    2
    34    15    16    1
    35    26    23    1
    36    38    39   ar
    37    38    36   ar
    38    72    69    1
    39    39    37   ar
    40    90    91    1
    41    90    89    1
    42    47    45    1
    43    36    34   ar
    44    16    17    2
    45    23    22    1
    46    23    24    1
    47    37    35   ar
    48    69    68    1
    49    69    70    1
    50    45    44    1
    51    89    88    1
    52    24    25    2
    53    24    29   am
    54    34    35   ar
    55    34    33    1
    56    70    71    2
    57    29    30    1
    58    46    44    1
    59    44    41    1
    60    88    85    1
    61    33    30    1
    62    30    31    1
    63    41    40    1
    64    41    42    1
    65    85    84    1
    66    85    86    1
    67    98    97    1
    68    83    81   am
    69    31    32    2
    70    84    78   am
    71    80    81    1
    72    80    77    1
    73    54    52    1
    74    81    82    2
    75    42    43    2
    76    86    87    2
    77    78    77    1
    78    78    79    2
    79    76    77    1
    80    97    96    1
    81    97    99    1
    82    96    93    1
    83    52    53    1
    84    52    49    1
    85    48    49    1
    86    49    50    1
    87    93    92    1
    88    93    94    1
    89    94    95    2
    90    50    51    2
