@<TRIPOS>MOLECULE
tmp/5x93A12.pdb
 91 81 0 0 0
SMALL
GASTEIGER

@<TRIPOS>ATOM
      1  N        -12.4360   36.4880   -3.7830 N.3    26  LEU26      -0.1245
      2  CA       -12.1900   35.1350   -4.2680 C.3    26  LEU26       0.1561
      3  C        -10.9990   34.5080   -3.5530 C.2    26  LEU26       0.2260
      4  O        -11.0850   33.3850   -3.0440 O.2    26  LEU26      -0.2867
      5  CB       -11.9630   35.1550   -5.7790 C.3    26  LEU26       0.0270
      6  CG       -13.1690   34.7030   -6.5990 C.3    26  LEU26       0.0019
      7  CD1      -12.8040   34.5770   -8.0660 C.3    26  LEU26       0.0001
      8  CD2      -13.7010   33.3850   -6.0600 C.3    26  LEU26       0.0001
      9  N        -11.3870   31.0930   -1.3220 N.3    30  LEU30      -0.1245
     10  CA       -10.6120   29.9370   -1.7630 C.3    30  LEU30       0.1561
     11  C         -9.4100   29.7040   -0.8600 C.2    30  LEU30       0.2260
     12  O         -9.1040   28.5610   -0.5030 O.2    30  LEU30      -0.2867
     13  CB       -10.1540   30.1280   -3.2080 C.3    30  LEU30       0.0270
     14  CG       -11.2150   30.2250   -4.3030 C.3    30  LEU30       0.0019
     15  CD1      -10.5440   30.2680   -5.6680 C.3    30  LEU30       0.0001
     16  CD2      -12.2030   29.0690   -4.2150 C.3    30  LEU30       0.0001
     17  N          6.6750   15.9930   -9.6010 N.3   349  LYS349     -0.1245
     18  CA         5.5290   16.7600  -10.0790 C.3   349  LYS349      0.1561
     19  C          5.1230   17.8370   -9.0790 C.2   349  LYS349      0.2260
     20  O          4.8770   18.9880   -9.4580 O.2   349  LYS349     -0.2867
     21  CB         4.3580   15.8220  -10.3730 C.3   349  LYS349      0.0271
     22  CG         4.2790   15.3780  -11.8260 C.3   349  LYS349      0.0035
     23  CD         3.4170   14.1370  -11.9860 C.3   349  LYS349      0.0206
     24  CE         1.9990   14.3870  -11.5000 C.3   349  LYS349      0.1093
     25  NZ         1.1160   13.2130  -11.7430 N.3   349  LYS349     -0.1314
     26  N          5.3260   21.7880   -9.7670 N.3   353  CYS353     -0.1235
     27  CA         4.0740   22.5300   -9.8740 C.3   353  CYS353      0.1677
     28  C          4.0550   23.7290   -8.9330 C.2   353  CYS353      0.2270
     29  O          3.6860   24.8380   -9.3360 O.2   353  CYS353     -0.2867
     30  CB         2.8910   21.6030   -9.5930 C.3   353  CYS353      0.0956
     31  SG         1.2790   22.3800   -9.8320 S.3   353  CYS353     -0.0801
     32  N          3.8570   27.5130  -10.2400 N.3   357  VAL357     -0.1245
     33  CA         2.7000   28.3230   -9.8690 C.3   357  VAL357      0.1561
     34  C          3.1510   29.6150   -9.2000 C.2   357  VAL357      0.2260
     35  O          2.6210   30.6950   -9.4870 O.2   357  VAL357     -0.2867
     36  CB         1.7490   27.5110   -8.9700 C.3   357  VAL357      0.0252
     37  CG1        0.8290   28.4350   -8.1830 C.3   357  VAL357      0.0019
     38  CG2        0.9380   26.5320   -9.8060 C.3   357  VAL357      0.0019
     39  N          2.4790   33.3050  -10.9650 N.3   361  CYS361     -0.1235
     40  CA         1.6370   34.2340  -10.2220 C.3   361  CYS361      0.1677
     41  C          2.3400   35.5690  -10.0080 C.2   361  CYS361      0.2270
     42  O          1.6990   36.6270  -10.0140 O.2   361  CYS361     -0.2867
     43  CB         1.2370   33.6190   -8.8780 C.3   361  CYS361      0.0956
     44  SG        -0.0310   32.3270   -8.9730 S.3   361  CYS361     -0.0801
     45  N         -3.2990   35.7790   -6.1760 N.3   403  LEU403     -0.1245
     46  CA        -3.8670   34.4520   -6.3880 C.3   403  LEU403      0.1561
     47  C         -2.9780   33.3550   -5.8180 C.2   403  LEU403      0.2260
     48  O         -3.4740   32.2790   -5.4610 O.2   403  LEU403     -0.2867
     49  CB        -4.1020   34.2120   -7.8800 C.3   403  LEU403      0.0270
     50  CG        -5.2190   35.0170   -8.5450 C.3   403  LEU403      0.0019
     51  CD1       -5.2910   34.6960  -10.0300 C.3   403  LEU403      0.0001
     52  CD2       -6.5550   34.7510   -7.8680 C.3   403  LEU403      0.0001
     53  N         -3.8940   31.4910   -2.6060 N.3   406  CYS406     -0.1221
     54  CA        -4.8830   30.4260   -2.6150 C.3   406  CYS406      0.1808
     55  C         -4.5860   29.3410   -3.6390 C.2   406  CYS406      0.2601
     56  O         -5.3650   28.3870   -3.7480 O.2   406  CYS406     -0.2717
     57  CB        -6.2830   31.0020   -2.8800 C.3   406  CYS406      0.0970
     58  SG        -6.6270   31.4240   -4.6060 S.3   406  CYS406     -0.0800
     59  N         -3.4790   29.4470   -4.3770 N.am  407  ALA407     -0.1979
     60  CA        -3.2660   28.5880   -5.5360 C.3   407  ALA407      0.1597
     61  C         -2.6890   27.2280   -5.1670 C.2   407  ALA407      0.2287
     62  O         -2.9470   26.2430   -5.8690 O.2   407  ALA407     -0.2864
     63  CB        -2.3450   29.2850   -6.5370 C.3   407  ALA407      0.0319
     64  N         -5.1430   24.1950   -4.4810 N.3   410  ILE410     -0.1231
     65  CA        -5.7630   23.8320   -5.7530 C.3   410  ILE410      0.1692
     66  C         -4.7650   23.1130   -6.6520 C.2   410  ILE410      0.2591
     67  O         -5.0910   22.0910   -7.2670 O.2   410  ILE410     -0.2718
     68  CB        -6.3430   25.0880   -6.4330 C.3   410  ILE410      0.0266
     69  CG1       -7.5340   25.6180   -5.6330 C.3   410  ILE410      0.0019
     70  CG2       -6.7520   24.7900   -7.8690 C.3   410  ILE410      0.0020
     71  CD1       -7.9250   27.0330   -5.9800 C.3   410  ILE410      0.0001
     72  N         -3.5340   23.6280   -6.7390 N.am  411  ALA411     -0.1980
     73  CA        -2.5160   22.9760   -7.5580 C.3   411  ALA411      0.1597
     74  C         -2.2050   21.5750   -7.0450 C.2   411  ALA411      0.2287
     75  O         -2.0730   20.6350   -7.8360 O.2   411  ALA411     -0.2864
     76  CB        -1.2480   23.8290   -7.5970 C.3   411  ALA411      0.0319
     77  N         -4.9090   19.2570   -8.0100 N.3   414  LEU414     -0.1231
     78  CA        -4.9260   18.9300   -9.4290 C.3   414  LEU414      0.1693
     79  C         -3.7880   18.0020   -9.8380 C.2   414  LEU414      0.2591
     80  O         -3.9430   17.2310  -10.7910 O.2   414  LEU414     -0.2718
     81  CB        -4.8690   20.2150  -10.2590 C.3   414  LEU414      0.0284
     82  CG        -6.1800   20.9880  -10.4210 C.3   414  LEU414      0.0019
     83  CD1       -5.9740   22.2210  -11.2900 C.3   414  LEU414      0.0001
     84  CD2       -7.2640   20.0900  -11.0010 C.3   414  LEU414      0.0001
     85  N         -2.6550   18.0470   -9.1470 N.am  415  VAL415     -0.1980
     86  CA        -1.4370   17.3790   -9.6020 C.3   415  VAL415      0.1595
     87  C         -1.2160   16.0460   -8.8950 C.2   415  VAL415      0.2287
     88  O         -0.9220   15.0390   -9.5390 O.2   415  VAL415     -0.2864
     89  CB        -0.2210   18.3170   -9.4320 C.3   415  VAL415      0.0276
     90  CG1        1.0550   17.5170   -9.2270 C.3   415  VAL415      0.0022
     91  CG2       -0.0820   19.2120  -10.6440 C.3   415  VAL415      0.0022
@<TRIPOS>BOND
     1    23    22    1
     2    23    24    1
     3    22    21    1
     4    25    24    1
     5    83    82    1
     6    84    82    1
     7    39    40    1
     8    80    79    2
     9    91    89    1
    10    82    81    1
    11    21    18    1
    12    81    78    1
    13    32    33    1
    14    40    41    1
    15    40    43    1
    16    18    17    1
    17    18    19    1
    18    51    50    1
    19    42    41    2
    20    27    26    1
    21    27    30    1
    22    27    28    1
    23    33    34    1
    24    33    36    1
    25    79    78    1
    26    79    85   am
    27    31    30    1
    28    38    36    1
    29    86    89    1
    30    86    85    1
    31    86    87    1
    32    88    87    2
    33    35    34    2
    34    20    19    2
    35    89    90    1
    36    78    77    1
    37    29    28    2
    38    44    43    1
    39    36    37    1
    40    50    49    1
    41    50    52    1
    42     7     6    1
    43    49    46    1
    44    70    68    1
    45    75    74    2
    46    76    73    1
    47    73    74    1
    48    73    72    1
    49    67    66    2
    50    72    66   am
    51    66    65    1
    52     6     8    1
    53     6     5    1
    54    63    60    1
    55    68    65    1
    56    68    69    1
    57    46    45    1
    58    46    47    1
    59    71    69    1
    60    62    61    2
    61    47    48    2
    62     5     2    1
    63    65    64    1
    64    15    14    1
    65    60    61    1
    66    60    59    1
    67    58    57    1
    68    59    55   am
    69    14    16    1
    70    14    13    1
    71     2     1    1
    72     2     3    1
    73    56    55    2
    74    55    54    1
    75     3     4    2
    76    13    10    1
    77    57    54    1
    78    54    53    1
    79    10     9    1
    80    10    11    1
    81    11    12    2
