@<TRIPOS>MOLECULE
tmp/5x93A05.pdb
 100 93 0 0 0
SMALL
GASTEIGER

@<TRIPOS>ATOM
      1  N          1.4820   30.3030    6.5290 N.3    62  GLY62      -0.1225
      2  CA         1.9270   31.6480    6.2030 C.3    62  GLY62       0.1811
      3  C          0.9540   32.3840    5.3020 C.2    62  GLY62       0.2280
      4  O          0.7030   33.5780    5.4870 O.2    62  GLY62      -0.2866
      5  N         -2.2840   33.4110    7.3810 N.3    65  LEU65      -0.1245
      6  CA        -2.1590   34.6190    8.1910 C.3    65  LEU65       0.1561
      7  C         -2.2900   35.8730    7.3360 C.2    65  LEU65       0.2260
      8  O         -2.9000   36.8610    7.7590 O.2    65  LEU65      -0.2867
      9  CB        -0.8260   34.6080    8.9360 C.3    65  LEU65       0.0270
     10  CG        -0.7120   33.5100    9.9940 C.3    65  LEU65       0.0019
     11  CD1        0.7180   33.3730   10.4940 C.3    65  LEU65       0.0001
     12  CD2       -1.6690   33.7880   11.1430 C.3    65  LEU65       0.0001
     13  N          1.0720   49.9930    9.3280 N.3    91  LYS91      -0.1245
     14  CA         2.3400   49.2930    9.4820 C.3    91  LYS91       0.1561
     15  C          2.1560   47.7800    9.4840 C.2    91  LYS91       0.2260
     16  O          3.0400   47.0510    9.0200 O.2    91  LYS91      -0.2867
     17  CB         3.0300   49.7440   10.7730 C.3    91  LYS91       0.0271
     18  CG         3.3870   51.2290   10.8130 C.3    91  LYS91       0.0035
     19  CD         4.0190   51.6150   12.1480 C.3    91  LYS91       0.0206
     20  CE         4.6840   52.9880   12.0930 C.3    91  LYS91       0.1093
     21  NZ         5.5090   53.1900   10.8690 N.3    91  LYS91      -0.1314
     22  N          3.7710   44.5620    6.6690 N.3    95  PHE95      -0.1227
     23  CA         4.6520   43.6810    7.4270 C.3    95  PHE95       0.1736
     24  C          4.1910   42.2330    7.3160 C.2    95  PHE95       0.2595
     25  O          4.9890   41.3350    7.0270 O.2    95  PHE95      -0.2718
     26  CB         4.7020   44.1250    8.8900 C.3    95  PHE95       0.0547
     27  CG         5.3250   43.1110    9.8090 C.ar   95  PHE95      -0.0202
     28  CD1        6.7010   43.0530    9.9640 C.ar   95  PHE95      -0.0042
     29  CD2        4.5380   42.2170   10.5190 C.ar   95  PHE95      -0.0042
     30  CE1        7.2800   42.1200   10.8060 C.ar   95  PHE95      -0.0003
     31  CE2        5.1110   41.2800   11.3600 C.ar   95  PHE95      -0.0003
     32  CZ         6.4840   41.2320   11.5040 C.ar   95  PHE95      -0.0000
     33  N          2.8970   41.9920    7.5450 N.am   96  ILE96      -0.1980
     34  CA         2.3550   40.6390    7.4530 C.3    96  ILE96       0.1595
     35  C          2.5320   40.0900    6.0440 C.2    96  ILE96       0.2287
     36  O          2.9700   38.9500    5.8530 O.2    96  ILE96      -0.2864
     37  CB         0.8750   40.6240    7.8750 C.3    96  ILE96       0.0276
     38  CG1        0.7350   40.9620    9.3590 C.3    96  ILE96       0.0022
     39  CG2        0.2440   39.2720    7.5640 C.3    96  ILE96       0.0022
     40  CD1        1.1780   39.8550   10.2860 C.3    96  ILE96       0.0001
     41  N          6.2210   39.3110    5.2260 N.3    99  ALA99      -0.1231
     42  CA         6.6310   38.1250    5.9690 C.3    99  ALA99       0.1694
     43  C          6.0440   36.8620    5.3540 C.2    99  ALA99       0.2592
     44  O          6.6970   35.8120    5.3310 O.2    99  ALA99      -0.2718
     45  CB         6.2090   38.2530    7.4340 C.3    99  ALA99       0.0304
     46  N          4.8160   36.9470    4.8360 N.am  100  SER100     -0.1952
     47  CA         4.1460   35.7510    4.3330 C.3   100  SER100      0.1924
     48  C          4.7830   35.2440    3.0420 C.2   100  SER100      0.2314
     49  O          4.9780   34.0330    2.8830 O.2   100  SER100     -0.2863
     50  CB         2.6590   36.0280    4.1260 C.3   100  SER100      0.2116
     51  OG         2.0720   35.0390    3.2970 O.3   100  SER100     -0.2180
     52  N          7.9870   33.5450    3.8160 N.3   103  ILE103     -0.1245
     53  CA         7.7690   32.1650    4.2450 C.3   103  ILE103      0.1561
     54  C          7.5350   31.2680    3.0390 C.2   103  ILE103      0.2260
     55  O          8.0290   30.1380    2.9810 O.2   103  ILE103     -0.2867
     56  CB         6.5970   32.0970    5.2420 C.3   103  ILE103      0.0252
     57  CG1        7.0130   32.7110    6.5780 C.3   103  ILE103      0.0019
     58  CG2        6.1260   30.6590    5.4440 C.3   103  ILE103      0.0019
     59  CD1        5.8550   33.2570    7.3800 C.3   103  ILE103      0.0001
     60  N         10.7350   31.1100    9.4000 N.3   142  TRP142     -0.1241
     61  CA         9.7730   32.0880    9.8950 C.3   142  TRP142      0.1605
     62  C         10.4690   33.2770   10.5450 C.2   142  TRP142      0.2264
     63  O         10.0470   34.4240   10.3580 O.2   142  TRP142     -0.2867
     64  CB         8.8060   31.4190   10.8720 C.3   142  TRP142      0.0550
     65  CG         7.7270   30.6520   10.1760 C.ar  142  TRP142      0.0003
     66  CD1        7.8770   29.5200    9.4320 C.ar  142  TRP142      0.0946
     67  CD2        6.3290   30.9690   10.1460 C.ar  142  TRP142      0.0152
     68  NE1        6.6620   29.1080    8.9430 N.ar  142  TRP142     -0.2442
     69  CE2        5.6950   29.9810    9.3680 C.ar  142  TRP142      0.0810
     70  CE3        5.5520   31.9910   10.7030 C.ar  142  TRP142      0.0012
     71  CZ2        4.3200   29.9830    9.1340 C.ar  142  TRP142      0.0191
     72  CZ3        4.1880   31.9910   10.4680 C.ar  142  TRP142      0.0001
     73  CH2        3.5870   30.9930    9.6900 C.ar  142  TRP142      0.0015
     74  N         10.2900   37.1580    9.1070 N.3   146  VAL146     -0.1245
     75  CA         9.7690   38.2320    9.9490 C.3   146  VAL146      0.1561
     76  C         10.7870   39.3600   10.0670 C.2   146  VAL146      0.2260
     77  O         10.4450   40.5410    9.9360 O.2   146  VAL146     -0.2867
     78  CB         9.3690   37.6820   11.3290 C.3   146  VAL146      0.0252
     79  CG1        9.2700   38.8070   12.3460 C.3   146  VAL146      0.0019
     80  CG2        8.0500   36.9290   11.2310 C.3   146  VAL146      0.0019
     81  N         10.5100   43.4590    8.8500 N.3   150  VAL150     -0.1245
     82  CA        10.4870   44.5380    9.8430 C.3   150  VAL150      0.1561
     83  C         10.5690   45.9210    9.2020 C.2   150  VAL150      0.2260
     84  O          9.8570   46.8170    9.6570 O.2   150  VAL150     -0.2867
     85  CB        11.5520   44.2870   10.9150 C.3   150  VAL150      0.0252
     86  CG1       11.7890   45.5370   11.7460 C.3   150  VAL150      0.0019
     87  CG2       11.1520   43.1020   11.7840 C.3   150  VAL150      0.0019
     88  N          7.2600   47.6000    8.7350 N.3   153  ALA153     -0.1231
     89  CA         6.6430   48.1110    9.9540 C.3   153  ALA153      0.1694
     90  C          7.2450   49.4500   10.3590 C.2   153  ALA153      0.2591
     91  O          6.5410   50.3270   10.8700 O.2   153  ALA153     -0.2718
     92  CB         6.7920   47.0880   11.0800 C.3   153  ALA153      0.0304
     93  N          8.5460   49.6330   10.1250 N.am  154  ILE154     -0.1980
     94  CA         9.1900   50.8860   10.5060 C.3   154  ILE154      0.1595
     95  C          8.8410   51.9910    9.5160 C.2   154  ILE154      0.2287
     96  O          8.5640   53.1320    9.9070 O.2   154  ILE154     -0.2864
     97  CB        10.7140   50.6910   10.6220 C.3   154  ILE154      0.0276
     98  CG1       11.0550   49.7460   11.7730 C.3   154  ILE154      0.0022
     99  CG2       11.4170   52.0300   10.7980 C.3   154  ILE154      0.0022
    100  CD1       12.4840   49.2320   11.7260 C.3   154  ILE154      0.0001
@<TRIPOS>BOND
     1    49    48    2
     2    55    54    2
     3    54    53    1
     4    48    47    1
     5    51    50    1
     6    52    53    1
     7    50    47    1
     8    53    56    1
     9    47    46    1
    10    46    43   am
    11    41    42    1
    12    56    58    1
    13    56    57    1
    14     3     4    2
    15     3     2    1
    16    44    43    2
    17    43    42    1
    18    36    35    2
    19    42    45    1
    20    35    34    1
    21     2     1    1
    22    57    59    1
    23    22    23    1
    24    25    24    2
    25    24    23    1
    26    24    33   am
    27     7     8    2
    28     7     6    1
    29     5     6    1
    30    23    26    1
    31    34    33    1
    32    34    37    1
    33    39    37    1
    34    37    38    1
    35     6     9    1
    36    88    89    1
    37    81    82    1
    38    26    27    1
    39     9    10    1
    40    68    69   ar
    41    68    66   ar
    42    16    15    2
    43    74    75    1
    44    71    69   ar
    45    71    73   ar
    46    83    84    2
    47    83    82    1
    48    13    14    1
    49    38    40    1
    50    69    67   ar
    51    60    61    1
    52    66    65   ar
    53    14    15    1
    54    14    17    1
    55    95    96    2
    56    95    94    1
    57    73    72   ar
    58    27    28   ar
    59    27    29   ar
    60    82    85    1
    61    61    62    1
    62    61    64    1
    63    77    76    2
    64    75    76    1
    65    75    78    1
    66    89    90    1
    67    89    92    1
    68    28    30   ar
    69    10    11    1
    70    10    12    1
    71    93    90   am
    72    93    94    1
    73    67    65   ar
    74    67    70   ar
    75    65    64    1
    76    63    62    2
    77    90    91    2
    78    72    70   ar
    79    94    97    1
    80    29    31   ar
    81    97    99    1
    82    97    98    1
    83    17    18    1
    84    30    32   ar
    85    18    19    1
    86    21    20    1
    87    85    86    1
    88    85    87    1
    89    80    78    1
    90    78    79    1
    91    31    32   ar
    92   100    98    1
    93    20    19    1
