@<TRIPOS>MOLECULE
tmp/5x94B00.pdb
 129 122 0 0 0
SMALL
GASTEIGER

@<TRIPOS>ATOM
      1  N        -29.1180   32.8960  113.2550 N.3   116  GLY116     -0.1225
      2  CA       -29.6350   33.4040  114.5150 C.3   116  GLY116      0.1811
      3  C        -30.6430   34.5190  114.3290 C.2   116  GLY116      0.2280
      4  O        -31.5910   34.6410  115.1070 O.2   116  GLY116     -0.2866
      5  N        -31.5670   24.3090  115.1270 N.3   135  ARG135     -0.1245
      6  CA       -30.9580   24.6420  113.8550 C.3   135  ARG135      0.1563
      7  C        -29.4770   24.3040  113.9230 C.2   135  ARG135      0.2260
      8  O        -28.9700   23.8420  114.9460 O.2   135  ARG135     -0.2867
      9  CB       -31.1740   26.1210  113.5160 C.3   135  ARG135      0.0307
     10  CG       -30.7730   27.0750  114.6310 C.3   135  ARG135      0.0489
     11  CD       -30.7610   28.5090  114.1530 C.3   135  ARG135      0.2205
     12  NE       -30.4520   29.4670  115.2140 N.pl3 135  ARG135     -0.0865
     13  CZ       -29.2440   29.9890  115.4180 C.cat 135  ARG135      0.5346
     14  NH1      -28.2250   29.6300  114.6420 N.pl3 135  ARG135      0.1354
     15  NH2      -29.0470   30.8530  116.4040 N.pl3 135  ARG135      0.1354
     16  N        -25.3980   25.5030  113.6410 N.3   137  SER137     -0.1202
     17  CA       -24.5640   26.6360  114.0220 C.3   137  SER137      0.2020
     18  C        -23.8390   27.2120  112.8130 C.2   137  SER137      0.2619
     19  O        -23.2120   26.4790  112.0400 O.2   137  SER137     -0.2717
     20  CB       -23.5460   26.2220  115.0780 C.3   137  SER137      0.2103
     21  OG       -22.6340   27.2780  115.3260 O.3   137  SER137     -0.2182
     22  N        -23.9300   28.5290  112.6450 N.am  138  GLN138     -0.1965
     23  CA       -23.1460   29.1950  111.6150 C.3   138  GLN138      0.1733
     24  C        -21.7980   29.6640  112.1420 C.2   138  GLN138      0.2617
     25  O        -20.8260   29.6970  111.3820 O.2   138  GLN138     -0.2715
     26  CB       -23.9280   30.3720  111.0310 C.3   138  GLN138      0.0408
     27  CG       -25.2190   29.9490  110.3530 C.3   138  GLN138      0.0908
     28  CD       -25.9170   31.0940  109.6370 C.2   138  GLN138      0.2608
     29  OE1      -25.4860   32.2540  109.7010 O.2   138  GLN138     -0.2717
     30  NE2      -27.0090   30.7740  108.9510 N.am  138  GLN138     -0.0878
     31  N        -21.7050   29.9920  113.4330 N.am  139  SER139     -0.1950
     32  CA       -20.4090   30.3320  114.0070 C.3   139  SER139      0.1924
     33  C        -19.5180   29.0990  114.0750 C.2   139  SER139      0.2314
     34  O        -18.4000   29.0890  113.5510 O.2   139  SER139     -0.2863
     35  CB       -20.5860   30.9530  115.3920 C.3   139  SER139      0.2116
     36  OG       -20.9040   29.9600  116.3380 O.3   139  SER139     -0.2180
     37  N        -27.8370   24.6760  117.4690 N.3   145  VAL145     -0.1245
     38  CA       -28.2870   25.7720  118.3100 C.3   145  VAL145      0.1561
     39  C        -29.7740   25.5850  118.5770 C.2   145  VAL145      0.2260
     40  O        -30.5500   25.3210  117.6550 O.2   145  VAL145     -0.2867
     41  CB       -28.0110   27.1400  117.6550 C.3   145  VAL145      0.0252
     42  CG1      -28.0130   28.2600  118.7030 C.3   145  VAL145      0.0019
     43  CG2      -26.7000   27.1240  116.9230 C.3   145  VAL145      0.0019
     44  N        -33.5070   33.7190  123.3180 N.3   154  THR154     -0.1203
     45  CA       -32.2560   33.2080  123.8620 C.3   154  THR154      0.1994
     46  C        -31.7880   32.0720  122.9630 C.2   154  THR154      0.2618
     47  O        -32.5890   31.2070  122.6010 O.2   154  THR154     -0.2717
     48  CB       -32.4420   32.7260  125.3050 C.3   154  THR154      0.1784
     49  OG1      -32.9960   33.7830  126.1090 O.3   154  THR154     -0.2211
     50  CG2      -31.1120   32.3020  125.9010 C.3   154  THR154      0.0376
     51  N        -30.5170   32.1130  122.5560 N.am  155  HIS155     -0.1961
     52  CA       -29.9140   31.1100  121.6760 C.3   155  HIS155      0.1787
     53  C        -28.8730   30.3160  122.4460 C.2   155  HIS155      0.2620
     54  O        -27.9100   30.8940  122.9640 O.2   155  HIS155     -0.2715
     55  CB       -29.2150   31.7340  120.4610 C.3   155  HIS155      0.0785
     56  CG       -30.0340   32.7360  119.7040 C.ar  155  HIS155      0.0821
     57  ND1      -30.4920   32.5050  118.4240 N.ar  155  HIS155     -0.2267
     58  CD2      -30.4310   33.9900  120.0260 C.ar  155  HIS155      0.1154
     59  CE1      -31.1590   33.5620  117.9990 C.ar  155  HIS155      0.1986
     60  NE2      -31.1310   34.4790  118.9490 N.ar  155  HIS155     -0.2212
     61  N        -29.0300   28.9950  122.4750 N.am  156  VAL156     -0.1977
     62  CA       -28.1630   28.1220  123.2600 C.3   156  VAL156      0.1596
     63  C        -27.4260   27.1800  122.3220 C.2   156  VAL156      0.2287
     64  O        -28.0530   26.4130  121.5870 O.2   156  VAL156     -0.2864
     65  CB       -28.9490   27.3210  124.3050 C.3   156  VAL156      0.0276
     66  CG1      -27.9760   26.5900  125.2300 C.3   156  VAL156      0.0022
     67  CG2      -29.8900   28.2390  125.0660 C.3   156  VAL156      0.0022
     68  N        -25.6450   20.7710  126.0590 N.3   166  VAL166     -0.1231
     69  CA       -25.7790   22.2260  125.9380 C.3   166  VAL166      0.1692
     70  C        -24.5980   22.8910  126.6350 C.2   166  VAL166      0.2593
     71  O        -24.7760   23.8240  127.4270 O.2   166  VAL166     -0.2718
     72  CB       -27.1170   22.7600  126.5070 C.3   166  VAL166      0.0266
     73  CG1      -28.2890   22.4460  125.5710 C.3   166  VAL166      0.0020
     74  CG2      -27.3950   22.2190  127.9120 C.3   166  VAL166      0.0020
     75  N        -23.3840   22.4120  126.3610 N.am  167  GLY167     -0.1942
     76  CA       -22.2050   22.9500  127.0050 C.3   167  GLY167      0.2014
     77  C        -21.8950   22.3560  128.3560 C.2   167  GLY167      0.2639
     78  O        -20.9590   22.8160  129.0260 O.2   167  GLY167     -0.2714
     79  N        -22.6450   21.3480  128.7760 N.am  168  GLY168     -0.1939
     80  CA       -22.4590   20.7270  130.0610 C.3   168  GLY168      0.2014
     81  C        -23.5260   19.6780  130.2130 C.2   168  GLY168      0.2639
     82  O        -24.0630   19.2170  129.2050 O.2   168  GLY168     -0.2714
     83  N        -23.8370   19.2980  131.4540 N.am  169  GLY169     -0.1954
     84  CA       -24.9050   18.3890  131.8120 C.3   169  GLY169      0.1869
     85  C        -24.7340   17.0130  131.1900 C.2   169  GLY169      0.2309
     86  O        -23.6290   16.5610  130.8630 O.2   169  GLY169     -0.2863
     87  N        -34.7570   18.3360  128.3890 N.3   182  TYR182     -0.1241
     88  CA       -34.8440   19.7470  128.7520 C.3   182  TYR182      0.1605
     89  C        -36.2580   20.3170  128.6400 C.2   182  TYR182      0.2264
     90  O        -36.4820   21.4630  129.0530 O.2   182  TYR182     -0.2867
     91  CB       -33.8310   20.5480  127.9290 C.3   182  TYR182      0.0534
     92  CG       -32.4190   20.3150  128.4200 C.ar  182  TYR182     -0.0201
     93  CD1      -31.4780   19.6400  127.6410 C.ar  182  TYR182     -0.0009
     94  CD2      -32.0340   20.7450  129.6830 C.ar  182  TYR182     -0.0009
     95  CE1      -30.1680   19.4120  128.1160 C.ar  182  TYR182      0.0417
     96  CE2      -30.7500   20.5240  130.1650 C.ar  182  TYR182      0.0417
     97  CZ       -29.8230   19.8610  129.3880 C.ar  182  TYR182      0.1957
     98  OH       -28.5620   19.6580  129.8960 O.3   182  TYR182     -0.2866
     99  N        -31.8160   26.9700  132.9440 N.3   187  VAL187     -0.1231
    100  CA       -31.7170   28.3570  133.3740 C.3   187  VAL187      0.1692
    101  C        -30.3630   28.9010  132.9260 C.2   187  VAL187      0.2592
    102  O        -29.3490   28.1940  132.9530 O.2   187  VAL187     -0.2718
    103  CB       -31.9340   28.4800  134.9000 C.3   187  VAL187      0.0266
    104  CG1      -30.6640   28.1860  135.6760 C.3   187  VAL187      0.0020
    105  CG2      -32.4990   29.8440  135.2640 C.3   187  VAL187      0.0020
    106  N        -30.3590   30.1420  132.4660 N.am  188  GLU188     -0.1966
    107  CA       -29.1630   30.7360  131.9000 C.3   188  GLU188      0.1733
    108  C        -28.3420   31.4470  132.9730 C.2   188  GLU188      0.2617
    109  O        -28.8030   31.6870  134.0970 O.2   188  GLU188     -0.2715
    110  CB       -29.5300   31.7280  130.7990 C.3   188  GLU188      0.0429
    111  CG       -29.8900   33.0760  131.3660 C.3   188  GLU188      0.1163
    112  CD       -30.0410   34.1310  130.3250 C.2   188  GLU188      0.3649
    113  OE1      -29.2850   34.0930  129.3370 O.co2 188  GLU188     -0.2457
    114  OE2      -30.9040   35.0150  130.5000 O.co2 188  GLU188     -0.2457
    115  N        -27.1050   31.7860  132.5920 N.am  189  THR189     -0.1951
    116  CA       -26.1520   32.5520  133.3880 C.3   189  THR189      0.1897
    117  C        -26.8170   33.7270  134.0810 C.2   189  THR189      0.2313
    118  O        -26.4910   34.0390  135.2310 O.2   189  THR189     -0.2863
    119  CB       -25.0260   33.0650  132.4900 C.3   189  THR189      0.1794
    120  OG1      -24.4870   31.9730  131.7520 O.3   189  THR189     -0.2208
    121  CG2      -23.9200   33.6930  133.2990 C.3   189  THR189      0.0378
    122  N        -35.3910   28.6660  130.6190 N.3   194  LEU194     -0.1245
    123  CA       -35.5910   28.4460  129.1880 C.3   194  LEU194      0.1561
    124  C        -36.5330   27.2670  128.9780 C.2   194  LEU194      0.2260
    125  O        -36.1220   26.1550  128.6860 O.2   194  LEU194     -0.2867
    126  CB       -34.2530   28.2380  128.5040 C.3   194  LEU194      0.0270
    127  CG       -33.4530   29.5330  128.5450 C.3   194  LEU194      0.0019
    128  CD1      -32.1720   29.3690  127.7860 C.3   194  LEU194      0.0001
    129  CD2      -34.2940   30.6630  127.9670 C.3   194  LEU194      0.0001
@<TRIPOS>BOND
     1    30    28   am
     2    28    29    2
     3    28    27    1
     4    27    26    1
     5    26    23    1
     6    25    24    2
     7    23    24    1
     8    23    22    1
     9    19    18    2
    10    24    31   am
    11    22    18   am
    12    18    17    1
    13     1     2    1
    14    31    32    1
    15     9     6    1
    16     9    10    1
    17    34    33    2
    18    16    17    1
    19     6     7    1
    20     6     5    1
    21     7     8    2
    22    32    33    1
    23    32    35    1
    24    17    20    1
    25    11    10    1
    26    11    12    1
    27     3     2    1
    28     3     4    2
    29    14    13    1
    30    20    21    1
    31    12    13    2
    32    35    36    1
    33    13    15    1
    34    43    41    1
    35    37    38    1
    36    41    38    1
    37    41    42    1
    38    40    39    2
    39    59    57   ar
    40    59    60   ar
    41    38    39    1
    42    57    56   ar
    43    60    58   ar
    44    56    58   ar
    45    56    55    1
    46    55    52    1
    47    64    63    2
    48    52    53    1
    49    52    51    1
    50    63    62    1
    51    53    61   am
    52    53    54    2
    53    61    62    1
    54    51    46   am
    55    47    46    2
    56    46    45    1
    57    62    65    1
    58    44    45    1
    59    45    48    1
    60    65    67    1
    61    65    66    1
    62    48    50    1
    63    48    49    1
    64    73    72    1
    65    69    68    1
    66    69    72    1
    67    69    70    1
    68    75    70   am
    69    75    76    1
    70    72    74    1
    71    70    71    2
    72    76    77    1
    73    93    95   ar
    74    93    92   ar
    75   128   127    1
    76    91    92    1
    77    91    88    1
    78   129   127    1
    79    95    97   ar
    80    77    79   am
    81    77    78    2
    82    87    88    1
    83    92    94   ar
    84   126   127    1
    85   126   123    1
    86    89    88    1
    87    89    90    2
    88   125   124    2
    89    79    80    1
    90   124   123    1
    91   123   122    1
    92    82    81    2
    93   113   112   ar
    94    97    98    1
    95    97    96   ar
    96    94    96   ar
    97    80    81    1
    98    81    83   am
    99   112   114   ar
   100   112   111    1
   101   110   111    1
   102   110   107    1
   103    86    85    2
   104    85    84    1
   105    83    84    1
   106   120   119    1
   107   107   106    1
   108   107   108    1
   109   106   101   am
   110   119   121    1
   111   119   116    1
   112   115   108   am
   113   115   116    1
   114   101   102    2
   115   101   100    1
   116    99   100    1
   117   108   109    2
   118   100   103    1
   119   116   117    1
   120   117   118    2
   121   103   105    1
   122   103   104    1
