@<TRIPOS>MOLECULE
tmp/5x9hA00.pdb
 120 115 0 0 0
SMALL
GASTEIGER

@<TRIPOS>ATOM
      1  N          5.1850   -0.6190  155.9690 N.3   148  TYR148     -0.1241
      2  CA         6.6270   -0.7690  155.6920 C.3   148  TYR148      0.1605
      3  C          6.9390   -1.9350  154.7260 C.2   148  TYR148      0.2264
      4  O          6.3680   -3.0310  154.8070 O.2   148  TYR148     -0.2867
      5  CB         7.4070   -0.9520  156.9990 C.3   148  TYR148      0.0534
      6  CG         7.2410    0.2050  157.9530 C.ar  148  TYR148     -0.0201
      7  CD1        7.0460    1.5000  157.4810 C.ar  148  TYR148     -0.0009
      8  CD2        7.2630    0.0080  159.3240 C.ar  148  TYR148     -0.0009
      9  CE1        6.8820    2.5750  158.3470 C.ar  148  TYR148      0.0417
     10  CE2        7.0990    1.0770  160.2020 C.ar  148  TYR148      0.0417
     11  CZ         6.9070    2.3580  159.7000 C.ar  148  TYR148      0.1957
     12  OH         6.7420    3.4210  160.5470 O.3   148  TYR148     -0.2866
     13  N          9.7670   -4.4000  152.9000 N.3   150  TYR150     -0.1241
     14  CA        11.1220   -4.9180  152.9450 C.3   150  TYR150      0.1605
     15  C         11.6290   -5.3700  151.5730 C.2   150  TYR150      0.2264
     16  O         10.9260   -6.0160  150.7970 O.2   150  TYR150     -0.2867
     17  CB        11.2020   -6.0570  153.9800 C.3   150  TYR150      0.0534
     18  CG        10.9180   -5.5370  155.3760 C.ar  150  TYR150     -0.0201
     19  CD1       11.9020   -4.8710  156.0990 C.ar  150  TYR150     -0.0009
     20  CD2        9.6470   -5.6240  155.9310 C.ar  150  TYR150     -0.0009
     21  CE1       11.6390   -4.3470  157.3410 C.ar  150  TYR150      0.0417
     22  CE2        9.3770   -5.1020  157.1810 C.ar  150  TYR150      0.0417
     23  CZ        10.3750   -4.4670  157.8770 C.ar  150  TYR150      0.1957
     24  OH        10.1060   -3.9520  159.1170 O.3   150  TYR150     -0.2866
     25  N         14.9060   -1.4030  153.3020 N.3   161  VAL161     -0.1231
     26  CA        13.6100   -1.1750  153.9400 C.3   161  VAL161      0.1692
     27  C         13.0210    0.1350  153.3830 C.2   161  VAL161      0.2592
     28  O         13.7520    0.9890  152.8760 O.2   161  VAL161     -0.2718
     29  CB        13.7380   -1.1380  155.4700 C.3   161  VAL161      0.0266
     30  CG1       14.3330    0.1750  155.9000 C.3   161  VAL161      0.0020
     31  CG2       12.4030   -1.3490  156.1190 C.3   161  VAL161      0.0020
     32  N         11.7030    0.2820  153.4570 N.am  162  LEU162     -0.1966
     33  CA        11.0190    1.2480  152.6150 C.3   162  LEU162      0.1728
     34  C          9.6970    1.7310  153.2160 C.2   162  LEU162      0.2616
     35  O          8.7770    0.9390  153.4410 O.2   162  LEU162     -0.2715
     36  CB        10.7800    0.6030  151.2530 C.3   162  LEU162      0.0311
     37  CG        10.3380    1.4530  150.0740 C.3   162  LEU162      0.0022
     38  CD1       11.5250    2.2490  149.5680 C.3   162  LEU162      0.0001
     39  CD2        9.7530    0.5490  148.9890 C.3   162  LEU162      0.0001
     40  N          9.5920    3.0260  153.4790 N.am  163  SER163     -0.1950
     41  CA         8.3550    3.5490  154.0520 C.3   163  SER163      0.1924
     42  C          7.2630    3.7480  152.9970 C.2   163  SER163      0.2314
     43  O          7.5460    4.2350  151.9000 O.2   163  SER163     -0.2863
     44  CB         8.6240    4.8700  154.7640 C.3   163  SER163      0.2116
     45  OG         7.4270    5.4030  155.3000 O.3   163  SER163     -0.2180
     46  N          5.0750    6.0020  153.0990 N.3   165  ARG165     -0.1231
     47  CA         5.0770    7.4440  152.9090 C.3   165  ARG165      0.1694
     48  C          6.1070    7.8260  151.8420 C.2   165  ARG165      0.2592
     49  O          5.8720    8.7380  151.0320 O.2   165  ARG165     -0.2718
     50  CB         5.3540    8.1630  154.2350 C.3   165  ARG165      0.0321
     51  CG         6.3070    9.3440  154.1060 C.3   165  ARG165      0.0489
     52  CD         6.6080    9.9460  155.4590 C.3   165  ARG165      0.2205
     53  NE         5.9840   11.2530  155.6210 N.pl3 165  ARG165     -0.0865
     54  CZ         5.6030   11.7610  156.7900 C.cat 165  ARG165      0.5346
     55  NH1        5.7700   11.0620  157.9040 N.pl3 165  ARG165      0.1354
     56  NH2        5.0440   12.9660  156.8440 N.pl3 165  ARG165      0.1354
     57  N          7.2190    7.0890  151.8200 N.am  166  ASP166     -0.1974
     58  CA         8.3180    7.3540  150.8940 C.3   166  ASP166      0.1709
     59  C          7.9170    7.1320  149.4510 C.2   166  ASP166      0.2293
     60  O          8.1510    7.9880  148.6010 O.2   166  ASP166     -0.2864
     61  CB         9.5290    6.4770  151.2030 C.3   166  ASP166      0.1436
     62  CG        10.2220    6.8660  152.4930 C.2   166  ASP166      0.3671
     63  OD1        9.8780    7.9420  153.0410 O.co2 166  ASP166     -0.2456
     64  OD2       11.1170    6.1010  152.9440 O.co2 166  ASP166     -0.2456
     65  N         16.3280    2.1430  152.1570 N.3   181  ASN181     -0.1240
     66  CA        17.3810    2.2930  153.1420 C.3   181  ASN181      0.1653
     67  C         18.0500    0.9660  153.4320 C.2   181  ASN181      0.2266
     68  O         17.4270    0.0350  153.9430 O.2   181  ASN181     -0.2867
     69  CB        16.8340    2.9030  154.4210 C.3   181  ASN181      0.1155
     70  CG        17.8180    2.8480  155.5670 C.2   181  ASN181      0.2627
     71  OD1       19.0230    2.6380  155.3860 O.2   181  ASN181     -0.2716
     72  ND2       17.3010    3.0490  156.7690 N.am  181  ASN181     -0.0877
     73  N         20.6330    0.3970  155.5720 N.3   183  LYS183     -0.1231
     74  CA        21.0260    0.1560  156.9530 C.3   183  LYS183      0.1693
     75  C         19.7870   -0.3030  157.6980 C.2   183  LYS183      0.2592
     76  O         19.1850    0.4610  158.4490 O.2   183  LYS183     -0.2718
     77  CB        21.6450    1.4060  157.6010 C.3   183  LYS183      0.0285
     78  CG        22.9650    1.8660  157.1190 C.3   183  LYS183      0.0035
     79  CD        24.0830    0.8580  157.1480 C.3   183  LYS183      0.0206
     80  CE        25.3120    1.3970  156.3690 C.3   183  LYS183      0.1093
     81  NZ        24.8780    2.2570  155.1590 N.3   183  LYS183     -0.1314
     82  N         19.3940   -1.5510  157.4730 N.am  184  VAL184     -0.1966
     83  CA        18.1780   -2.0620  158.0890 C.3   184  VAL184      0.1727
     84  C         18.4000   -2.5610  159.5210 C.2   184  VAL184      0.2616
     85  O         19.3360   -3.3070  159.8030 O.2   184  VAL184     -0.2715
     86  CB        17.5790   -3.1890  157.2580 C.3   184  VAL184      0.0290
     87  CG1       16.0630   -3.1920  157.4060 C.3   184  VAL184      0.0023
     88  CG2       17.9730   -3.0090  155.8060 C.3   184  VAL184      0.0023
     89  N         17.5250   -2.1150  160.4160 N.am  185  VAL185     -0.1977
     90  CA        17.4850   -2.5390  161.8130 C.3   185  VAL185      0.1596
     91  C         16.6030   -3.7740  161.9150 C.2   185  VAL185      0.2287
     92  O         15.4930   -3.7680  161.4150 O.2   185  VAL185     -0.2864
     93  CB        16.9120   -1.4180  162.7310 C.3   185  VAL185      0.0276
     94  CG1       16.4750   -1.9720  164.0770 C.3   185  VAL185      0.0022
     95  CG2       17.8880   -0.2600  162.8750 C.3   185  VAL185      0.0022
     96  N         10.2710    2.5850  165.8920 N.3   205  PHE205     -0.1241
     97  CA         9.6970    1.7980  164.8050 C.3   205  PHE205      0.1605
     98  C          8.2800    1.2980  165.0970 C.2   205  PHE205      0.2264
     99  O          7.7530    1.5150  166.1900 O.2   205  PHE205     -0.2867
    100  CB        10.6070    0.6100  164.5280 C.3   205  PHE205      0.0534
    101  CG        11.8620    0.9810  163.8200 C.ar  205  PHE205     -0.0203
    102  CD1       11.9220    2.1480  163.0600 C.ar  205  PHE205     -0.0042
    103  CD2       12.9810    0.1630  163.8970 C.ar  205  PHE205     -0.0042
    104  CE1       13.0730    2.4900  162.3950 C.ar  205  PHE205     -0.0003
    105  CE2       14.1380    0.4920  163.2330 C.ar  205  PHE205     -0.0003
    106  CZ        14.1890    1.6580  162.4770 C.ar  205  PHE205     -0.0000
    107  N          7.3060   -1.7150  162.8690 N.3   207  VAL207     -0.1245
    108  CA         7.4960   -3.0930  162.4180 C.3   207  VAL207      0.1561
    109  C          9.0000   -3.4160  162.3810 C.2   207  VAL207      0.2260
    110  O          9.8070   -2.6750  161.7860 O.2   207  VAL207     -0.2867
    111  CB         6.8340   -3.3640  161.0240 C.3   207  VAL207      0.0252
    112  CG1        7.3640   -4.6400  160.3840 C.3   207  VAL207      0.0019
    113  CG2        5.3400   -3.4860  161.1660 C.3   207  VAL207      0.0019
    114  N         11.7810   -6.3930  161.3660 N.3   209  PRO209     -0.2116
    115  CA        11.9430   -7.5370  160.4630 C.3   209  PRO209      0.1372
    116  C         12.7350   -8.7260  160.9870 C.2   209  PRO209      0.2244
    117  O         13.9130   -8.8040  160.6820 O.2   209  PRO209     -0.2868
    118  CB        12.6910   -6.9230  159.2730 C.3   209  PRO209      0.0268
    119  CG        13.4100   -5.7730  159.8380 C.3   209  PRO209      0.0207
    120  CD        12.4880   -5.2040  160.8750 C.3   209  PRO209      0.0892
@<TRIPOS>BOND
     1    60    59    2
     2    39    37    1
     3    59    58    1
     4    38    37    1
     5    37    36    1
     6    16    15    2
     7    58    61    1
     8    58    57    1
     9    49    48    2
    10    61    62    1
    11    36    33    1
    12    15    14    1
    13    57    48   am
    14    48    47    1
    15    43    42    2
    16    65    66    1
    17    62    64   ar
    18    62    63   ar
    19    33    34    1
    20    33    32    1
    21    28    27    2
    22    13    14    1
    23    47    46    1
    24    47    50    1
    25    14    17    1
    26    42    41    1
    27    66    67    1
    28    66    69    1
    29    34    35    2
    30    34    40   am
    31    25    26    1
    32    27    32   am
    33    27    26    1
    34    67    68    2
    35    40    41    1
    36    26    29    1
    37    17    18    1
    38    41    44    1
    39    51    50    1
    40    51    52    1
    41    69    70    1
    42     3     4    2
    43     3     2    1
    44    44    45    1
    45    81    80    1
    46    18    20   ar
    47    18    19   ar
    48    71    70    2
    49    52    53    1
    50    29    30    1
    51    29    31    1
    52    70    72   am
    53    73    74    1
    54    53    54    2
    55     2     1    1
    56     2     5    1
    57    88    86    1
    58    20    22   ar
    59    19    21   ar
    60    80    79    1
    61    54    56    1
    62    54    55    1
    63    74    77    1
    64    74    75    1
    65     5     6    1
    66    78    79    1
    67    78    77    1
    68    22    23   ar
    69    86    87    1
    70    86    83    1
    71    21    23   ar
    72    82    75   am
    73    82    83    1
    74     7     6   ar
    75     7     9   ar
    76    75    76    2
    77    23    24    1
    78     6     8   ar
    79    83    84    1
    80     9    11   ar
    81   118   119    1
    82   118   115    1
    83     8    10   ar
    84    84    85    2
    85    84    89   am
    86    11    10   ar
    87    11    12    1
    88   119   120    1
    89   112   111    1
    90    89    90    1
    91   115   116    1
    92   115   114    1
    93   117   116    2
    94   120   114    1
    95   111   113    1
    96   111   108    1
    97    92    91    2
    98   110   109    2
    99    90    91    1
   100    90    93    1
   101   109   108    1
   102   104   106   ar
   103   104   102   ar
   104   108   107    1
   105   106   105   ar
   106    93    95    1
   107    93    94    1
   108   102   101   ar
   109   105   103   ar
   110   101   103   ar
   111   101   100    1
   112   100    97    1
   113    97    98    1
   114    97    96    1
   115    98    99    2
