@<TRIPOS>MOLECULE
tmp/5x9iA00.pdb
 179 171 0 0 0
SMALL
GASTEIGER

@<TRIPOS>ATOM
      1  N        154.8210    7.9740   22.1120 N.3     1  SER1       -0.1217
      2  CA       155.1860    7.2880   23.3660 C.3     1  SER1        0.1889
      3  C        155.3140    5.8040   23.0810 C.2     1  SER1        0.2288
      4  O        154.5980    5.2630   22.2360 O.2     1  SER1       -0.2866
      5  CB       154.2000    7.5490   24.4410 C.3     1  SER1        0.2089
      6  OG       152.8960    7.3880   24.0000 O.3     1  SER1       -0.2183
      7  N        159.2300    3.4590   29.6020 N.3    16  ARG16      -0.1245
      8  CA       158.2310    4.1870   28.8300 C.3    16  ARG16       0.1563
      9  C        158.7030    5.6520   28.5100 C.2    16  ARG16       0.2260
     10  O        159.2260    6.3180   29.3970 O.2    16  ARG16      -0.2867
     11  CB       156.9030    4.2620   29.5780 C.3    16  ARG16       0.0307
     12  CG       155.7850    5.0030   28.8720 C.3    16  ARG16       0.0489
     13  CD       155.6500    6.4140   29.3310 C.3    16  ARG16       0.2205
     14  NE       154.6800    7.1970   28.5290 N.pl3  16  ARG16      -0.0865
     15  CZ       153.4000    7.3300   28.8870 C.cat  16  ARG16       0.5346
     16  NH1      152.8850    6.7510   29.9870 N.pl3  16  ARG16       0.1354
     17  NH2      152.6040    8.0310   28.1210 N.pl3  16  ARG16       0.1354
     18  N        157.5470    9.4500   26.9700 N.3    18  ALA18      -0.1231
     19  CA       156.4680   10.4000   26.7380 C.3    18  ALA18       0.1694
     20  C        156.9270   11.3110   25.5530 C.2    18  ALA18       0.2592
     21  O        157.9430   12.0340   25.6530 O.2    18  ALA18      -0.2718
     22  CB       156.2410   11.2050   27.9850 C.3    18  ALA18       0.0304
     23  N        156.1980   11.2220   24.4220 N.am   19  ASP19      -0.1960
     24  CA       156.5600   11.8590   23.1330 C.3    19  ASP19       0.1840
     25  C        155.4130   12.7800   22.7690 C.2    19  ASP19       0.2622
     26  O        154.2970   12.4790   23.0300 O.2    19  ASP19      -0.2715
     27  CB       156.7490   10.9260   21.9580 C.3    19  ASP19       0.1450
     28  CG       157.5900    9.7240   22.1900 C.2    19  ASP19       0.3671
     29  OD1      158.4790    9.7540   23.0300 O.co2  19  ASP19      -0.2456
     30  OD2      157.3610    8.6780   21.5040 O.co2  19  ASP19      -0.2456
     31  N        155.7240   13.9150   22.1540 N.am   20  TRP20      -0.1974
     32  CA       154.6320   14.7810   21.6590 C.3    20  TRP20       0.1640
     33  C        155.2090   15.7100   20.5790 C.2    20  TRP20       0.2290
     34  O        156.4010   15.7110   20.3140 O.2    20  TRP20      -0.2864
     35  CB       154.0240   15.5850   22.7810 C.3    20  TRP20       0.0576
     36  CG       152.6580   16.0980   22.4630 C.ar   20  TRP20       0.0006
     37  CD1      152.2780   17.3830   22.5410 C.ar   20  TRP20       0.0946
     38  CD2      151.4780   15.3310   22.1650 C.ar   20  TRP20       0.0152
     39  NE1      150.9200   17.5010   22.2420 N.ar   20  TRP20      -0.2442
     40  CE2      150.4300   16.2580   21.9710 C.ar   20  TRP20       0.0810
     41  CE3      151.2220   13.9660   21.9630 C.ar   20  TRP20       0.0012
     42  CZ2      149.1410   15.8570   21.6020 C.ar   20  TRP20       0.0191
     43  CZ3      149.8970   13.5660   21.6550 C.ar   20  TRP20       0.0001
     44  CH2      148.8890   14.5400   21.4890 C.ar   20  TRP20       0.0015
     45  N        156.2320   18.7120   26.3640 N.3    26  PHE26      -0.1241
     46  CA       155.8400   18.1190   27.6260 C.3    26  PHE26       0.1605
     47  C        156.6160   18.6710   28.8180 C.2    26  PHE26       0.2264
     48  O        157.7370   19.1160   28.6720 O.2    26  PHE26      -0.2867
     49  CB       155.9690   16.6240   27.5160 C.3    26  PHE26       0.0534
     50  CG       154.8050   15.9020   26.8390 C.ar   26  PHE26      -0.0203
     51  CD1      153.6870   16.5390   26.3320 C.ar   26  PHE26      -0.0042
     52  CD2      154.8700   14.5310   26.7270 C.ar   26  PHE26      -0.0042
     53  CE1      152.6750   15.7980   25.7700 C.ar   26  PHE26      -0.0003
     54  CE2      153.8190   13.8100   26.1970 C.ar   26  PHE26      -0.0003
     55  CZ       152.6870   14.4350   25.7190 C.ar   26  PHE26      -0.0000
     56  N        152.9110   10.1020   37.6850 N.3    64  ILE64      -0.1231
     57  CA       153.5990   11.0130   36.7740 C.3    64  ILE64       0.1692
     58  C        152.5550   11.6870   35.9150 C.2    64  ILE64       0.2592
     59  O        151.7600   11.0310   35.2520 O.2    64  ILE64      -0.2718
     60  CB       154.6630   10.3120   35.9760 C.3    64  ILE64       0.0266
     61  CG1      155.6390    9.7800   37.0160 C.3    64  ILE64       0.0019
     62  CG2      155.2880   11.2530   34.9480 C.3    64  ILE64       0.0020
     63  CD1      156.7560    9.0900   36.5150 C.3    64  ILE64       0.0001
     64  N        152.5540   12.9990   35.9790 N.am   65  GLU65      -0.1966
     65  CA       151.5580   13.8780   35.3760 C.3    65  GLU65       0.1733
     66  C        152.1840   14.6930   34.2290 C.2    65  GLU65       0.2616
     67  O        153.2870   15.1290   34.3790 O.2    65  GLU65      -0.2715
     68  CB       151.0220   14.8770   36.4460 C.3    65  GLU65       0.0429
     69  CG       150.2520   14.1680   37.5740 C.3    65  GLU65       0.1163
     70  CD       149.9480   15.1230   38.7150 C.2    65  GLU65       0.3649
     71  OE1      150.3310   16.3180   38.6590 O.co2  65  GLU65      -0.2457
     72  OE2      149.3480   14.6410   39.7090 O.co2  65  GLU65      -0.2457
     73  N        151.4200   14.9520   33.1590 N.am   66  GLU66      -0.1977
     74  CA       151.9190   15.7300   32.0120 C.3    66  GLU66       0.1602
     75  C        151.2650   17.0840   32.0380 C.2    66  GLU66       0.2287
     76  O        150.0260   17.2240   31.8700 O.2    66  GLU66      -0.2864
     77  CB       151.7100   14.9670   30.7070 C.3    66  GLU66       0.0415
     78  CG       152.5120   15.3990   29.5050 C.3    66  GLU66       0.1163
     79  CD       152.4440   16.8770   29.3240 C.2    66  GLU66       0.3649
     80  OE1      151.3630   17.3110   28.8430 O.co2  66  GLU66      -0.2457
     81  OE2      153.4260   17.5520   29.6800 O.co2  66  GLU66      -0.2457
     82  N        148.7920   18.2990   28.4510 N.3    70  PHE70      -0.1241
     83  CA       147.6080   17.5460   28.8970 C.3    70  PHE70       0.1605
     84  C        147.0280   18.0050   30.2310 C.2    70  PHE70       0.2264
     85  O        146.3210   17.2740   30.9430 O.2    70  PHE70      -0.2867
     86  CB       147.9130   16.0560   28.9250 C.3    70  PHE70       0.0534
     87  CG       147.9170   15.4190   27.5650 C.ar   70  PHE70      -0.0203
     88  CD1      149.0340   15.5090   26.7690 C.ar   70  PHE70      -0.0042
     89  CD2      146.7580   14.7440   27.0840 C.ar   70  PHE70      -0.0042
     90  CE1      149.0600   14.9300   25.5020 C.ar   70  PHE70      -0.0003
     91  CE2      146.7540   14.2120   25.8110 C.ar   70  PHE70      -0.0003
     92  CZ       147.9310   14.2580   25.0430 C.ar   70  PHE70      -0.0000
     93  N        147.2430   15.6910   33.4480 N.3    73  LEU73      -0.1245
     94  CA       146.7280   14.3120   33.3740 C.3    73  LEU73       0.1561
     95  C        147.7900   13.3270   33.8350 C.2    73  LEU73       0.2260
     96  O        148.9670   13.4280   33.4750 O.2    73  LEU73      -0.2867
     97  CB       146.4150   14.0110   31.9320 C.3    73  LEU73       0.0270
     98  CG       145.9000   12.5800   31.5940 C.3    73  LEU73       0.0019
     99  CD1      144.7890   12.6640   30.5790 C.3    73  LEU73       0.0001
    100  CD2      147.0070   11.6810   31.0670 C.3    73  LEU73       0.0001
    101  N        149.6750   10.0780   33.5190 N.3    75  GLY75      -0.1210
    102  CA       149.9560    9.1700   32.4220 C.3    75  GLY75       0.1956
    103  C        150.7390    7.9210   32.7520 C.2    75  GLY75       0.2611
    104  O        150.8030    7.0330   31.9230 O.2    75  GLY75      -0.2717
    105  N        151.3700    7.8870   33.8980 N.am   76  GLN76      -0.1979
    106  CA       152.2070    6.7310   34.2690 C.3    76  GLN76       0.1601
    107  C        152.2300    6.6430   35.7750 C.2    76  GLN76       0.2287
    108  O        152.5910    7.6370   36.4400 O.2    76  GLN76      -0.2864
    109  CB       153.6870    6.8520   33.8290 C.3    76  GLN76       0.0394
    110  CG       154.4810    5.5680   33.9890 C.3    76  GLN76       0.0908
    111  CD       154.2630    4.5710   32.8850 C.2    76  GLN76       0.2608
    112  OE1      154.2080    4.9230   31.6970 O.2    76  GLN76      -0.2717
    113  NE2      154.2660    3.2810   33.3000 N.am   76  GLN76      -0.0878
    114  N        148.8040    5.5050   30.4560 N.3    87  ALA87      -0.1231
    115  CA       148.0320    5.9440   29.2840 C.3    87  ALA87       0.1694
    116  C        148.9850    6.4990   28.2120 C.2    87  ALA87       0.2592
    117  O        149.8580    7.3170   28.5850 O.2    87  ALA87      -0.2718
    118  CB       147.1290    7.0860   29.7000 C.3    87  ALA87       0.0304
    119  N        148.8190    6.0570   26.9790 N.am   88  LEU88      -0.1966
    120  CA       149.6100    6.4600   25.8470 C.3    88  LEU88       0.1728
    121  C        148.6100    6.9850   24.8070 C.2    88  LEU88       0.2616
    122  O        147.4590    6.5350   24.7290 O.2    88  LEU88      -0.2715
    123  CB       150.4890    5.3490   25.3480 C.3    88  LEU88       0.0311
    124  CG       151.8610    5.1410   26.0120 C.3    88  LEU88       0.0022
    125  CD1      151.6950    4.6240   27.4050 C.3    88  LEU88       0.0001
    126  CD2      152.7170    4.1850   25.2310 C.3    88  LEU88       0.0001
    127  N        149.0740    7.8420   23.9210 N.am   89  SER89      -0.1950
    128  CA       148.2080    8.3460   22.8450 C.3    89  SER89       0.1924
    129  C        147.8490    7.1730   21.9060 C.2    89  SER89       0.2314
    130  O        148.6070    6.2850   21.6480 O.2    89  SER89      -0.2863
    131  CB       148.9550    9.4320   22.0620 C.3    89  SER89       0.2116
    132  OG       148.9670   10.6420   22.7950 O.3    89  SER89      -0.2180
    133  N        143.3110    8.1160   23.7900 N.3   153  LEU153     -0.1245
    134  CA       144.3070    7.4040   24.5640 C.3   153  LEU153      0.1561
    135  C        144.0030    5.9290   24.5440 C.2   153  LEU153      0.2260
    136  O        142.8580    5.5040   24.2560 O.2   153  LEU153     -0.2867
    137  CB       144.3250    7.8730   26.0190 C.3   153  LEU153      0.0270
    138  CG       144.6040    9.3700   26.2650 C.3   153  LEU153      0.0019
    139  CD1      144.2270    9.8020   27.6660 C.3   153  LEU153      0.0001
    140  CD2      146.1000    9.7080   25.9850 C.3   153  LEU153      0.0001
    141  N        151.6280    3.7560   19.8870 N.3   191  ASN191     -0.1240
    142  CA       150.5280    4.6480   19.5500 C.3   191  ASN191      0.1653
    143  C        149.7530    3.9820   18.3640 C.2   191  ASN191      0.2266
    144  O        149.7040    2.7910   18.2590 O.2   191  ASN191     -0.2867
    145  CB       151.0810    6.0380   19.2120 C.3   191  ASN191      0.1155
    146  CG       152.0200    6.5840   20.2730 C.2   191  ASN191      0.2627
    147  OD1      153.1890    6.8460   20.0150 O.2   191  ASN191     -0.2716
    148  ND2      151.4950    6.6980   21.5080 N.am  191  ASN191     -0.0877
    149  N        157.5130   14.3830   16.4630 N.3   273  TYR273     -0.1241
    150  CA       156.9940   13.7090   17.6050 C.3   273  TYR273      0.1605
    151  C        158.0680   13.3230   18.6440 C.2   273  TYR273      0.2264
    152  O        158.1190   12.2200   19.0970 O.2   273  TYR273     -0.2867
    153  CB       156.2670   12.4470   17.1170 C.3   273  TYR273      0.0534
    154  CG       155.0630   12.0140   17.9900 C.ar  273  TYR273     -0.0201
    155  CD1      153.9150   12.7990   18.0840 C.ar  273  TYR273     -0.0009
    156  CD2      155.0640   10.7750   18.6670 C.ar  273  TYR273     -0.0009
    157  CE1      152.8700   12.3850   18.8150 C.ar  273  TYR273      0.0417
    158  CE2      153.9880   10.3740   19.4190 C.ar  273  TYR273      0.0417
    159  CZ       152.8860   11.1730   19.5190 C.ar  273  TYR273      0.1957
    160  OH       151.7580   10.8260   20.2340 O.3   273  TYR273     -0.2866
    161  N        160.5730   12.8760   27.8050 N.3   277  PHE277     -0.1241
    162  CA       161.0710   12.3020   29.0520 C.3   277  PHE277      0.1605
    163  C        160.7940   10.8320   29.0330 C.2   277  PHE277      0.2264
    164  O        159.9920   10.3700   28.1940 O.2   277  PHE277     -0.2867
    165  CB       160.5270   13.0170   30.3270 C.3   277  PHE277      0.0534
    166  CG       159.0560   12.9930   30.5320 C.ar  277  PHE277     -0.0203
    167  CD1      158.4600   11.9200   31.2640 C.ar  277  PHE277     -0.0042
    168  CD2      158.2330   14.0440   30.1490 C.ar  277  PHE277     -0.0042
    169  CE1      157.1220   11.9280   31.4990 C.ar  277  PHE277     -0.0003
    170  CE2      156.8380   14.0250   30.3800 C.ar  277  PHE277     -0.0003
    171  CZ       156.2980   12.9920   31.1290 C.ar  277  PHE277     -0.0000
    172  N        160.6850    7.0560   31.7400 N.3   279  MET279     -0.1245
    173  CA       160.7840    6.4330   33.0420 C.3   279  MET279      0.1570
    174  C        161.1700    4.9830   32.8480 C.2   279  MET279      0.2261
    175  O        160.7900    4.3370   31.8820 O.2   279  MET279     -0.2867
    176  CB       159.4690    6.4290   33.7210 C.3   279  MET279      0.0387
    177  CG       159.0980    7.7170   34.3350 C.3   279  MET279      0.0595
    178  SD       158.5450    8.9080   33.1700 S.3   279  MET279     -0.1393
    179  CE       156.9490    8.3990   32.8710 C.3   279  MET279      0.0692
@<TRIPOS>BOND
     1   149   150    1
     2   153   150    1
     3   153   154    1
     4   150   151    1
     5   154   155   ar
     6   154   156   ar
     7   155   157   ar
     8   144   143    2
     9   143   142    1
    10   151   152    2
    11   156   158   ar
    12   157   159   ar
    13   145   142    1
    14   145   146    1
    15   158   159   ar
    16   159   160    1
    17   142   141    1
    18   147   146    2
    19   146   148   am
    20    34    33    2
    21    33    32    1
    22    44    42   ar
    23    44    43   ar
    24    30    28   ar
    25    42    40   ar
    26   130   129    2
    27    43    41   ar
    28    32    31    1
    29    32    35    1
    30   129   128    1
    31    27    28    1
    32    27    24    1
    33    41    38   ar
    34    40    38   ar
    35    40    39   ar
    36   131   132    1
    37   131   128    1
    38     1     2    1
    39    31    25   am
    40    38    36   ar
    41    28    29   ar
    42     4     3    2
    43    39    37   ar
    44    36    37   ar
    45    36    35    1
    46    25    26    2
    47    25    24    1
    48   128   127    1
    49     3     2    1
    50    24    23    1
    51     2     5    1
    52   133   134    1
    53   127   121   am
    54     6     5    1
    55   136   135    2
    56    23    20   am
    57   135   134    1
    58   134   137    1
    59   122   121    2
    60   121   120    1
    61    92    90   ar
    62    92    91   ar
    63   126   124    1
    64   123   120    1
    65   123   124    1
    66    90    88   ar
    67    20    21    2
    68    20    19    1
    69    55    53   ar
    70    55    54   ar
    71    53    51   ar
    72    91    89   ar
    73   120   119    1
    74   140   138    1
    75   124   125    1
    76   137   138    1
    77    54    52   ar
    78   138   139    1
    79    51    50   ar
    80    45    46    1
    81    52    50   ar
    82    19    18    1
    83    19    22    1
    84    88    87   ar
    85    50    49    1
    86   119   116   am
    87    89    87   ar
    88    49    46    1
    89    87    86    1
    90    46    47    1
    91   161   162    1
    92    17    15    1
    93   164   163    2
    94   116   117    2
    95   116   115    1
    96    82    83    1
    97     9     8    1
    98     9    10    2
    99    14    15    2
   100    14    13    1
   101    48    47    2
   102     8    11    1
   103     8     7    1
   104    80    79   ar
   105    12    13    1
   106    12    11    1
   107    15    16    1
   108    83    86    1
   109    83    84    1
   110   163   162    1
   111   162   165    1
   112   115   118    1
   113   115   114    1
   114    79    78    1
   115    79    81   ar
   116    78    77    1
   117   168   170   ar
   118   168   166   ar
   119    84    85    2
   120   165   166    1
   121   170   171   ar
   122   166   167   ar
   123    99    98    1
   124    77    74    1
   125   100    98    1
   126   171   169   ar
   127   167   169   ar
   128    98    97    1
   129   112   111    2
   130   172   173    1
   131    76    75    2
   132   175   174    2
   133   104   103    2
   134    97    94    1
   135    74    75    1
   136    74    73    1
   137   102   103    1
   138   102   101    1
   139   103   105   am
   140   174   173    1
   141   179   178    1
   142   111   113   am
   143   111   110    1
   144   173   176    1
   145    73    66   am
   146   178   177    1
   147    94    93    1
   148    94    95    1
   149    96    95    2
   150   176   177    1
   151   109   110    1
   152   109   106    1
   153   105   106    1
   154    66    67    2
   155    66    65    1
   156   106   107    1
   157    62    60    1
   158    59    58    2
   159    65    64    1
   160    65    68    1
   161   107   108    2
   162    58    64   am
   163    58    57    1
   164    60    57    1
   165    60    61    1
   166    68    69    1
   167    63    61    1
   168    57    56    1
   169    69    70    1
   170    71    70   ar
   171    70    72   ar
