@<TRIPOS>MOLECULE
tmp/5x9qB00.pdb
 112 110 0 0 0
SMALL
GASTEIGER

@<TRIPOS>ATOM
      1  N         59.6700    6.2250   95.7990 N.3    27  THR27      -0.1203
      2  CA        58.3080    6.4300   95.3520 C.3    27  THR27       0.1994
      3  C         58.4120    6.5180   93.8290 C.2    27  THR27       0.2618
      4  O         59.5150    6.7190   93.2920 O.2    27  THR27      -0.2717
      5  CB        57.6890    7.7150   95.9910 C.3    27  THR27       0.1784
      6  OG1       56.2510    7.6800   95.9340 O.3    27  THR27      -0.2211
      7  CG2       58.2020    8.9500   95.2830 C.3    27  THR27       0.0376
      8  N         57.2850    6.3840   93.1330 N.am   28  ASN28      -0.1960
      9  CA        57.2750    6.4330   91.6720 C.3    28  ASN28       0.1819
     10  C         56.0250    7.1270   91.1540 C.2    28  ASN28       0.2622
     11  O         55.0400    7.2590   91.8790 O.2    28  ASN28      -0.2715
     12  CB        57.3580    5.0370   91.0640 C.3    28  ASN28       0.1195
     13  CG        56.1490    4.1860   91.4030 C.2    28  ASN28       0.2630
     14  OD1       56.0360    3.6600   92.5070 O.2    28  ASN28      -0.2716
     15  ND2       55.1970    4.1220   90.4830 N.am   28  ASN28      -0.0877
     16  N         56.0730    7.5930   89.9080 N.am   29  GLY29      -0.1940
     17  CA        54.9250    8.2600   89.3170 C.3    29  GLY29       0.2014
     18  C         55.2330    8.8140   87.9430 C.2    29  GLY29       0.2639
     19  O         56.3740    8.7590   87.5010 O.2    29  GLY29      -0.2714
     20  N         54.2240    9.3860   87.2940 N.am   30  VAL30      -0.1963
     21  CA        54.3980    9.9910   85.9790 C.3    30  VAL30       0.1727
     22  C         54.9530   11.4080   86.1310 C.2    30  VAL30       0.2616
     23  O         55.8940   11.7940   85.4380 O.2    30  VAL30      -0.2715
     24  CB        53.0730   10.0460   85.1990 C.3    30  VAL30       0.0290
     25  CG1       53.2490   10.8280   83.9070 C.3    30  VAL30       0.0023
     26  CG2       52.5670    8.6400   84.9150 C.3    30  VAL30       0.0023
     27  N         54.3640   12.1750   87.0460 N.am   31  PHE31      -0.1960
     28  CA        54.7920   13.5430   87.3090 C.3    31  PHE31       0.1771
     29  C         54.8430   14.3690   86.0320 C.2    31  PHE31       0.2619
     30  O         55.8650   14.9770   85.7130 O.2    31  PHE31      -0.2715
     31  CB        56.1600   13.5530   87.9950 C.3    31  PHE31       0.0574
     32  CG        56.1710   12.8720   89.3340 C.ar   31  PHE31      -0.0200
     33  CD1       55.6720   13.5120   90.4560 C.ar   31  PHE31      -0.0042
     34  CD2       56.6810   11.5920   89.4700 C.ar   31  PHE31      -0.0042
     35  CE1       55.6810   12.8900   91.6890 C.ar   31  PHE31      -0.0003
     36  CE2       56.6930   10.9620   90.7000 C.ar   31  PHE31      -0.0003
     37  CZ        56.1930   11.6110   91.8120 C.ar   31  PHE31      -0.0000
     38  N         53.7290   14.3890   85.3070 N.am   32  ASP32      -0.1971
     39  CA        53.6340   15.1410   84.0620 C.3    32  ASP32       0.1709
     40  C         53.8760   16.6280   84.2940 C.2    32  ASP32       0.2293
     41  O         54.8750   17.1820   83.8360 O.2    32  ASP32      -0.2864
     42  CB        52.2670   14.9260   83.4090 C.3    32  ASP32       0.1436
     43  CG        52.3130   15.0690   81.9000 C.2    32  ASP32       0.3671
     44  OD1       53.3560   15.5130   81.3750 O.co2  32  ASP32      -0.2456
     45  OD2       51.3060   14.7380   81.2390 O.co2  32  ASP32      -0.2456
     46  N         52.5580   17.8630   94.5600 N.3    38  HIS38      -0.1241
     47  CA        53.6920   16.9910   94.2450 C.3    38  HIS38       0.1621
     48  C         54.8840   17.3010   95.1190 C.2    38  HIS38       0.2264
     49  O         55.4560   16.3960   95.7350 O.2    38  HIS38      -0.2867
     50  CB        54.1290   17.1200   92.7880 C.3    38  HIS38       0.0745
     51  CG        53.2100   16.4510   91.8110 C.ar   38  HIS38       0.0817
     52  ND1       52.8440   17.0310   90.6130 N.ar   38  HIS38      -0.2268
     53  CD2       52.5770   15.2570   91.8530 C.ar   38  HIS38       0.1154
     54  CE1       52.0520   16.2120   89.9500 C.ar   38  HIS38       0.1986
     55  NE2       51.8740   15.1280   90.6800 N.ar   38  HIS38      -0.2212
     56  N         54.3840   16.5800   98.7310 N.3    41  TYR41      -0.1241
     57  CA        54.4210   15.1360   98.9210 C.3    41  TYR41       0.1605
     58  C         55.8730   14.6110   98.8930 C.2    41  TYR41       0.2264
     59  O         56.2690   13.8430   99.7520 O.2    41  TYR41      -0.2867
     60  CB        53.6010   14.4390   97.8350 C.3    41  TYR41       0.0534
     61  CG        53.8580   12.9610   97.7580 C.ar   41  TYR41      -0.0201
     62  CD1       53.3740   12.1200   98.7500 C.ar   41  TYR41      -0.0009
     63  CD2       54.6090   12.4010   96.7270 C.ar   41  TYR41      -0.0009
     64  CE1       53.5960   10.7600   98.7050 C.ar   41  TYR41       0.0417
     65  CE2       54.8530   11.0310   96.6770 C.ar   41  TYR41       0.0417
     66  CZ        54.3380   10.2180   97.6720 C.ar   41  TYR41       0.1957
     67  OH        54.5590    8.8580   97.6660 O.3    41  TYR41      -0.2866
     68  N         45.8820    5.8640   84.5500 N.3    67  LYS67      -0.1245
     69  CA        46.0570    7.0450   85.3900 C.3    67  LYS67       0.1561
     70  C         46.0670    8.3280   84.5580 C.2    67  LYS67       0.2260
     71  O         46.7310    8.3990   83.5230 O.2    67  LYS67      -0.2867
     72  CB        47.3470    6.9370   86.2070 C.3    67  LYS67       0.0271
     73  CG        47.4980    8.0080   87.2730 C.3    67  LYS67       0.0035
     74  CD        47.4390    7.4090   88.6700 C.3    67  LYS67       0.0206
     75  CE        47.6470    8.4740   89.7360 C.3    67  LYS67       0.1093
     76  NZ        47.4030    7.9410   91.1050 N.3    67  LYS67      -0.1314
     77  N         53.6790    5.7900   99.1280 N.3   114  LYS114     -0.1231
     78  CA        52.7450    6.2350   98.1290 C.3   114  LYS114      0.1693
     79  C         51.9260    7.3840   98.6830 C.2   114  LYS114      0.2592
     80  O         51.7230    7.4810   99.8840 O.2   114  LYS114     -0.2718
     81  CB        51.8560    5.0800   97.6750 C.3   114  LYS114      0.0285
     82  CG        52.3270    4.5550   96.3410 C.3   114  LYS114      0.0035
     83  CD        51.2520    3.8560   95.5520 C.3   114  LYS114      0.0206
     84  CE        51.2880    4.3660   94.1230 C.3   114  LYS114      0.1093
     85  NZ        52.5030    3.9150   93.3960 N.3   114  LYS114     -0.1314
     86  N         51.5050    8.2830   97.8090 N.am  115  GLY115     -0.1957
     87  CA        50.6910    9.4080   98.2250 C.3   115  GLY115      0.1869
     88  C         49.2300    9.1500   97.9640 C.2   115  GLY115      0.2309
     89  O         48.8700    8.6900   96.8840 O.2   115  GLY115     -0.2863
     90  N         45.7850    4.6910   99.7120 N.3   118  TYR118     -0.1241
     91  CA        45.9100    3.5260   98.8340 C.3   118  TYR118      0.1605
     92  C         46.1510    2.2900   99.7010 C.2   118  TYR118      0.2264
     93  O         47.0200    2.3200  100.5730 O.2   118  TYR118     -0.2867
     94  CB        47.0610    3.7150   97.8450 C.3   118  TYR118      0.0534
     95  CG        46.8000    4.7720   96.7970 C.ar  118  TYR118     -0.0201
     96  CD1       45.5230    4.9790   96.2930 C.ar  118  TYR118     -0.0009
     97  CD2       47.8320    5.5640   96.3090 C.ar  118  TYR118     -0.0009
     98  CE1       45.2800    5.9440   95.3340 C.ar  118  TYR118      0.0417
     99  CE2       47.5990    6.5320   95.3520 C.ar  118  TYR118      0.0417
    100  CZ        46.3220    6.7180   94.8670 C.ar  118  TYR118      0.1957
    101  OH        46.0850    7.6800   93.9130 O.3   118  TYR118     -0.2866
    102  N         48.4700   12.8080  100.0790 N.3   141  PHE141     -0.1241
    103  CA        48.8770   13.5550   98.9000 C.3   141  PHE141      0.1605
    104  C         47.7340   14.4310   98.3950 C.2   141  PHE141      0.2264
    105  O         46.6440   13.9290   98.1250 O.2   141  PHE141     -0.2867
    106  CB        49.3280   12.5930   97.8110 C.3   141  PHE141      0.0534
    107  CG        49.4750   13.2240   96.4690 C.ar  141  PHE141     -0.0203
    108  CD1       50.4390   14.1800   96.2520 C.ar  141  PHE141     -0.0042
    109  CD2       48.6660   12.8450   95.4190 C.ar  141  PHE141     -0.0042
    110  CE1       50.5850   14.7650   95.0210 C.ar  141  PHE141     -0.0003
    111  CE2       48.8170   13.4190   94.1780 C.ar  141  PHE141     -0.0003
    112  CZ        49.7820   14.3840   93.9770 C.ar  141  PHE141     -0.0000
@<TRIPOS>BOND
     1    45    43   ar
     2    44    43   ar
     3    43    42    1
     4    42    39    1
     5    71    70    2
     6    41    40    2
     7    25    24    1
     8    39    40    1
     9    39    38    1
    10    68    69    1
    11    70    69    1
    12    26    24    1
    13    24    21    1
    14    38    29   am
    15    69    72    1
    16    23    22    2
    17    30    29    2
    18    21    22    1
    19    21    20    1
    20    29    28    1
    21    22    27   am
    22    72    73    1
    23    27    28    1
    24    73    74    1
    25    20    18   am
    26    28    31    1
    27    19    18    2
    28    18    17    1
    29    31    32    1
    30    74    75    1
    31    17    16    1
    32    32    34   ar
    33    32    33   ar
    34    34    36   ar
    35    75    76    1
    36    16    10   am
    37    54    52   ar
    38    54    55   ar
    39    33    35   ar
    40    15    13   am
    41    52    51   ar
    42    55    53   ar
    43    36    37   ar
    44    12    13    1
    45    12     9    1
    46    10     9    1
    47    10    11    2
    48    13    14    2
    49     9     8    1
    50    35    37   ar
    51    51    53   ar
    52    51    50    1
    53    50    47    1
    54     8     3   am
    55     4     3    2
    56    85    84    1
    57     3     2    1
    58   101   100    1
    59   112   111   ar
    60   112   110   ar
    61    84    83    1
    62   111   109   ar
    63    47    46    1
    64    47    48    1
    65   100    98   ar
    66   100    99   ar
    67   110   108   ar
    68    48    49    2
    69     7     5    1
    70    98    96   ar
    71    99    97   ar
    72     2     1    1
    73     2     5    1
    74   109   107   ar
    75    83    82    1
    76     6     5    1
    77   108   107   ar
    78    96    95   ar
    79    97    95   ar
    80    82    81    1
    81   107   106    1
    82    65    63   ar
    83    65    66   ar
    84    63    61   ar
    85    95    94    1
    86    89    88    2
    87    67    66    1
    88    66    64   ar
    89    81    78    1
    90    61    60    1
    91    61    62   ar
    92    86    87    1
    93    86    79   am
    94   106   103    1
    95    60    57    1
    96    94    91    1
    97    88    87    1
    98   105   104    2
    99    78    79    1
   100    78    77    1
   101   104   103    1
   102    79    80    2
   103    64    62   ar
   104    56    57    1
   105    91    92    1
   106    91    90    1
   107    58    57    1
   108    58    59    2
   109   103   102    1
   110    92    93    2
