@<TRIPOS>MOLECULE
tmp/5x9rB01.pdb
 86 81 0 0 0
SMALL
GASTEIGER

@<TRIPOS>ATOM
      1  N          2.6060   59.0800   -4.3980 N.3   108  ALA108     -0.1231
      2  CA         1.6830   60.1440   -3.9810 C.3   108  ALA108      0.1694
      3  C          0.3370   59.6000   -3.5270 C.2   108  ALA108      0.2591
      4  O         -0.2360   60.0810   -2.5410 O.2   108  ALA108     -0.2718
      5  CB         1.4770   61.1340   -5.1230 C.3   108  ALA108      0.0304
      6  N         -0.1750   58.6190   -4.2640 N.am  109  ILE109     -0.1980
      7  CA        -1.4940   58.0630   -3.9840 C.3   109  ILE109      0.1595
      8  C         -1.4580   57.1150   -2.7970 C.2   109  ILE109      0.2287
      9  O         -2.3590   57.1420   -1.9580 O.2   109  ILE109     -0.2864
     10  CB        -2.0950   57.3550   -5.2150 C.3   109  ILE109      0.0276
     11  CG1       -2.4290   58.4020   -6.2860 C.3   109  ILE109      0.0022
     12  CG2       -3.3470   56.5650   -4.8310 C.3   109  ILE109      0.0022
     13  CD1       -2.9200   57.8380   -7.6030 C.3   109  ILE109      0.0001
     14  N         -1.6740   58.8020    0.9190 N.3   112  VAL112     -0.1245
     15  CA        -2.8930   59.4100    1.4720 C.3   112  VAL112      0.1561
     16  C         -3.8780   58.3990    2.0370 C.2   112  VAL112      0.2260
     17  O         -3.8390   57.2200    1.6820 O.2   112  VAL112     -0.2867
     18  CB        -3.6200   60.2730    0.4250 C.3   112  VAL112      0.0252
     19  CG1       -2.6630   61.3160   -0.1190 C.3   112  VAL112      0.0019
     20  CG2       -4.2150   59.4410   -0.7180 C.3   112  VAL112      0.0019
     21  N        -10.2150   59.8710    2.2760 N.3   116  LEU116     -0.1245
     22  CA       -10.0490   61.1410    1.5680 C.3   116  LEU116      0.1561
     23  C        -10.0780   61.0340    0.0220 C.2   116  LEU116      0.2260
     24  O        -10.3210   62.0430   -0.6560 O.2   116  LEU116     -0.2867
     25  CB        -8.7640   61.8320    2.0530 C.3   116  LEU116      0.0270
     26  CG        -8.8490   62.5310    3.4240 C.3   116  LEU116      0.0019
     27  CD1       -9.1320   61.5870    4.5980 C.3   116  LEU116      0.0001
     28  CD2       -7.5730   63.3400    3.6450 C.3   116  LEU116      0.0001
     29  N         -1.1930   71.9750   -1.1500 N.3   225  GLU225     -0.1231
     30  CA        -2.3800   71.1680   -0.8610 C.3   225  GLU225      0.1699
     31  C         -3.5770   71.7190   -1.5820 C.2   225  GLU225      0.2592
     32  O         -3.8030   72.9200   -1.5590 O.2   225  GLU225     -0.2718
     33  CB        -2.6780   71.1480    0.6390 C.3   225  GLU225      0.0402
     34  CG        -1.6740   70.3750    1.4850 C.3   225  GLU225      0.1161
     35  CD        -1.7390   68.8630    1.3060 C.2   225  GLU225      0.3649
     36  OE1       -2.4630   68.3710    0.4090 O.co2 225  GLU225     -0.2457
     37  OE2       -1.0460   68.1600    2.0710 O.co2 225  GLU225     -0.2457
     38  N         -4.3500   70.8320   -2.1990 N.am  226  LEU226     -0.1966
     39  CA        -5.4900   71.2380   -2.9980 C.3   226  LEU226      0.1728
     40  C         -6.7360   71.4300   -2.1490 C.2   226  LEU226      0.2616
     41  O         -7.4080   72.4500   -2.2820 O.2   226  LEU226     -0.2715
     42  CB        -5.7590   70.2140   -4.0930 C.3   226  LEU226      0.0311
     43  CG        -6.7840   70.6150   -5.1560 C.3   226  LEU226      0.0022
     44  CD1       -6.3570   71.8500   -5.9450 C.3   226  LEU226      0.0001
     45  CD2       -6.9960   69.4250   -6.0750 C.3   226  LEU226      0.0001
     46  N         -7.0370   70.4590   -1.2850 N.am  227  VAL227     -0.1977
     47  CA        -8.2770   70.4720   -0.4820 C.3   227  VAL227      0.1596
     48  C         -8.0870   71.1790    0.8610 C.2   227  VAL227      0.2287
     49  O         -7.1480   70.8840    1.5960 O.2   227  VAL227     -0.2864
     50  CB        -8.8120   69.0430   -0.2320 C.3   227  VAL227      0.0276
     51  CG1      -10.1000   69.0840    0.5920 C.3   227  VAL227      0.0022
     52  CG2       -9.0330   68.3210   -1.5590 C.3   227  VAL227      0.0022
     53  N          4.3330   66.9640   -5.6090 N.3   383  ASN383     -0.1225
     54  CA         3.3410   66.0760   -5.0050 C.3   383  ASN383      0.1785
     55  C          1.9140   66.1240   -5.5890 C.2   383  ASN383      0.2597
     56  O          1.0560   65.3730   -5.1430 O.2   383  ASN383     -0.2718
     57  CB         3.2700   66.3410   -3.4930 C.3   383  ASN383      0.1169
     58  CG         2.7620   67.7410   -3.1630 C.2   383  ASN383      0.2627
     59  OD1        3.3040   68.7400   -3.6520 O.2   383  ASN383     -0.2716
     60  ND2        1.7090   67.8200   -2.3530 N.am  383  ASN383     -0.0877
     61  N          1.6490   67.0100   -6.5450 N.am  384  LEU384     -0.1980
     62  CA         0.3440   67.0680   -7.1980 C.3   384  LEU384      0.1596
     63  C          0.3490   66.3770   -8.5630 C.2   384  LEU384      0.2287
     64  O         -0.6000   66.5200   -9.3410 O.2   384  LEU384     -0.2864
     65  CB        -0.0770   68.5230   -7.3500 C.3   384  LEU384      0.0297
     66  CG        -0.1280   69.3530   -6.0660 C.3   384  LEU384      0.0022
     67  CD1       -0.3880   70.8080   -6.4160 C.3   384  LEU384      0.0001
     68  CD2       -1.1970   68.8310   -5.1180 C.3   384  LEU384      0.0001
     69  N         -0.3110   63.4410   -9.4060 N.3   386  SER386     -0.1202
     70  CA        -1.4930   62.6200   -9.5810 C.3   386  SER386      0.2020
     71  C         -2.6400   63.4500  -10.1690 C.2   386  SER386      0.2618
     72  O         -3.2810   63.0390  -11.1400 O.2   386  SER386     -0.2717
     73  CB        -1.8890   62.0100   -8.2360 C.3   386  SER386      0.2103
     74  OG        -1.7710   62.9650   -7.1940 O.3   386  SER386     -0.2182
     75  N         -2.8630   64.6310   -9.5990 N.am  387  TYR387     -0.1975
     76  CA        -3.9000   65.5410  -10.0950 C.3   387  TYR387      0.1639
     77  C         -3.5910   66.0400  -11.5050 C.2   387  TYR387      0.2290
     78  O         -4.4420   65.9880  -12.3920 O.2   387  TYR387     -0.2864
     79  CB        -4.0650   66.7390   -9.1590 C.3   387  TYR387      0.0560
     80  CG        -4.8430   66.4620   -7.8850 C.ar  387  TYR387     -0.0198
     81  CD1       -6.2020   66.1560   -7.9320 C.ar  387  TYR387     -0.0009
     82  CD2       -4.2350   66.5520   -6.6280 C.ar  387  TYR387     -0.0009
     83  CE1       -6.9260   65.9230   -6.7730 C.ar  387  TYR387      0.0417
     84  CE2       -4.9550   66.3270   -5.4610 C.ar  387  TYR387      0.0417
     85  CZ        -6.2980   66.0090   -5.5410 C.ar  387  TYR387      0.1957
     86  OH        -7.0310   65.7890   -4.3980 O.3   387  TYR387     -0.2866
@<TRIPOS>BOND
     1    78    77    2
     2    77    76    1
     3    72    71    2
     4    71    75   am
     5    71    70    1
     6    76    75    1
     7    76    79    1
     8    70    69    1
     9    70    73    1
    10    64    63    2
    11    79    80    1
    12    63    62    1
    13    73    74    1
    14    81    80   ar
    15    81    83   ar
    16    80    82   ar
    17    13    11    1
    18    65    62    1
    19    65    66    1
    20    62    61    1
    21    83    85   ar
    22    82    84   ar
    23    61    55   am
    24    67    66    1
    25    11    10    1
    26    45    43    1
    27    66    68    1
    28    44    43    1
    29    53    54    1
    30    55    56    2
    31    55    54    1
    32    85    84   ar
    33    85    86    1
    34    10    12    1
    35    10     7    1
    36    43    42    1
    37     5     2    1
    38    54    57    1
    39     1     2    1
    40     6     7    1
    41     6     3   am
    42    42    39    1
    43     7     8    1
    44     2     3    1
    45    59    58    2
    46     3     4    2
    47    57    58    1
    48    58    60   am
    49    39    38    1
    50    39    40    1
    51     8     9    2
    52    41    40    2
    53    38    31   am
    54    40    46   am
    55    31    32    2
    56    31    30    1
    57    52    50    1
    58    46    47    1
    59    29    30    1
    60    30    33    1
    61    20    18    1
    62    24    23    2
    63    47    50    1
    64    47    48    1
    65    50    51    1
    66    19    18    1
    67    23    22    1
    68    36    35   ar
    69    18    15    1
    70    33    34    1
    71    48    49    2
    72    14    15    1
    73    35    34    1
    74    35    37   ar
    75    15    16    1
    76    22    25    1
    77    22    21    1
    78    17    16    2
    79    25    26    1
    80    26    28    1
    81    26    27    1
