@<TRIPOS>MOLECULE
tmp/5x9uB00.pdb
 184 176 0 0 0
SMALL
GASTEIGER

@<TRIPOS>ATOM
      1  N        -47.5780   85.5470   75.5190 N.3    27  LEU27      -0.1231
      2  CA       -48.4760   84.4050   75.4870 C.3    27  LEU27       0.1693
      3  C        -49.8460   84.8020   76.0230 C.2    27  LEU27       0.2593
      4  O        -49.9530   85.6510   76.9020 O.2    27  LEU27      -0.2718
      5  CB       -47.8940   83.2410   76.2890 C.3    27  LEU27       0.0284
      6  CG       -48.7210   81.9570   76.3350 C.3    27  LEU27       0.0019
      7  CD1      -49.0370   81.4720   74.9350 C.3    27  LEU27       0.0001
      8  CD2      -48.0010   80.8780   77.1140 C.3    27  LEU27       0.0001
      9  N        -50.8900   84.2040   75.4640 N.am   28  GLY28      -0.1943
     10  CA       -52.2420   84.3790   75.9560 C.3    28  GLY28       0.1998
     11  C        -52.9050   85.6670   75.5320 C.2    28  GLY28       0.2480
     12  O        -52.2320   86.6330   75.1820 O.2    28  GLY28      -0.2729
     13  N        -54.2400   85.6950   75.6030 N.am   29  PRO29      -0.2726
     14  CA       -55.1030   86.7950   75.1620 C.3    29  PRO29       0.1402
     15  C        -54.7230   88.1360   75.7750 C.2    29  PRO29       0.2269
     16  O        -54.9450   89.1730   75.1540 O.2    29  PRO29      -0.2865
     17  CB       -56.5010   86.3580   75.6210 C.3    29  PRO29       0.0296
     18  CG       -56.2690   85.2910   76.6200 C.3    29  PRO29       0.0237
     19  CD       -55.0220   84.5990   76.1890 C.3    29  PRO29       0.0939
     20  N        -47.5410   88.6570   68.6000 N.3    48  ASP48      -0.1225
     21  CA       -47.5880   87.2490   68.2440 C.3    48  ASP48       0.1805
     22  C        -46.2050   86.6760   68.4710 C.2    48  ASP48       0.2598
     23  O        -45.1970   87.3390   68.2390 O.2    48  ASP48      -0.2718
     24  CB       -48.0560   87.0340   66.7990 C.3    48  ASP48       0.1424
     25  CG       -47.1810   87.7410   65.7830 C.2    48  ASP48       0.3668
     26  OD1      -46.5920   88.7900   66.1190 O.co2  48  ASP48      -0.2456
     27  OD2      -47.0770   87.2440   64.6430 O.co2  48  ASP48      -0.2456
     28  N        -46.1590   85.4450   68.9490 N.am   49  GLY49      -0.1942
     29  CA       -44.8910   84.8540   69.2980 C.3    49  GLY49       0.2014
     30  C        -44.0160   84.6670   68.0870 C.2    49  GLY49       0.2638
     31  O        -42.8520   85.0300   68.1170 O.2    49  GLY49      -0.2714
     32  N        -44.5920   84.1390   67.0140 N.am   50  VAL50      -0.1977
     33  CA       -43.8270   83.7700   65.8290 C.3    50  VAL50       0.1596
     34  C        -42.9430   84.9040   65.3120 C.2    50  VAL50       0.2287
     35  O        -41.7730   84.6850   64.9580 O.2    50  VAL50      -0.2864
     36  CB       -44.7700   83.3020   64.6990 C.3    50  VAL50       0.0276
     37  CG1      -45.3510   81.9440   65.0380 C.3    50  VAL50       0.0022
     38  CG2      -45.8910   84.3130   64.4730 C.3    50  VAL50       0.0022
     39  N        -51.0320   76.9790   64.1770 N.3    79  ASP79      -0.1225
     40  CA       -51.4540   77.5110   65.4700 C.3    79  ASP79       0.1805
     41  C        -50.7410   76.7930   66.6080 C.2    79  ASP79       0.2598
     42  O        -50.2780   75.6690   66.4470 O.2    79  ASP79      -0.2718
     43  CB       -52.9670   77.3870   65.6430 C.3    79  ASP79       0.1424
     44  CG       -53.4780   78.1530   66.8470 C.2    79  ASP79       0.3668
     45  OD1      -53.1600   77.7570   67.9860 O.co2  79  ASP79      -0.2456
     46  OD2      -54.1950   79.1550   66.6550 O.co2  79  ASP79      -0.2456
     47  N        -50.6760   77.4350   67.7680 N.am   80  GLY80      -0.1942
     48  CA       -50.0730   76.8140   68.9300 C.3    80  GLY80       0.2014
     49  C        -48.5770   76.5800   68.8390 C.2    80  GLY80       0.2640
     50  O        -48.0960   75.5000   69.1640 O.2    80  GLY80      -0.2714
     51  N        -47.8320   77.5730   68.3750 N.am   81  THR81      -0.1936
     52  CA       -46.3790   77.4820   68.4320 C.3    81  THR81       0.2028
     53  C        -45.8190   78.1530   69.6780 C.2    81  THR81       0.2643
     54  O        -44.9490   77.5930   70.3490 O.2    81  THR81      -0.2714
     55  CB       -45.7160   78.0780   67.1850 C.3    81  THR81       0.1808
     56  OG1      -46.0610   79.4630   67.0690 O.3    81  THR81      -0.2208
     57  CG2      -46.2020   77.3530   65.9620 C.3    81  THR81       0.0379
     58  N        -46.3240   79.3440   69.9840 N.am   82  THR82      -0.1936
     59  CA       -45.9160   80.0750   71.1760 C.3    82  THR82       0.2028
     60  C        -45.9720   79.1720   72.4050 C.2    82  THR82       0.2642
     61  O        -45.0460   79.1470   73.2270 O.2    82  THR82      -0.2714
     62  CB       -46.8180   81.2850   71.4220 C.3    82  THR82       0.1808
     63  OG1      -48.1540   80.8380   71.6740 O.3    82  THR82      -0.2208
     64  CG2      -46.8130   82.1980   70.2240 C.3    82  THR82       0.0379
     65  N        -47.0630   78.4160   72.5020 N.am   83  THR83      -0.1950
     66  CA       -47.2700   77.4750   73.5960 C.3    83  THR83       0.1897
     67  C        -46.0810   76.5410   73.6940 C.2    83  THR83       0.2313
     68  O        -45.3400   76.5800   74.6670 O.2    83  THR83      -0.2863
     69  CB       -48.5450   76.6380   73.4130 C.3    83  THR83       0.1794
     70  OG1      -48.4750   75.9320   72.1720 O.3    83  THR83      -0.2208
     71  CG2      -49.7850   77.5240   73.4250 C.3    83  THR83       0.0378
     72  N        -61.6380   80.9900   67.8740 N.3   144  ILE144     -0.1245
     73  CA       -60.5110   81.3660   68.7250 C.3   144  ILE144      0.1561
     74  C        -59.2940   81.7810   67.9000 C.2   144  ILE144      0.2260
     75  O        -58.5520   82.6810   68.2900 O.2   144  ILE144     -0.2867
     76  CB       -60.1250   80.2240   69.6960 C.3   144  ILE144      0.0252
     77  CG1      -59.6750   78.9730   68.9340 C.3   144  ILE144      0.0019
     78  CG2      -61.3000   79.8770   70.5970 C.3   144  ILE144      0.0019
     79  CD1      -58.1840   78.7310   68.9900 C.3   144  ILE144      0.0001
     80  N        -59.0620   74.6750   75.7180 N.3   381  GLY381     -0.1210
     81  CA       -58.0220   75.6870   75.7270 C.3   381  GLY381      0.1956
     82  C        -57.8870   76.3520   77.0830 C.2   381  GLY381      0.2612
     83  O        -58.2550   75.7790   78.1060 O.2   381  GLY381     -0.2717
     84  N        -57.3570   77.5710   77.0920 N.am  382  GLY382     -0.1942
     85  CA       -57.1790   78.3090   78.3290 C.3   382  GLY382      0.2014
     86  C        -56.0230   77.7790   79.1470 C.2   382  GLY382      0.2639
     87  O        -55.8420   78.1540   80.3010 O.2   382  GLY382     -0.2714
     88  N        -55.2500   76.8840   78.5440 N.am  383  GLY383     -0.1954
     89  CA       -54.1590   76.2240   79.2320 C.3   383  GLY383      0.1869
     90  C        -54.7020   75.3250   80.3200 C.2   383  GLY383      0.2309
     91  O        -53.9680   74.8850   81.2010 O.2   383  GLY383     -0.2863
     92  N        -53.7480   71.3600   80.3880 N.3   386  PHE386     -0.1241
     93  CA       -52.3770   71.0980   80.8000 C.3   386  PHE386      0.1605
     94  C        -52.2790   70.7890   82.2860 C.2   386  PHE386      0.2264
     95  O        -51.3450   70.1300   82.7260 O.2   386  PHE386     -0.2867
     96  CB       -51.4890   72.2810   80.4480 C.3   386  PHE386      0.0534
     97  CG       -51.2990   72.4660   78.9790 C.ar  386  PHE386     -0.0203
     98  CD1      -52.2590   73.1090   78.2160 C.ar  386  PHE386     -0.0042
     99  CD2      -50.1610   71.9880   78.3550 C.ar  386  PHE386     -0.0042
    100  CE1      -52.0810   73.2750   76.8610 C.ar  386  PHE386     -0.0003
    101  CE2      -49.9790   72.1530   77.0060 C.ar  386  PHE386     -0.0003
    102  CZ       -50.9370   72.7960   76.2580 C.ar  386  PHE386     -0.0000
    103  N        -50.2890   82.8120   81.6080 N.3   422  MET422     -0.1245
    104  CA       -51.4770   83.4360   81.0530 C.3   422  MET422      0.1570
    105  C        -52.0410   84.3720   82.1040 C.2   422  MET422      0.2261
    106  O        -52.2490   85.5640   81.8620 O.2   422  MET422     -0.2867
    107  CB       -52.5220   82.3840   80.6830 C.3   422  MET422      0.0387
    108  CG       -52.0510   81.2980   79.7310 C.3   422  MET422      0.0595
    109  SD       -51.8620   81.7990   78.0190 S.3   422  MET422     -0.1393
    110  CE       -51.7920   80.2050   77.2020 C.3   422  MET422      0.0692
    111  N        -59.9070   79.7720   83.4040 N.3   451  LEU451     -0.1231
    112  CA       -60.1330   81.1530   83.7790 C.3   451  LEU451      0.1693
    113  C        -60.3430   82.0710   82.5870 C.2   451  LEU451      0.2592
    114  O        -59.6240   81.9940   81.5940 O.2   451  LEU451     -0.2718
    115  CB       -58.9570   81.6540   84.6140 C.3   451  LEU451      0.0284
    116  CG       -58.9510   83.1370   84.9770 C.3   451  LEU451      0.0019
    117  CD1      -60.1710   83.4900   85.8120 C.3   451  LEU451      0.0001
    118  CD2      -57.6740   83.4810   85.7160 C.3   451  LEU451      0.0001
    119  N        -61.3450   82.9350   82.6960 N.am  452  ASP452     -0.1960
    120  CA       -61.5090   84.0330   81.7620 C.3   452  ASP452      0.1840
    121  C        -60.5210   85.1140   82.1570 C.2   452  ASP452      0.2622
    122  O        -60.6860   85.7660   83.1840 O.2   452  ASP452     -0.2715
    123  CB       -62.9380   84.5690   81.7820 C.3   452  ASP452      0.1450
    124  CG       -63.1760   85.6410   80.7360 C.2   452  ASP452      0.3671
    125  OD1      -62.1990   86.1340   80.1270 O.co2 452  ASP452     -0.2456
    126  OD2      -64.3510   85.9980   80.5250 O.co2 452  ASP452     -0.2456
    127  N        -59.5080   85.3220   81.3280 N.am  453  PHE453     -0.1960
    128  CA       -58.4000   86.1860   81.6990 C.3   453  PHE453      0.1771
    129  C        -58.7850   87.6590   81.6250 C.2   453  PHE453      0.2619
    130  O        -57.9270   88.5390   81.6310 O.2   453  PHE453     -0.2715
    131  CB       -57.1970   85.8920   80.8070 C.3   453  PHE453      0.0574
    132  CG       -56.7630   84.4570   80.8450 C.ar  453  PHE453     -0.0200
    133  CD1      -56.9680   83.6890   81.9760 C.ar  453  PHE453     -0.0042
    134  CD2      -56.1690   83.8680   79.7480 C.ar  453  PHE453     -0.0042
    135  CE1      -56.5770   82.3640   82.0110 C.ar  453  PHE453     -0.0003
    136  CE2      -55.7790   82.5450   79.7760 C.ar  453  PHE453     -0.0003
    137  CZ       -55.9820   81.7920   80.9090 C.ar  453  PHE453     -0.0000
    138  N        -60.0870   87.9190   81.5770 N.am  454  GLU454     -0.1977
    139  CA       -60.6000   89.2790   81.5520 C.3   454  GLU454      0.1602
    140  C        -61.3650   89.5840   82.8270 C.2   454  GLU454      0.2287
    141  O        -61.0850   90.5600   83.5190 O.2   454  GLU454     -0.2864
    142  CB       -61.5200   89.4930   80.3520 C.3   454  GLU454      0.0415
    143  CG       -60.9070   89.1840   79.0060 C.3   454  GLU454      0.1163
    144  CD       -61.8630   89.4810   77.8680 C.2   454  GLU454      0.3649
    145  OE1      -62.8350   90.2320   78.0950 O.co2 454  GLU454     -0.2457
    146  OE2      -61.6480   88.9630   76.7520 O.co2 454  GLU454     -0.2457
    147  N        -64.6950   79.6020   84.2320 N.3   459  ILE459     -0.1245
    148  CA       -65.7610   79.0140   83.4220 C.3   459  ILE459      0.1561
    149  C        -65.3410   77.7200   82.7450 C.2   459  ILE459      0.2260
    150  O        -64.1640   77.3620   82.7440 O.2   459  ILE459     -0.2867
    151  CB       -66.2420   79.9830   82.3330 C.3   459  ILE459      0.0252
    152  CG1      -65.0520   80.5020   81.5230 C.3   459  ILE459      0.0019
    153  CG2      -67.0150   81.1320   82.9470 C.3   459  ILE459      0.0019
    154  CD1      -65.4370   81.4390   80.3930 C.3   459  ILE459      0.0001
    155  N        -64.4040   75.9360   79.5170 N.3   461  MET461     -0.1245
    156  CA       -63.8420   76.4520   78.2700 C.3   461  MET461      0.1570
    157  C        -64.5740   75.9640   77.0150 C.2   461  MET461      0.2261
    158  O        -64.7090   76.7110   76.0410 O.2   461  MET461     -0.2867
    159  CB       -62.3560   76.0930   78.1720 C.3   461  MET461      0.0387
    160  CG       -61.6000   76.2930   79.4690 C.3   461  MET461      0.0595
    161  SD       -61.8770   77.9250   80.1790 S.3   461  MET461     -0.1393
    162  CE       -60.7450   78.9090   79.2120 C.3   461  MET461      0.0692
    163  N        -64.0270   78.3800   73.8140 N.3   466  VAL466     -0.1231
    164  CA       -62.5790   78.5120   73.7130 C.3   466  VAL466      0.1692
    165  C        -61.9040   77.1470   73.7520 C.2   466  VAL466      0.2592
    166  O        -61.7790   76.5490   74.8190 O.2   466  VAL466     -0.2718
    167  CB       -62.0030   79.3890   74.8310 C.3   466  VAL466      0.0266
    168  CG1      -60.4920   79.4750   74.6950 C.3   466  VAL466      0.0020
    169  CG2      -62.6240   80.7740   74.7880 C.3   466  VAL466      0.0020
    170  N        -61.4750   76.6500   72.5940 N.am  467  VAL467     -0.1966
    171  CA       -60.8370   75.3370   72.5260 C.3   467  VAL467      0.1727
    172  C        -59.6550   75.2890   71.5680 C.2   467  VAL467      0.2616
    173  O        -59.4380   76.2000   70.7750 O.2   467  VAL467     -0.2715
    174  CB       -61.8280   74.2400   72.0920 C.3   467  VAL467      0.0290
    175  CG1      -62.8050   73.9170   73.2150 C.3   467  VAL467      0.0023
    176  CG2      -62.5580   74.6570   70.8280 C.3   467  VAL467      0.0023
    177  N        -58.9030   74.1980   71.6590 N.am  468  ASP468     -0.1971
    178  CA       -57.7530   73.9460   70.8020 C.3   468  ASP468      0.1709
    179  C        -57.9950   72.6610   70.0300 C.2   468  ASP468      0.2293
    180  O        -58.7460   71.7950   70.4770 O.2   468  ASP468     -0.2864
    181  CB       -56.4580   73.8280   71.6140 C.3   468  ASP468      0.1436
    182  CG       -55.9400   75.1680   72.0970 C.2   468  ASP468      0.3671
    183  OD1      -56.2780   76.1980   71.4810 O.co2 468  ASP468     -0.2456
    184  OD2      -55.1780   75.1890   73.0890 O.co2 468  ASP468     -0.2456
@<TRIPOS>BOND
     1    39    40    1
     2    38    36    1
     3    27    25   ar
     4    36    37    1
     5    36    33    1
     6    35    34    2
     7    34    33    1
     8    40    43    1
     9    40    41    1
    10    43    44    1
    11    25    26   ar
    12    25    24    1
    13    33    32    1
    14    57    55    1
    15    42    41    2
    16    41    47   am
    17    46    44   ar
    18    24    21    1
    19    44    45   ar
    20    32    30   am
    21    56    55    1
    22    55    52    1
    23    47    48    1
    24    72    73    1
    25    74    75    2
    26    74    73    1
    27    30    31    2
    28    30    29    1
    29    23    22    2
    30    21    22    1
    31    21    20    1
    32    51    52    1
    33    51    49   am
    34    52    53    1
    35    22    28   am
    36    73    76    1
    37    49    48    1
    38    49    50    2
    39    77    79    1
    40    77    76    1
    41    28    29    1
    42    53    58   am
    43    53    54    2
    44    76    78    1
    45    58    59    1
    46   179   180    2
    47   179   178    1
    48    64    62    1
    49   173   172    2
    50   178   181    1
    51   178   177    1
    52   176   174    1
    53    59    62    1
    54    59    60    1
    55    62    63    1
    56   183   182   ar
    57   172   177   am
    58   172   171    1
    59   181   182    1
    60   174   171    1
    61   174   175    1
    62   182   184   ar
    63    70    69    1
    64    60    65   am
    65    60    61    2
    66    65    66    1
    67   171   170    1
    68   170   165   am
    69    69    71    1
    70    69    66    1
    71    66    67    1
    72    67    68    2
    73   164   165    1
    74   164   163    1
    75   164   167    1
    76   165   166    2
    77   168   167    1
    78   169   167    1
    79     7     6    1
    80    16    15    2
    81    14    13    1
    82    14    17    1
    83    14    15    1
    84    12    11    2
    85     9    10    1
    86     9     3   am
    87     2     1    1
    88     2     3    1
    89     2     5    1
    90    11    13   am
    91    11    10    1
    92    13    19    1
    93    17    18    1
    94    80    81    1
    95    81    82    1
    96     3     4    2
    97   158   157    2
    98    19    18    1
    99   102   100   ar
   100   102   101   ar
   101     5     6    1
   102     6     8    1
   103   146   144   ar
   104   100    98   ar
   105   101    99   ar
   106   157   156    1
   107    82    84   am
   108    82    83    2
   109    84    85    1
   110   110   109    1
   111   144   145   ar
   112   144   143    1
   113   109   108    1
   114   159   156    1
   115   159   160    1
   116    98    97   ar
   117   156   155    1
   118    85    86    1
   119    99    97   ar
   120    88    86   am
   121    88    89    1
   122    97    96    1
   123   143   142    1
   124    86    87    2
   125   162   161    1
   126    89    90    1
   127   160   161    1
   128   108   107    1
   129   134   136   ar
   130   134   132   ar
   131   136   137   ar
   132   125   124   ar
   133    90    91    2
   134   142   139    1
   135    92    93    1
   136   154   152    1
   137    96    93    1
   138   126   124   ar
   139   107   104    1
   140   124   123    1
   141    93    94    1
   142   131   132    1
   143   131   128    1
   144   132   133   ar
   145   137   135   ar
   146   104   103    1
   147   104   105    1
   148   127   128    1
   149   127   121   am
   150   152   151    1
   151   139   138    1
   152   139   140    1
   153   138   129   am
   154   114   113    2
   155   129   130    2
   156   129   128    1
   157   120   123    1
   158   120   121    1
   159   120   119    1
   160   106   105    2
   161   133   135   ar
   162   121   122    2
   163    94    95    2
   164   151   153    1
   165   151   148    1
   166   113   119   am
   167   113   112    1
   168   150   149    2
   169   149   148    1
   170   140   141    2
   171   111   112    1
   172   148   147    1
   173   112   115    1
   174   115   116    1
   175   116   118    1
   176   116   117    1
