@<TRIPOS>MOLECULE
tmp/5x9vC00.pdb
 200 189 0 0 0
SMALL
GASTEIGER

@<TRIPOS>ATOM
      1  N         21.0950   45.6400   13.1050 N.3    25  SER25      -0.1202
      2  CA        20.6350   46.1250   14.3800 C.3    25  SER25       0.2020
      3  C         21.7190   46.9680   15.0150 C.2    25  SER25       0.2619
      4  O         21.5000   47.6510   16.0140 O.2    25  SER25      -0.2717
      5  CB        20.2630   44.9560   15.2720 C.3    25  SER25       0.2103
      6  OG        19.3120   44.1410   14.6240 O.3    25  SER25      -0.2182
      7  N         22.8910   46.9340   14.4030 N.am   26  LEU26      -0.1965
      8  CA        24.0630   47.5580   14.9770 C.3    26  LEU26       0.1728
      9  C         24.0210   49.0400   14.7740 C.2    26  LEU26       0.2617
     10  O         23.9030   49.5080   13.6640 O.2    26  LEU26      -0.2715
     11  CB        25.3280   46.9710   14.3610 C.3    26  LEU26       0.0311
     12  CG        26.6580   47.5230   14.8350 C.3    26  LEU26       0.0022
     13  CD1       26.9090   47.0570   16.2270 C.3    26  LEU26       0.0001
     14  CD2       27.7360   47.0310   13.9310 C.3    26  LEU26       0.0001
     15  N         24.1270   49.7820   15.8590 N.am   27  GLY27      -0.1941
     16  CA        24.1910   51.2190   15.7580 C.3    27  GLY27       0.1998
     17  C         22.9020   51.8460   16.2160 C.2    27  GLY27       0.2480
     18  O         21.9800   51.1460   16.6090 O.2    27  GLY27      -0.2729
     19  N         22.8510   53.1760   16.1980 N.am   28  PRO28      -0.2726
     20  CA        21.7230   53.9900   16.6300 C.3    28  PRO28       0.1402
     21  C         20.6940   54.0700   15.5410 C.2    28  PRO28       0.2269
     22  O         19.5900   54.5200   15.7820 O.2    28  PRO28      -0.2865
     23  CB        22.3570   55.3430   16.9000 C.3    28  PRO28       0.0296
     24  CG        23.4300   55.4050   15.9370 C.3    28  PRO28       0.0237
     25  CD        23.9680   54.0150   15.7590 C.3    28  PRO28       0.0939
     26  N         16.1650   44.6970   19.1640 N.3    46  ASN46      -0.1225
     27  CA        17.3200   45.2730   18.4790 C.3    46  ASN46       0.1785
     28  C         18.5660   44.7210   19.1410 C.2    46  ASN46       0.2597
     29  O         19.6890   44.9120   18.6830 O.2    46  ASN46      -0.2718
     30  CB        17.2900   46.8050   18.5540 C.3    46  ASN46       0.1169
     31  CG        18.5230   47.4610   17.9400 C.2    46  ASN46       0.2627
     32  OD1       19.5270   47.7250   18.6130 O.2    46  ASN46      -0.2716
     33  ND2       18.4460   47.7280   16.6500 N.am   46  ASN46      -0.0877
     34  N         18.3370   44.0210   20.2370 N.am   47  ASP47      -0.1960
     35  CA        19.4040   43.4640   21.0280 C.3    47  ASP47       0.1840
     36  C         20.0450   42.3740   20.2030 C.2    47  ASP47       0.2623
     37  O         19.3650   41.6870   19.4800 O.2    47  ASP47      -0.2715
     38  CB        18.8580   42.9300   22.3410 C.3    47  ASP47       0.1450
     39  CG        19.9150   42.7110   23.3640 C.2    47  ASP47       0.3671
     40  OD1       20.3870   43.7020   23.9380 O.co2  47  ASP47      -0.2456
     41  OD2       20.2570   41.5480   23.6140 O.co2  47  ASP47      -0.2456
     42  N         21.3570   42.2370   20.2760 N.am   48  GLY48      -0.1940
     43  CA        22.0590   41.3010   19.4230 C.3    48  GLY48       0.2014
     44  C         22.0480   39.8810   19.9300 C.2    48  GLY48       0.2638
     45  O         21.6120   38.9720   19.2430 O.2    48  GLY48      -0.2714
     46  N         22.5500   39.6870   21.1380 N.am   49  VAL49      -0.1977
     47  CA        22.6520   38.3650   21.7320 C.3    49  VAL49       0.1596
     48  C         21.2740   37.7260   21.8380 C.2    49  VAL49       0.2287
     49  O         21.1420   36.5110   21.8430 O.2    49  VAL49      -0.2864
     50  CB        23.3260   38.4360   23.1110 C.3    49  VAL49       0.0276
     51  CG1       22.5770   39.3660   24.0190 C.3    49  VAL49       0.0022
     52  CG2       23.4180   37.0870   23.7330 C.3    49  VAL49       0.0022
     53  N         27.8250   38.9000   26.6880 N.3    73  GLU73      -0.1245
     54  CA        26.7330   39.3830   27.5040 C.3    73  GLU73       0.1567
     55  C         26.9890   39.1140   28.9560 C.2    73  GLU73       0.2260
     56  O         26.7180   39.9450   29.8000 O.2    73  GLU73      -0.2867
     57  CB        25.4270   38.7290   27.0890 C.3    73  GLU73       0.0388
     58  CG        24.3790   38.7170   28.1880 C.3    73  GLU73       0.1160
     59  CD        23.5040   39.9490   28.2180 C.2    73  GLU73       0.3649
     60  OE1       23.6560   40.8310   27.3470 O.co2  73  GLU73      -0.2457
     61  OE2       22.6560   40.0340   29.1280 O.co2  73  GLU73      -0.2457
     62  N         27.5290   42.9230   29.4770 N.3    77  GLY77      -0.1210
     63  CA        26.1150   43.1990   29.3480 C.3    77  GLY77       0.1956
     64  C         25.7120   44.0210   28.1490 C.2    77  GLY77       0.2612
     65  O         24.5290   44.1310   27.8650 O.2    77  GLY77      -0.2717
     66  N         26.6920   44.6110   27.4710 N.am   78  ASP78      -0.1959
     67  CA        26.4840   45.3750   26.2380 C.3    78  ASP78       0.1840
     68  C         27.4730   44.9070   25.1660 C.2    78  ASP78       0.2623
     69  O         28.3300   44.0770   25.4220 O.2    78  ASP78      -0.2715
     70  CB        26.6510   46.8770   26.5080 C.3    78  ASP78       0.1450
     71  CG        26.0300   47.7640   25.4280 C.2    78  ASP78       0.3671
     72  OD1       25.5000   47.2390   24.4310 O.co2  78  ASP78      -0.2456
     73  OD2       26.0800   49.0040   25.5730 O.co2  78  ASP78      -0.2456
     74  N         27.3450   45.4250   23.9570 N.am   79  GLY79      -0.1940
     75  CA        28.3540   45.2070   22.9430 C.3    79  GLY79       0.2014
     76  C         28.3380   43.8850   22.2270 C.2    79  GLY79       0.2640
     77  O         29.3240   43.4900   21.6550 O.2    79  GLY79      -0.2714
     78  N         27.2030   43.2130   22.2420 N.am   80  THR80      -0.1936
     79  CA        27.0510   41.9050   21.6260 C.3    80  THR80       0.2028
     80  C         27.0830   41.9280   20.1080 C.2    80  THR80       0.2643
     81  O         27.7850   41.1490   19.4830 O.2    80  THR80      -0.2714
     82  CB        25.7680   41.2920   22.0910 C.3    80  THR80       0.1808
     83  OG1       24.7720   42.3130   22.1200 O.3    80  THR80      -0.2208
     84  CG2       25.9300   40.8350   23.4830 C.3    80  THR80       0.0379
     85  N         26.3050   42.8080   19.5070 N.am   81  THR81      -0.1936
     86  CA        26.2670   42.8870   18.0650 C.3    81  THR81       0.2028
     87  C         27.6340   43.2660   17.5250 C.2    81  THR81       0.2642
     88  O         28.0580   42.7640   16.5010 O.2    81  THR81      -0.2714
     89  CB        25.2370   43.9060   17.5770 C.3    81  THR81       0.1808
     90  OG1       23.9840   43.7020   18.2380 O.3    81  THR81      -0.2208
     91  CG2       25.0380   43.7610   16.1120 C.3    81  THR81       0.0379
     92  N         28.3360   44.1500   18.2140 N.am   82  THR82      -0.1950
     93  CA        29.6620   44.5290   17.7620 C.3    82  THR82       0.1897
     94  C         30.5590   43.3210   17.6990 C.2    82  THR82       0.2313
     95  O         31.2870   43.1310   16.7450 O.2    82  THR82      -0.2863
     96  CB        30.3130   45.5450   18.6710 C.3    82  THR82       0.1794
     97  OG1       29.4860   46.7000   18.7580 O.3    82  THR82      -0.2208
     98  CG2       31.6460   45.9400   18.1110 C.3    82  THR82       0.0378
     99  N         23.9860   56.3500   25.9350 N.3   143  ILE143     -0.1231
    100  CA        24.3310   55.7300   24.6720 C.3   143  ILE143      0.1692
    101  C         23.8960   54.2870   24.6280 C.2   143  ILE143      0.2591
    102  O         23.3020   53.8480   23.6560 O.2   143  ILE143     -0.2718
    103  CB        25.8160   55.7990   24.4220 C.3   143  ILE143      0.0266
    104  CG1       26.2110   57.2420   24.2030 C.3   143  ILE143      0.0019
    105  CG2       26.1750   55.0210   23.2020 C.3   143  ILE143      0.0020
    106  CD1       25.4500   57.8750   23.0980 C.3   143  ILE143      0.0001
    107  N         24.1660   53.5490   25.6950 N.am  144  ALA144     -0.1980
    108  CA        23.7790   52.1470   25.7200 C.3   144  ALA144      0.1597
    109  C         22.2880   52.0060   25.7510 C.2   144  ALA144      0.2287
    110  O         21.7580   51.0420   25.2630 O.2   144  ALA144     -0.2864
    111  CB        24.3740   51.4560   26.8990 C.3   144  ALA144      0.0319
    112  N         20.2550   53.4340   24.0620 N.3   146  ARG146     -0.1245
    113  CA        19.7160   53.7110   22.7410 C.3   146  ARG146      0.1563
    114  C         19.0520   55.0670   22.6810 C.2   146  ARG146      0.2260
    115  O         18.0970   55.2610   21.9480 O.2   146  ARG146     -0.2867
    116  CB        18.7300   52.6290   22.3310 C.3   146  ARG146      0.0307
    117  CG        19.2760   51.2500   22.5240 C.3   146  ARG146      0.0489
    118  CD        18.8470   50.2970   21.4380 C.3   146  ARG146      0.2205
    119  NE        19.9020   49.3230   21.2070 N.pl3 146  ARG146     -0.0865
    120  CZ        19.8800   48.0920   21.6880 C.cat 146  ARG146      0.5346
    121  NH1       18.8590   47.6960   22.4380 N.pl3 146  ARG146      0.1354
    122  NH2       20.8830   47.2680   21.4400 N.pl3 146  ARG146      0.1354
    123  N         20.7800   46.8760   29.4290 N.3   364  ASP364     -0.1239
    124  CA        21.9260   47.2800   28.6290 C.3   364  ASP364      0.1674
    125  C         22.5300   48.5520   29.1970 C.2   364  ASP364      0.2266
    126  O         23.7340   48.6400   29.4300 O.2   364  ASP364     -0.2867
    127  CB        21.5270   47.4920   27.1700 C.3   364  ASP364      0.1410
    128  CG        21.6040   46.2200   26.3440 C.2   364  ASP364      0.3668
    129  OD1       21.7050   45.1160   26.9200 O.co2 364  ASP364     -0.2456
    130  OD2       21.5660   46.3290   25.1030 O.co2 364  ASP364     -0.2456
    131  N         33.1060   56.4160   21.0740 N.3   380  GLY380     -0.1210
    132  CA        32.3020   55.4560   20.3390 C.3   380  GLY380      0.1956
    133  C         32.1340   55.7430   18.8670 C.2   380  GLY380      0.2612
    134  O         32.9830   56.3610   18.2510 O.2   380  GLY380     -0.2717
    135  N         31.0520   55.2440   18.2910 N.am  381  GLY381     -0.1942
    136  CA        30.7560   55.5130   16.9030 C.3   381  GLY381      0.2014
    137  C         31.5910   54.6610   15.9880 C.2   381  GLY381      0.2639
    138  O         31.4880   54.7750   14.7770 O.2   381  GLY381     -0.2714
    139  N         32.4250   53.8150   16.5820 N.am  382  GLY382     -0.1954
    140  CA        33.3300   52.9610   15.8380 C.3   382  GLY382      0.1869
    141  C         34.6560   53.6210   15.5200 C.2   382  GLY382      0.2309
    142  O         35.4800   53.0560   14.8250 O.2   382  GLY382     -0.2863
    143  N         27.5800   50.4500   10.5260 N.3   421  MET421     -0.1245
    144  CA        26.7280   51.4340   11.1460 C.3   421  MET421      0.1570
    145  C         26.4790   52.5510   10.1820 C.2   421  MET421      0.2261
    146  O         25.3580   53.0120   10.0650 O.2   421  MET421     -0.2867
    147  CB        27.3440   51.9960   12.4040 C.3   421  MET421      0.0387
    148  CG        27.8710   50.9960   13.3400 C.3   421  MET421      0.0595
    149  SD        28.1540   51.8390   14.8670 S.3   421  MET421     -0.1393
    150  CE        28.7880   50.5000   15.8320 C.3   421  MET421      0.0692
    151  N         31.5880   59.7830   13.1440 N.3   450  LEU450     -0.1231
    152  CA        30.5330   60.3190   12.2960 C.3   450  LEU450      0.1693
    153  C         29.2630   60.5250   13.0710 C.2   450  LEU450      0.2592
    154  O         28.8380   59.6390   13.7780 O.2   450  LEU450     -0.2718
    155  CB        30.2680   59.3970   11.1200 C.3   450  LEU450      0.0284
    156  CG        29.1200   59.8460   10.2310 C.3   450  LEU450      0.0019
    157  CD1       29.5150   61.0460    9.4410 C.3   450  LEU450      0.0001
    158  CD2       28.7290   58.7340    9.3130 C.3   450  LEU450      0.0001
    159  N         28.6700   61.7070   12.9550 N.am  451  ASP451     -0.1960
    160  CA        27.3470   61.9470   13.5100 C.3   451  ASP451      0.1840
    161  C         26.3200   61.3780   12.5650 C.2   451  ASP451      0.2622
    162  O         26.0910   61.9260   11.4950 O.2   451  ASP451     -0.2715
    163  CB        27.1080   63.4370   13.7470 C.3   451  ASP451      0.1450
    164  CG        25.7300   63.7290   14.3210 C.2   451  ASP451      0.3671
    165  OD1       24.7050   63.3640   13.7030 O.co2 451  ASP451     -0.2456
    166  OD2       25.6750   64.2860   15.4380 O.co2 451  ASP451     -0.2456
    167  N         25.6770   60.2950   12.9770 N.am  452  PHE452     -0.1974
    168  CA        24.8350   59.5390   12.0700 C.3   452  PHE452      0.1639
    169  C         23.5210   60.2180   11.7510 C.2   452  PHE452      0.2290
    170  O         22.8090   59.7940   10.8480 O.2   452  PHE452     -0.2864
    171  CB        24.5690   58.1510   12.6330 C.3   452  PHE452      0.0560
    172  CG        25.7850   57.2830   12.7060 C.ar  452  PHE452     -0.0200
    173  CD1       26.3290   56.7390   11.5700 C.ar  452  PHE452     -0.0042
    174  CD2       26.3470   56.9660   13.9080 C.ar  452  PHE452     -0.0042
    175  CE1       27.4240   55.9380   11.6410 C.ar  452  PHE452     -0.0003
    176  CE2       27.4350   56.1580   13.9740 C.ar  452  PHE452     -0.0003
    177  CZ        27.9730   55.6480   12.8420 C.ar  452  PHE452     -0.0000
    178  N         33.6510   62.8460   19.0860 N.3   460  MET460     -0.1245
    179  CA        32.6910   61.9380   19.6930 C.3   460  MET460      0.1570
    180  C         32.5520   62.1420   21.1830 C.2   460  MET460      0.2261
    181  O         31.4460   62.2180   21.6820 O.2   460  MET460     -0.2867
    182  CB        33.0570   60.4870   19.4020 C.3   460  MET460      0.0387
    183  CG        32.9630   60.0980   17.9420 C.3   460  MET460      0.0595
    184  SD        31.3450   60.4160   17.2350 S.3   460  MET460     -0.1393
    185  CE        30.4230   59.1030   17.9640 C.3   460  MET460      0.0692
    186  N         28.8880   60.8900   23.1390 N.3   465  VAL465     -0.1245
    187  CA        28.7890   59.5260   22.6580 C.3   465  VAL465      0.1561
    188  C         29.9860   58.6940   23.0690 C.2   465  VAL465      0.2260
    189  O         30.9590   58.6160   22.3370 O.2   465  VAL465     -0.2867
    190  CB        28.6870   59.4970   21.1390 C.3   465  VAL465      0.0252
    191  CG1       28.3600   58.1250   20.6660 C.3   465  VAL465      0.0019
    192  CG2       27.6360   60.4460   20.6870 C.3   465  VAL465      0.0019
    193  N         31.6300   54.9660   24.8070 N.3   467  ASP467     -0.1239
    194  CA        31.4160   53.5530   25.0750 C.3   467  ASP467      0.1674
    195  C         32.2530   53.1470   26.2540 C.2   467  ASP467      0.2266
    196  O         33.3450   53.6360   26.4090 O.2   467  ASP467     -0.2867
    197  CB        31.7870   52.7070   23.8620 C.3   467  ASP467      0.1410
    198  CG        30.8740   52.9410   22.6790 C.2   467  ASP467      0.3668
    199  OD1       29.6620   53.1490   22.8890 O.co2 467  ASP467     -0.2456
    200  OD2       31.3660   52.8990   21.5310 O.co2 467  ASP467     -0.2456
@<TRIPOS>BOND
     1   158   156    1
     2   157   156    1
     3   146   145    2
     4   145   144    1
     5   156   155    1
     6   143   144    1
     7   170   169    2
     8   155   152    1
     9   144   147    1
    10   162   161    2
    11   173   175   ar
    12   173   172   ar
    13   175   177   ar
    14   169   168    1
    15   168   171    1
    16   168   167    1
    17   152   153    1
    18   152   151    1
    19   147   148    1
    20   161   167   am
    21   161   160    1
    22   171   172    1
    23   172   174   ar
    24   177   176   ar
    25   159   153   am
    26   159   160    1
    27   153   154    2
    28     1     2    1
    29   148   149    1
    30   160   163    1
    31    10     9    2
    32   165   164   ar
    33   163   164    1
    34   174   176   ar
    35    14    12    1
    36   164   166   ar
    37    11    12    1
    38    11     8    1
    39     2     3    1
    40     2     5    1
    41     7     8    1
    42     7     3   am
    43     6     5    1
    44     9     8    1
    45     9    15   am
    46   138   137    2
    47   142   141    2
    48    12    13    1
    49   149   150    1
    50     3     4    2
    51   141   140    1
    52    21    22    2
    53    21    20    1
    54    16    15    1
    55    16    17    1
    56    25    24    1
    57    25    19    1
    58   140   139    1
    59    24    23    1
    60   137   139   am
    61   137   136    1
    62    91    89    1
    63    19    17   am
    64    19    20    1
    65    17    18    2
    66    88    87    2
    67    20    23    1
    68    33    31   am
    69    95    94    2
    70   136   135    1
    71   184   183    1
    72   184   185    1
    73    87    86    1
    74    87    92   am
    75    89    86    1
    76    89    90    1
    77    94    93    1
    78    93    92    1
    79    93    96    1
    80    31    30    1
    81    31    32    2
    82   183   182    1
    83    86    85    1
    84    98    96    1
    85   134   133    2
    86   135   133   am
    87    27    30    1
    88    27    28    1
    89    27    26    1
    90    96    97    1
    91    29    28    2
    92   133   132    1
    93   178   179    1
    94    28    34   am
    95    45    44    2
    96   182   179    1
    97    43    44    1
    98    43    42    1
    99    37    36    2
   100    81    80    2
   101    85    80   am
   102   179   180    1
   103    44    46   am
   104    80    79    1
   105    36    42   am
   106    36    35    1
   107    34    35    1
   108   132   131    1
   109   191   190    1
   110   192   190    1
   111    35    38    1
   112    46    47    1
   113   190   187    1
   114   180   181    2
   115   119   118    1
   116   119   120    2
   117   118   117    1
   118   122   120    1
   119   200   198   ar
   120    79    82    1
   121    79    78    1
   122    77    76    2
   123   120   121    1
   124    47    48    1
   125    47    50    1
   126    48    49    2
   127   115   114    2
   128    82    83    1
   129    82    84    1
   130    76    78   am
   131    76    75    1
   132   116   117    1
   133   116   113    1
   134   189   188    2
   135    38    39    1
   136   187   188    1
   137   187   186    1
   138   198   199   ar
   139   198   197    1
   140   114   113    1
   141   113   112    1
   142    75    74    1
   143   106   104    1
   144    50    52    1
   145    50    51    1
   146   105   103    1
   147    39    41   ar
   148    39    40   ar
   149   102   101    2
   150   197   194    1
   151    74    68   am
   152   104   103    1
   153   103   100    1
   154    72    71   ar
   155   101   100    1
   156   101   107   am
   157   100    99    1
   158   193   194    1
   159   194   195    1
   160   130   128   ar
   161    68    69    2
   162    68    67    1
   163   110   109    2
   164    71    73   ar
   165    71    70    1
   166   107   108    1
   167   108   109    1
   168   108   111    1
   169    67    70    1
   170    67    66    1
   171   195   196    2
   172   128   129   ar
   173   128   127    1
   174    53    54    1
   175    57    54    1
   176    57    58    1
   177   127   124    1
   178    60    59   ar
   179    66    64   am
   180    54    55    1
   181    65    64    2
   182    64    63    1
   183    58    59    1
   184    59    61   ar
   185   124   125    1
   186   124   123    1
   187    55    56    2
   188   125   126    2
   189    63    62    1
