@<TRIPOS>MOLECULE
tmp/5x9wA00.pdb
 142 136 0 0 0
SMALL
GASTEIGER

@<TRIPOS>ATOM
      1  N         40.2140  -14.5740  -41.1570 N.3   578  VAL578     -0.1245
      2  CA        40.6640  -15.9510  -41.5440 C.3   578  VAL578      0.1561
      3  C         42.1460  -16.1690  -41.2230 C.2   578  VAL578      0.2260
      4  O         42.6020  -17.2850  -41.1280 O.2   578  VAL578     -0.2867
      5  CB        40.4870  -16.2400  -43.0620 C.3   578  VAL578      0.0252
      6  CG1       40.7670  -17.6980  -43.3590 C.3   578  VAL578      0.0019
      7  CG2       39.1020  -15.8670  -43.5480 C.3   578  VAL578      0.0019
      8  N         44.0310  -20.4430  -39.1610 N.3   582  VAL582     -0.1245
      9  CA        44.5880  -21.3820  -40.1400 C.3   582  VAL582      0.1561
     10  C         46.0490  -21.8250  -39.9220 C.2   582  VAL582      0.2260
     11  O         46.6070  -22.5960  -40.7050 O.2   582  VAL582     -0.2867
     12  CB        44.4830  -20.7690  -41.5500 C.3   582  VAL582      0.0252
     13  CG1       43.0270  -20.6940  -42.0270 C.3   582  VAL582      0.0019
     14  CG2       45.1370  -19.3960  -41.5560 C.3   582  VAL582      0.0019
     15  N         48.7300  -21.4350  -41.0100 N.3   584  HIS584     -0.1226
     16  CA        49.4230  -20.7870  -42.1540 C.3   584  HIS584      0.1752
     17  C         48.4100  -20.2600  -43.1870 C.2   584  HIS584      0.2596
     18  O         47.5470  -21.0120  -43.6320 O.2   584  HIS584     -0.2718
     19  CB        50.4380  -21.7410  -42.8240 C.3   584  HIS584      0.0759
     20  CG        51.5780  -22.1860  -41.9300 C.ar  584  HIS584      0.0818
     21  ND1       52.5950  -21.3420  -41.5200 N.ar  584  HIS584     -0.2268
     22  CD2       51.8740  -23.4030  -41.4030 C.ar  584  HIS584      0.1154
     23  CE1       53.4480  -22.0110  -40.7610 C.ar  584  HIS584      0.1986
     24  NE2       53.0370  -23.2640  -40.6780 N.ar  584  HIS584     -0.2212
     25  N         48.5070  -18.9690  -43.5310 N.am  585  PHE585     -0.1962
     26  CA        47.5960  -18.2970  -44.4910 C.3   585  PHE585      0.1771
     27  C         48.3930  -17.5910  -45.5670 C.2   585  PHE585      0.2620
     28  O         49.2270  -16.7380  -45.2600 O.2   585  PHE585     -0.2715
     29  CB        46.7520  -17.2200  -43.7840 C.3   585  PHE585      0.0574
     30  CG        45.8520  -16.4080  -44.7050 C.ar  585  PHE585     -0.0200
     31  CD1       46.3390  -15.3120  -45.4060 C.ar  585  PHE585     -0.0042
     32  CD2       44.5090  -16.7210  -44.8270 C.ar  585  PHE585     -0.0042
     33  CE1       45.5100  -14.5740  -46.2350 C.ar  585  PHE585     -0.0003
     34  CE2       43.6760  -16.0020  -45.6620 C.ar  585  PHE585     -0.0003
     35  CZ        44.1730  -14.9220  -46.3640 C.ar  585  PHE585     -0.0000
     36  N         48.1170  -17.8960  -46.8270 N.am  586  THR586     -0.1951
     37  CA        48.9810  -17.4090  -47.9070 C.3   586  THR586      0.1897
     38  C         48.4800  -16.0520  -48.4120 C.2   586  THR586      0.2313
     39  O         47.3280  -15.9450  -48.8460 O.2   586  THR586     -0.2863
     40  CB        49.1120  -18.4500  -49.0640 C.3   586  THR586      0.1794
     41  OG1       48.0470  -18.3000  -50.0130 O.3   586  THR586     -0.2208
     42  CG2       49.1100  -19.8940  -48.5160 C.3   586  THR586      0.0378
     43  N         48.1710  -12.5280  -50.7910 N.3   588  ASN588     -0.1240
     44  CA        47.9090  -12.3740  -52.2200 C.3   588  ASN588      0.1653
     45  C         47.7740  -10.9080  -52.5720 C.2   588  ASN588      0.2266
     46  O         47.3130  -10.0860  -51.7680 O.2   588  ASN588     -0.2867
     47  CB        46.6320  -13.1090  -52.6630 C.3   588  ASN588      0.1155
     48  CG        46.8300  -14.6060  -52.8450 C.2   588  ASN588      0.2627
     49  OD1       45.9040  -15.3720  -52.6690 O.2   588  ASN588     -0.2716
     50  ND2       48.0160  -15.0240  -53.2090 N.am  588  ASN588     -0.0877
     51  N         36.4280  -25.2220  -56.0970 N.3   605  ASN605     -0.1225
     52  CA        35.5730  -24.9180  -54.9980 C.3   605  ASN605      0.1785
     53  C         36.2850  -24.6720  -53.6730 C.2   605  ASN605      0.2597
     54  O         35.7410  -23.9700  -52.8370 O.2   605  ASN605     -0.2718
     55  CB        34.6220  -26.0760  -54.7920 C.3   605  ASN605      0.1169
     56  CG        33.1890  -25.6440  -54.6710 C.2   605  ASN605      0.2627
     57  OD1       32.7030  -24.8440  -55.4670 O.2   605  ASN605     -0.2716
     58  ND2       32.4930  -26.1870  -53.6620 N.am  605  ASN605     -0.0877
     59  N         37.4500  -25.2520  -53.4110 N.am  606  MET606     -0.1965
     60  CA        38.1690  -24.8660  -52.1720 C.3   606  MET606      0.1736
     61  C         39.3660  -23.9460  -52.4250 C.2   606  MET606      0.2617
     62  O         40.1240  -23.6560  -51.4850 O.2   606  MET606     -0.2715
     63  CB        38.6130  -26.0950  -51.3640 C.3   606  MET606      0.0427
     64  CG        37.4780  -26.9830  -50.8890 C.3   606  MET606      0.0599
     65  SD        36.5780  -26.1510  -49.5940 S.3   606  MET606     -0.1393
     66  CE        37.6680  -26.3650  -48.1710 C.3   606  MET606      0.0692
     67  N         39.5290  -23.5160  -53.6850 N.am  607  GLY607     -0.1940
     68  CA        40.4660  -22.4430  -54.0580 C.3   607  GLY607      0.2014
     69  C         39.9050  -21.1680  -53.4600 C.2   607  GLY607      0.2639
     70  O         38.6800  -20.9310  -53.4770 O.2   607  GLY607     -0.2714
     71  N         40.7640  -20.3510  -52.8710 N.am  608  GLY608     -0.1939
     72  CA        40.2660  -19.2660  -51.9940 C.3   608  GLY608      0.2014
     73  C         39.6750  -18.0360  -52.6840 C.2   608  GLY608      0.2639
     74  O         40.1790  -16.9190  -52.5160 O.2   608  GLY608     -0.2714
     75  N         38.5950  -18.2210  -53.4340 N.am  609  LYS609     -0.1963
     76  CA        37.9920  -17.1030  -54.1770 C.3   609  LYS609      0.1728
     77  C         37.2510  -16.1710  -53.2340 C.2   609  LYS609      0.2617
     78  O         37.5430  -14.9760  -53.1820 O.2   609  LYS609     -0.2715
     79  CB        37.0010  -17.5920  -55.2410 C.3   609  LYS609      0.0311
     80  CG        37.6200  -18.3960  -56.3640 C.3   609  LYS609      0.0038
     81  CD        36.6160  -18.7050  -57.4480 C.3   609  LYS609      0.0206
     82  CE        35.4210  -19.5220  -56.9510 C.3   609  LYS609      0.1093
     83  NZ        35.7430  -20.8490  -56.3510 N.3   609  LYS609     -0.1314
     84  N         36.2900  -16.7280  -52.4910 N.am  610  SER610     -0.1936
     85  CA        35.5180  -15.9660  -51.5370 C.3   610  SER610      0.2055
     86  C         36.4210  -15.2560  -50.5550 C.2   610  SER610      0.2643
     87  O         36.3250  -14.0340  -50.3820 O.2   610  SER610     -0.2714
     88  CB        34.5360  -16.8560  -50.7860 C.3   610  SER610      0.2130
     89  OG        33.2860  -16.8340  -51.4460 O.3   610  SER610     -0.2179
     90  N         37.2780  -16.0140  -49.8910 N.am  611  THR611     -0.1950
     91  CA        38.1530  -15.4300  -48.9020 C.3   611  THR611      0.1897
     92  C         38.9330  -14.2620  -49.5190 C.2   611  THR611      0.2313
     93  O         39.1240  -13.2230  -48.9050 O.2   611  THR611     -0.2863
     94  CB        39.0900  -16.4930  -48.2980 C.3   611  THR611      0.1794
     95  OG1       38.3610  -17.3110  -47.3740 O.3   611  THR611     -0.2208
     96  CG2       40.2070  -15.8510  -47.5140 C.3   611  THR611      0.0378
     97  N         27.4830  -12.4910  -51.6140 N.3   646  ILE646     -0.1245
     98  CA        28.1540  -13.7690  -51.3910 C.3   646  ILE646      0.1561
     99  C         27.2250  -14.7680  -50.7160 C.2   646  ILE646      0.2260
    100  O         26.8750  -14.5980  -49.5480 O.2   646  ILE646     -0.2867
    101  CB        29.4210  -13.6130  -50.5090 C.3   646  ILE646      0.0252
    102  CG1       30.2820  -12.4110  -50.9540 C.3   646  ILE646      0.0019
    103  CG2       30.2460  -14.9040  -50.5240 C.3   646  ILE646      0.0019
    104  CD1       30.1590  -11.2200  -50.0390 C.3   646  ILE646      0.0001
    105  N         29.8730  -13.0570  -55.8590 N.3   672  ASP672     -0.1225
    106  CA        30.3420  -14.4130  -55.6900 C.3   672  ASP672      0.1805
    107  C         29.3420  -15.3710  -56.3210 C.2   672  ASP672      0.2597
    108  O         28.2550  -15.5900  -55.8010 O.2   672  ASP672     -0.2718
    109  CB        30.4720  -14.7080  -54.1980 C.3   672  ASP672      0.1424
    110  CG        31.1440  -16.0380  -53.8970 C.2   672  ASP672      0.3668
    111  OD1       30.4760  -17.1010  -53.9260 O.co2 672  ASP672     -0.2456
    112  OD2       32.3400  -16.0020  -53.5570 O.co2 672  ASP672     -0.2456
    113  N         29.7220  -15.9540  -57.4480 N.am  673  GLU673     -0.1979
    114  CA        28.9570  -17.0200  -58.0860 C.3   673  GLU673      0.1602
    115  C         27.5010  -16.6370  -58.2810 C.2   673  GLU673      0.2287
    116  O         26.6120  -17.3310  -57.8160 O.2   673  GLU673     -0.2864
    117  CB        29.0940  -18.3240  -57.2700 C.3   673  GLU673      0.0415
    118  CG        30.5450  -18.7940  -57.1230 C.3   673  GLU673      0.1163
    119  CD        30.6650  -20.2460  -56.7000 C.2   673  GLU673      0.3649
    120  OE1       29.9590  -21.1080  -57.2580 O.co2 673  GLU673     -0.2457
    121  OE2       31.4630  -20.5440  -55.7980 O.co2 673  GLU673     -0.2457
    122  N         23.8460  -19.2250  -59.6740 N.3   676  ARG676     -0.1245
    123  CA        23.4070  -20.4450  -58.9790 C.3   676  ARG676      0.1563
    124  C         21.8900  -20.3790  -58.6730 C.2   676  ARG676      0.2260
    125  O         21.4030  -19.5030  -57.9390 O.2   676  ARG676     -0.2867
    126  CB        24.2000  -20.6550  -57.6880 C.3   676  ARG676      0.0307
    127  CG        25.7060  -20.8460  -57.8650 C.3   676  ARG676      0.0489
    128  CD        26.4380  -20.9560  -56.5180 C.3   676  ARG676      0.2205
    129  NE        26.3080  -19.7380  -55.7060 N.pl3 676  ARG676     -0.0865
    130  CZ        26.9330  -19.5090  -54.5510 C.cat 676  ARG676      0.5346
    131  NH1       27.7660  -20.4090  -54.0410 N.pl3 676  ARG676      0.1354
    132  NH2       26.7340  -18.3610  -53.9050 N.pl3 676  ARG676      0.1354
    133  N         46.2200  -21.8170  -52.5260 N.3   739  HIS739     -0.1241
    134  CA        45.4760  -20.5630  -52.3940 C.3   739  HIS739      0.1621
    135  C         46.3240  -19.3860  -52.8410 C.2   739  HIS739      0.2264
    136  O         46.8070  -18.6010  -52.0210 O.2   739  HIS739     -0.2867
    137  CB        45.0070  -20.3740  -50.9630 C.3   739  HIS739      0.0745
    138  CG        44.1990  -21.5190  -50.4410 C.ar  739  HIS739      0.0817
    139  ND1       44.5300  -22.1860  -49.2800 N.ar  739  HIS739     -0.2268
    140  CD2       43.0830  -22.1240  -50.9170 C.ar  739  HIS739      0.1154
    141  CE1       43.6420  -23.1400  -49.0530 C.ar  739  HIS739      0.1986
    142  NE2       42.7560  -23.1300  -50.0350 N.ar  739  HIS739     -0.2212
@<TRIPOS>BOND
     1   122   123    1
     2   123   124    1
     3   123   126    1
     4   124   125    2
     5   115   114    1
     6   115   116    2
     7   114   113    1
     8   114   117    1
     9   127   126    1
    10   127   128    1
    11    81    82    1
    12    81    80    1
    13   113   107   am
    14   117   118    1
    15   120   119   ar
    16   118   119    1
    17    82    83    1
    18   119   121   ar
    19   128   129    1
    20    80    79    1
    21   107   108    2
    22   107   106    1
    23    51    52    1
    24   105   106    1
    25   129   130    2
    26   106   109    1
    27    57    56    2
    28    79    76    1
    29    52    55    1
    30    52    53    1
    31    55    56    1
    32    56    58   am
    33   130   131    1
    34   130   132    1
    35   109   110    1
    36    76    75    1
    37    76    77    1
    38    68    67    1
    39    68    69    1
    40   111   110   ar
    41   110   112   ar
    42    67    61   am
    43    53    59   am
    44    53    54    2
    45    70    69    2
    46    69    71   am
    47    75    73   am
    48    59    60    1
    49    77    78    2
    50    77    84   am
    51    50    48   am
    52    71    72    1
    53    48    49    2
    54    48    47    1
    55   135   134    1
    56   135   136    2
    57    73    74    2
    58    73    72    1
    59    47    44    1
    60    45    44    1
    61    45    46    2
    62   133   134    1
    63    84    85    1
    64    61    60    1
    65    61    62    2
    66   134   137    1
    67    44    43    1
    68    60    63    1
    69    97    98    1
    70    85    88    1
    71    85    86    1
    72    89    88    1
    73    98    99    1
    74    98   101    1
    75    63    64    1
    76   137   138    1
    77   102   101    1
    78   102   104    1
    79   140   138   ar
    80   140   142   ar
    81    64    65    1
    82    99   100    2
    83    86    87    2
    84    86    90   am
    85   103   101    1
    86   138   139   ar
    87   142   141   ar
    88    41    40    1
    89    90    91    1
    90    65    66    1
    91    92    93    2
    92    92    91    1
    93   139   141   ar
    94    40    42    1
    95    40    37    1
    96    91    94    1
    97    39    38    2
    98    38    37    1
    99    94    96    1
   100    94    95    1
   101    37    36    1
   102    36    27   am
   103    35    33   ar
   104    35    34   ar
   105    33    31   ar
   106    34    32   ar
   107    27    28    2
   108    27    26    1
   109    31    30   ar
   110    32    30   ar
   111    30    29    1
   112    26    29    1
   113    26    25    1
   114    18    17    2
   115     7     5    1
   116    25    17   am
   117     6     5    1
   118    17    16    1
   119     5     2    1
   120    19    16    1
   121    19    20    1
   122    16    15    1
   123    13    12    1
   124    20    21   ar
   125    20    22   ar
   126    14    12    1
   127    12     9    1
   128     2     3    1
   129     2     1    1
   130    21    23   ar
   131    22    24   ar
   132     3     4    2
   133    23    24   ar
   134    11    10    2
   135     9    10    1
   136     9     8    1
