@<TRIPOS>MOLECULE
tmp/5xa3B01.pdb
 89 80 0 0 0
SMALL
GASTEIGER

@<TRIPOS>ATOM
      1  N         66.3050  -24.6450   -4.0810 N.3    18  LEU18      -0.1245
      2  CA        65.4440  -24.2500   -5.2000 C.3    18  LEU18       0.1561
      3  C         66.0830  -24.4870   -6.5740 C.2    18  LEU18       0.2260
      4  O         65.3780  -24.4250   -7.5870 O.2    18  LEU18      -0.2867
      5  CB        65.0130  -22.7860   -5.0580 C.3    18  LEU18       0.0270
      6  CG        64.3360  -22.4360   -3.7270 C.3    18  LEU18       0.0019
      7  CD1       64.0280  -20.9480   -3.6610 C.3    18  LEU18       0.0001
      8  CD2       63.0740  -23.2570   -3.4940 C.3    18  LEU18       0.0001
      9  N         60.7410  -27.2950   -7.5390 N.3    23  PRO23      -0.2102
     10  CA        60.9670  -26.5990   -6.2590 C.3    23  PRO23       0.1504
     11  C         59.8100  -26.6430   -5.2470 C.2    23  PRO23       0.2575
     12  O         60.0630  -26.7790   -4.0510 O.2    23  PRO23      -0.2718
     13  CB        61.2490  -25.1520   -6.6880 C.3    23  PRO23       0.0282
     14  CG        60.6130  -25.0150   -8.0240 C.3    23  PRO23       0.0208
     15  CD        60.7660  -26.3540   -8.6760 C.3    23  PRO23       0.0893
     16  N         58.5690  -26.5140   -5.7160 N.am   24  VAL24      -0.1980
     17  CA        57.3900  -26.5790   -4.8330 C.3    24  VAL24       0.1595
     18  C         57.2800  -27.9580   -4.1800 C.2    24  VAL24       0.2287
     19  O         57.0500  -28.0560   -2.9740 O.2    24  VAL24      -0.2864
     20  CB        56.0710  -26.2420   -5.5770 C.3    24  VAL24       0.0276
     21  CG1       54.8490  -26.4830   -4.6870 C.3    24  VAL24       0.0022
     22  CG2       56.0820  -24.7990   -6.0640 C.3    24  VAL24       0.0022
     23  N         59.8100  -28.2700   -1.5120 N.3    27  LEU27      -0.1245
     24  CA        59.3250  -27.5290   -0.3410 C.3    27  LEU27       0.1561
     25  C         58.2120  -28.2640    0.4120 C.2    27  LEU27       0.2260
     26  O         58.1320  -28.1630    1.6380 O.2    27  LEU27      -0.2867
     27  CB        58.8530  -26.1250   -0.7370 C.3    27  LEU27       0.0270
     28  CG        59.9480  -25.1540   -1.1910 C.3    27  LEU27       0.0019
     29  CD1       59.3600  -24.0270   -2.0270 C.3    27  LEU27       0.0001
     30  CD2       60.7180  -24.5960   -0.0020 C.3    27  LEU27       0.0001
     31  N         57.9110  -20.5630    5.5050 N.3    49  TYR49      -0.1241
     32  CA        56.9010  -21.3670    4.8080 C.3    49  TYR49       0.1605
     33  C         55.8910  -21.9400    5.7900 C.2    49  TYR49       0.2264
     34  O         56.2690  -22.6720    6.7000 O.2    49  TYR49      -0.2867
     35  CB        57.5550  -22.4970    4.0110 C.3    49  TYR49       0.0534
     36  CG        58.1930  -22.0140    2.7340 C.ar   49  TYR49      -0.0201
     37  CD1       59.4890  -21.5010    2.7310 C.ar   49  TYR49      -0.0009
     38  CD2       57.4950  -22.0460    1.5280 C.ar   49  TYR49      -0.0009
     39  CE1       60.0750  -21.0450    1.5600 C.ar   49  TYR49       0.0417
     40  CE2       58.0730  -21.5910    0.3530 C.ar   49  TYR49       0.0417
     41  CZ        59.3630  -21.0920    0.3740 C.ar   49  TYR49       0.1957
     42  OH        59.9470  -20.6430   -0.7830 O.3    49  TYR49      -0.2866
     43  N         56.4840  -12.0520   -4.1580 N.3    70  SER70      -0.1217
     44  CA        57.6230  -12.9540   -4.0260 C.3    70  SER70       0.1889
     45  C         58.6990  -12.5650   -5.0390 C.2    70  SER70       0.2288
     46  O         58.4530  -11.7510   -5.9370 O.2    70  SER70      -0.2866
     47  CB        57.1860  -14.4030   -4.2530 C.3    70  SER70       0.2089
     48  OG        56.7840  -14.6150   -5.5950 O.3    70  SER70      -0.2183
     49  N         59.8420  -14.3170   -7.4430 N.3    72  ALA72      -0.1245
     50  CA        59.3410  -14.7260   -8.7600 C.3    72  ALA72       0.1562
     51  C         58.3670  -13.7030   -9.3440 C.2    72  ALA72       0.2260
     52  O         58.4880  -13.3380  -10.5170 O.2    72  ALA72      -0.2867
     53  CB        58.6810  -16.0960   -8.6850 C.3    72  ALA72       0.0290
     54  N         61.5760  -17.5740  -13.5790 N.3   183  MET183     -0.1245
     55  CA        61.7950  -18.7470  -12.7280 C.3   183  MET183      0.1570
     56  C         63.2830  -19.0760  -12.5600 C.2   183  MET183      0.2261
     57  O         63.7220  -19.3920  -11.4510 O.2   183  MET183     -0.2867
     58  CB        61.0370  -19.9550  -13.3060 C.3   183  MET183      0.0387
     59  CG        61.1620  -21.2700  -12.5430 C.3   183  MET183      0.0595
     60  SD        60.7600  -21.1740  -10.7870 S.3   183  MET183     -0.1393
     61  CE        59.9330  -22.7470  -10.5620 C.3   183  MET183      0.0692
     62  N         65.7000  -16.9040  -10.0940 N.3   186  LEU186     -0.1245
     63  CA        65.6880  -17.2680   -8.6700 C.3   186  LEU186      0.1561
     64  C         66.9570  -18.0110   -8.2520 C.2   186  LEU186      0.2260
     65  O         67.5150  -17.7340   -7.1900 O.2   186  LEU186     -0.2867
     66  CB        64.4810  -18.1570   -8.3390 C.3   186  LEU186      0.0270
     67  CG        63.0700  -17.5880   -8.4900 C.3   186  LEU186      0.0019
     68  CD1       62.0470  -18.6620   -8.1600 C.3   186  LEU186      0.0001
     69  CD2       62.8770  -16.3730   -7.6000 C.3   186  LEU186      0.0001
     70  N         51.7310  -21.5930   -4.3870 N.3   328  ALA328     -0.1245
     71  CA        52.2610  -20.7580   -3.3090 C.3   328  ALA328      0.1562
     72  C         51.9100  -19.2940   -3.5230 C.2   328  ALA328      0.2260
     73  O         51.8840  -18.8240   -4.6600 O.2   328  ALA328     -0.2867
     74  CB        53.7690  -20.9290   -3.2000 C.3   328  ALA328      0.0290
     75  N         55.4090  -17.3500    3.3180 N.3   352  MET352     -0.1245
     76  CA        54.9320  -18.0660    2.1310 C.3   352  MET352      0.1570
     77  C         53.8850  -19.0780    2.5810 C.2   352  MET352      0.2261
     78  O         54.1180  -19.8290    3.5280 O.2   352  MET352     -0.2867
     79  CB        56.0690  -18.8190    1.4330 C.3   352  MET352      0.0387
     80  CG        57.1490  -17.9530    0.8050 C.3   352  MET352      0.0595
     81  SD        56.6280  -16.9430   -0.5940 S.3   352  MET352     -0.1393
     82  CE        56.0190  -18.1780   -1.7410 C.3   352  MET352      0.0692
     83  N         56.4180  -24.6890  -13.5900 N.3   434  THR434     -0.1218
     84  CA        56.7750  -23.3700  -14.1240 C.3   434  THR434      0.1862
     85  C         56.2390  -22.3640  -13.0820 C.2   434  THR434      0.2287
     86  O         56.5550  -22.5100  -11.8970 O.2   434  THR434     -0.2866
     87  CB        56.1850  -23.1720  -15.5390 C.3   434  THR434      0.1770
     88  OG1       54.7880  -23.4970  -15.5270 O.3   434  THR434     -0.2211
     89  CG2       56.8970  -24.0630  -16.5490 C.3   434  THR434      0.0375
@<TRIPOS>BOND
     1    89    87    1
     2    87    88    1
     3    87    84    1
     4    84    83    1
     5    84    85    1
     6    54    55    1
     7    58    55    1
     8    58    59    1
     9    85    86    2
    10    55    56    1
    11    56    57    2
    12    59    60    1
    13    60    61    1
    14    52    51    2
    15    62    63    1
    16    51    50    1
    17    50    53    1
    18    50    49    1
    19    15    14    1
    20    15     9    1
    21    63    66    1
    22    63    64    1
    23    67    66    1
    24    67    68    1
    25    67    69    1
    26    64    65    2
    27    14    13    1
    28     4     3    2
    29     9    10    1
    30    13    10    1
    31     3     2    1
    32    10    11    1
    33    22    20    1
    34    46    45    2
    35    16    11   am
    36    16    17    1
    37    48    47    1
    38    20    17    1
    39    20    21    1
    40    11    12    2
    41     2     5    1
    42     2     1    1
    43     5     6    1
    44    45    44    1
    45    17    18    1
    46    73    72    2
    47    70    71    1
    48    47    44    1
    49    18    19    2
    50    43    44    1
    51     6     7    1
    52     6     8    1
    53    72    71    1
    54    71    74    1
    55    29    28    1
    56    82    81    1
    57    23    24    1
    58    28    27    1
    59    28    30    1
    60    42    41    1
    61    27    24    1
    62    81    80    1
    63    24    25    1
    64    40    41   ar
    65    40    38   ar
    66    41    39   ar
    67    25    26    2
    68    80    79    1
    69    79    76    1
    70    38    36   ar
    71    39    37   ar
    72    76    77    1
    73    76    75    1
    74    77    78    2
    75    37    36   ar
    76    36    35    1
    77    35    32    1
    78    32    31    1
    79    32    33    1
    80    33    34    2
