@<TRIPOS>MOLECULE
tmp/5xa3B03.pdb
 119 112 0 0 0
SMALL
GASTEIGER

@<TRIPOS>ATOM
      1  N         58.5690  -26.5140   -5.7160 N.3    24  VAL24      -0.1245
      2  CA        57.3900  -26.5790   -4.8330 C.3    24  VAL24       0.1561
      3  C         57.2800  -27.9580   -4.1800 C.2    24  VAL24       0.2260
      4  O         57.0500  -28.0560   -2.9740 O.2    24  VAL24      -0.2867
      5  CB        56.0710  -26.2420   -5.5770 C.3    24  VAL24       0.0252
      6  CG1       54.8490  -26.4830   -4.6870 C.3    24  VAL24       0.0019
      7  CG2       56.0820  -24.7990   -6.0640 C.3    24  VAL24       0.0019
      8  N         49.3320   -8.9730    0.8790 N.3    67  LYS67      -0.1245
      9  CA        50.0600   -9.6620   -0.1900 C.3    67  LYS67       0.1561
     10  C         51.4590   -9.0750   -0.3900 C.2    67  LYS67       0.2260
     11  O         51.6320   -7.8600   -0.4430 O.2    67  LYS67      -0.2867
     12  CB        49.2880   -9.6220   -1.5170 C.3    67  LYS67       0.0271
     13  CG        50.1030  -10.0620   -2.7300 C.3    67  LYS67       0.0035
     14  CD        49.2470  -10.5370   -3.8910 C.3    67  LYS67       0.0206
     15  CE        50.0480  -10.5310   -5.1880 C.3    67  LYS67       0.1093
     16  NZ        49.4460  -11.3630   -6.2670 N.3    67  LYS67      -0.1314
     17  N         56.4840  -12.0520   -4.1580 N.3    70  SER70      -0.1217
     18  CA        57.6230  -12.9540   -4.0260 C.3    70  SER70       0.1889
     19  C         58.6990  -12.5650   -5.0390 C.2    70  SER70       0.2288
     20  O         58.4530  -11.7510   -5.9370 O.2    70  SER70      -0.2866
     21  CB        57.1860  -14.4030   -4.2530 C.3    70  SER70       0.2089
     22  OG        56.7840  -14.6150   -5.5950 O.3    70  SER70      -0.2183
     23  N         59.8420  -14.3170   -7.4430 N.3    72  ALA72      -0.1231
     24  CA        59.3410  -14.7260   -8.7600 C.3    72  ALA72       0.1694
     25  C         58.3670  -13.7030   -9.3440 C.2    72  ALA72       0.2591
     26  O         58.4880  -13.3380  -10.5170 O.2    72  ALA72      -0.2718
     27  CB        58.6810  -16.0960   -8.6850 C.3    72  ALA72       0.0304
     28  N         57.4130  -13.2450   -8.5300 N.am   73  LEU73      -0.1980
     29  CA        56.4600  -12.2090   -8.9550 C.3    73  LEU73       0.1596
     30  C         57.1230  -10.8640   -9.2540 C.2    73  LEU73       0.2287
     31  O         56.6580  -10.1310  -10.1290 O.2    73  LEU73      -0.2864
     32  CB        55.3490  -11.9990   -7.9150 C.3    73  LEU73       0.0297
     33  CG        54.3500  -13.1280   -7.6410 C.3    73  LEU73       0.0022
     34  CD1       53.1630  -12.5770   -6.8580 C.3    73  LEU73       0.0001
     35  CD2       53.8710  -13.8030   -8.9160 C.3    73  LEU73       0.0001
     36  N         47.7420   -8.8220  -10.6870 N.3    85  PHE85      -0.1241
     37  CA        48.5110   -9.9480  -10.1440 C.3    85  PHE85       0.1605
     38  C         49.8640   -9.5330   -9.5640 C.2    85  PHE85       0.2264
     39  O         50.2860  -10.0890   -8.5500 O.2    85  PHE85      -0.2867
     40  CB        48.6800  -11.0220  -11.2360 C.3    85  PHE85       0.0534
     41  CG        49.3970  -12.2710  -10.7900 C.ar   85  PHE85      -0.0203
     42  CD1       48.9970  -12.9650   -9.6490 C.ar   85  PHE85      -0.0042
     43  CD2       50.4560  -12.7800  -11.5410 C.ar   85  PHE85      -0.0042
     44  CE1       49.6570  -14.1240   -9.2570 C.ar   85  PHE85      -0.0003
     45  CE2       51.1150  -13.9380  -11.1520 C.ar   85  PHE85      -0.0003
     46  CZ        50.7140  -14.6110  -10.0100 C.ar   85  PHE85      -0.0000
     47  N         61.5760  -17.5740  -13.5790 N.3   183  MET183     -0.1245
     48  CA        61.7950  -18.7470  -12.7280 C.3   183  MET183      0.1570
     49  C         63.2830  -19.0760  -12.5600 C.2   183  MET183      0.2261
     50  O         63.7220  -19.3920  -11.4510 O.2   183  MET183     -0.2867
     51  CB        61.0370  -19.9550  -13.3060 C.3   183  MET183      0.0387
     52  CG        61.1620  -21.2700  -12.5430 C.3   183  MET183      0.0595
     53  SD        60.7600  -21.1740  -10.7870 S.3   183  MET183     -0.1393
     54  CE        59.9330  -22.7470  -10.5620 C.3   183  MET183      0.0692
     55  N         65.7000  -16.9040  -10.0940 N.3   186  LEU186     -0.1245
     56  CA        65.6880  -17.2680   -8.6700 C.3   186  LEU186      0.1561
     57  C         66.9570  -18.0110   -8.2520 C.2   186  LEU186      0.2260
     58  O         67.5150  -17.7340   -7.1900 O.2   186  LEU186     -0.2867
     59  CB        64.4810  -18.1570   -8.3390 C.3   186  LEU186      0.0270
     60  CG        63.0700  -17.5880   -8.4900 C.3   186  LEU186      0.0019
     61  CD1       62.0470  -18.6620   -8.1600 C.3   186  LEU186      0.0001
     62  CD2       62.8770  -16.3730   -7.6000 C.3   186  LEU186      0.0001
     63  N         48.2620  -22.8820   -8.7470 N.3   326  ALA326     -0.1231
     64  CA        49.0920  -21.7500   -8.3280 C.3   326  ALA326      0.1679
     65  C         49.4430  -22.0080   -6.8620 C.2   326  ALA326      0.2434
     66  O         48.8090  -21.4490   -5.9660 O.2   326  ALA326     -0.2733
     67  CB        48.3380  -20.4410   -8.5050 C.3   326  ALA326      0.0304
     68  N         50.4550  -22.8630   -6.6140 N.am  327  PRO327     -0.2718
     69  CA        50.5700  -23.5490   -5.3220 C.3   327  PRO327      0.1535
     70  C         51.1180  -22.7480   -4.1360 C.2   327  PRO327      0.2598
     71  O         50.9870  -23.1970   -2.9970 O.2   327  PRO327     -0.2715
     72  CB        51.5110  -24.7080   -5.6440 C.3   327  PRO327      0.0310
     73  CG        52.4180  -24.1500   -6.6890 C.3   327  PRO327      0.0237
     74  CD        51.6150  -23.1530   -7.4810 C.3   327  PRO327      0.0939
     75  N         51.7310  -21.5930   -4.3870 N.am  328  ALA328     -0.1964
     76  CA        52.2610  -20.7580   -3.3090 C.3   328  ALA328      0.1728
     77  C         51.9100  -19.2940   -3.5230 C.2   328  ALA328      0.2616
     78  O         51.8840  -18.8240   -4.6600 O.2   328  ALA328     -0.2715
     79  CB        53.7690  -20.9290   -3.2000 C.3   328  ALA328      0.0334
     80  N         51.6000  -18.5940   -2.4320 N.am  329  PHE329     -0.1960
     81  CA        51.5480  -17.1330   -2.4370 C.3   329  PHE329      0.1771
     82  C         52.2470  -16.5620   -1.2090 C.2   329  PHE329      0.2620
     83  O         52.4030  -17.2470   -0.1870 O.2   329  PHE329     -0.2715
     84  CB        50.1140  -16.6010   -2.5750 C.3   329  PHE329      0.0574
     85  CG        49.1900  -16.9880   -1.4520 C.ar  329  PHE329     -0.0200
     86  CD1       48.4610  -18.1700   -1.5130 C.ar  329  PHE329     -0.0042
     87  CD2       49.0130  -16.1500   -0.3520 C.ar  329  PHE329     -0.0042
     88  CE1       47.5940  -18.5240   -0.4890 C.ar  329  PHE329     -0.0003
     89  CE2       48.1480  -16.5000    0.6750 C.ar  329  PHE329     -0.0003
     90  CZ        47.4360  -17.6870    0.6060 C.ar  329  PHE329     -0.0000
     91  N         52.6580  -15.3020   -1.3330 N.am  330  SER330     -0.1950
     92  CA        53.5130  -14.6400   -0.3560 C.3   330  SER330      0.1924
     93  C         52.7590  -13.5460    0.3990 C.2   330  SER330      0.2314
     94  O         51.8430  -12.9220   -0.1470 O.2   330  SER330     -0.2863
     95  CB        54.7230  -14.0310   -1.0660 C.3   330  SER330      0.2116
     96  OG        55.7360  -13.6790   -0.1390 O.3   330  SER330     -0.2180
     97  N         55.4090  -17.3500    3.3180 N.3   352  MET352     -0.1245
     98  CA        54.9320  -18.0660    2.1310 C.3   352  MET352      0.1570
     99  C         53.8850  -19.0780    2.5810 C.2   352  MET352      0.2261
    100  O         54.1180  -19.8290    3.5280 O.2   352  MET352     -0.2867
    101  CB        56.0690  -18.8190    1.4330 C.3   352  MET352      0.0387
    102  CG        57.1490  -17.9530    0.8050 C.3   352  MET352      0.0595
    103  SD        56.6280  -16.9430   -0.5940 S.3   352  MET352     -0.1393
    104  CE        56.0190  -18.1780   -1.7410 C.3   352  MET352      0.0692
    105  N         56.4180  -24.6890  -13.5900 N.3   434  THR434     -0.1203
    106  CA        56.7750  -23.3700  -14.1240 C.3   434  THR434      0.1994
    107  C         56.2390  -22.3640  -13.0820 C.2   434  THR434      0.2617
    108  O         56.5550  -22.5100  -11.8970 O.2   434  THR434     -0.2717
    109  CB        56.1850  -23.1720  -15.5390 C.3   434  THR434      0.1784
    110  OG1       54.7880  -23.4970  -15.5270 O.3   434  THR434     -0.2211
    111  CG2       56.8970  -24.0630  -16.5490 C.3   434  THR434      0.0376
    112  N         55.4480  -21.3630  -13.4820 N.am  435  LEU435     -0.1979
    113  CA        54.5810  -20.6450  -12.5320 C.3   435  LEU435      0.1596
    114  C         53.6460  -21.6340  -11.8300 C.2   435  LEU435      0.2287
    115  O         53.4020  -21.5200  -10.6270 O.2   435  LEU435     -0.2864
    116  CB        53.7310  -19.5810  -13.2490 C.3   435  LEU435      0.0297
    117  CG        52.8070  -18.7000  -12.3850 C.3   435  LEU435      0.0022
    118  CD1       53.6180  -17.7150  -11.5520 C.3   435  LEU435      0.0001
    119  CD2       51.7840  -17.9610  -13.2380 C.3   435  LEU435      0.0001
@<TRIPOS>BOND
     1   111   109    1
     2   109   110    1
     3   109   106    1
     4   106   105    1
     5   106   107    1
     6    47    48    1
     7   112   107   am
     8   112   113    1
     9    51    48    1
    10    51    52    1
    11   116   113    1
    12   116   117    1
    13   119   117    1
    14   107   108    2
    15    48    49    1
    16    49    50    2
    17    52    53    1
    18   113   114    1
    19   117   118    1
    20   114   115    2
    21    43    45   ar
    22    43    41   ar
    23    40    41    1
    24    40    37    1
    25    45    46   ar
    26    41    42   ar
    27    53    54    1
    28    36    37    1
    29    26    25    2
    30    37    38    1
    31    31    30    2
    32    55    56    1
    33    46    44   ar
    34    42    44   ar
    35    38    39    2
    36    25    24    1
    37    25    28   am
    38    30    29    1
    39    29    28    1
    40    29    32    1
    41    35    33    1
    42    24    27    1
    43    24    23    1
    44    63    64    1
    45    56    59    1
    46    56    57    1
    47    67    64    1
    48    60    59    1
    49    60    61    1
    50    60    62    1
    51    64    65    1
    52    57    58    2
    53    32    33    1
    54    33    34    1
    55    74    73    1
    56    74    68    1
    57    65    68   am
    58    65    66    2
    59    73    72    1
    60    68    69    1
    61    16    15    1
    62     7     5    1
    63    20    19    2
    64     1     2    1
    65    72    69    1
    66    22    21    1
    67     5     2    1
    68     5     6    1
    69    69    70    1
    70    15    14    1
    71    19    18    1
    72     2     3    1
    73    78    77    2
    74    75    70   am
    75    75    76    1
    76    21    18    1
    77     3     4    2
    78    17    18    1
    79    70    71    2
    80    14    13    1
    81    77    76    1
    82    77    80   am
    83    76    79    1
    84    13    12    1
    85    84    81    1
    86    84    85    1
    87    81    80    1
    88    81    82    1
    89   104   103    1
    90    12     9    1
    91    86    85   ar
    92    86    88   ar
    93    85    87   ar
    94    91    82   am
    95    91    92    1
    96    82    83    2
    97    95    92    1
    98    95    96    1
    99   103   102    1
   100    88    90   ar
   101    11    10    2
   102    10     9    1
   103    92    93    1
   104    87    89   ar
   105     9     8    1
   106    94    93    2
   107    90    89   ar
   108   102   101    1
   109   101    98    1
   110    98    99    1
   111    98    97    1
   112    99   100    2
