@<TRIPOS>MOLECULE
tmp/5xa3B02.pdb
 127 117 0 0 0
SMALL
GASTEIGER

@<TRIPOS>ATOM
      1  N         69.3540  -21.4700   -0.5810 N.3    15  LEU15      -0.1245
      2  CA        69.0390  -21.1500   -1.9850 C.3    15  LEU15       0.1561
      3  C         69.2320  -22.3080   -2.9860 C.2    15  LEU15       0.2260
      4  O         68.4060  -22.4720   -3.8890 O.2    15  LEU15      -0.2867
      5  CB        69.8110  -19.9040   -2.4570 C.3    15  LEU15       0.0270
      6  CG        69.4720  -19.3590   -3.8480 C.3    15  LEU15       0.0019
      7  CD1       68.0010  -18.9730   -3.9330 C.3    15  LEU15       0.0001
      8  CD2       70.3630  -18.1730   -4.1870 C.3    15  LEU15       0.0001
      9  N         66.3050  -24.6450   -4.0810 N.3    18  LEU18      -0.1245
     10  CA        65.4440  -24.2500   -5.2000 C.3    18  LEU18       0.1561
     11  C         66.0830  -24.4870   -6.5740 C.2    18  LEU18       0.2260
     12  O         65.3780  -24.4250   -7.5870 O.2    18  LEU18      -0.2867
     13  CB        65.0130  -22.7860   -5.0580 C.3    18  LEU18       0.0270
     14  CG        64.3360  -22.4360   -3.7270 C.3    18  LEU18       0.0019
     15  CD1       64.0280  -20.9480   -3.6610 C.3    18  LEU18       0.0001
     16  CD2       63.0740  -23.2570   -3.4940 C.3    18  LEU18       0.0001
     17  N         59.8100  -28.2700   -1.5120 N.3    27  LEU27      -0.1245
     18  CA        59.3250  -27.5290   -0.3410 C.3    27  LEU27       0.1561
     19  C         58.2120  -28.2640    0.4120 C.2    27  LEU27       0.2260
     20  O         58.1320  -28.1630    1.6380 O.2    27  LEU27      -0.2867
     21  CB        58.8530  -26.1250   -0.7370 C.3    27  LEU27       0.0270
     22  CG        59.9480  -25.1540   -1.1910 C.3    27  LEU27       0.0019
     23  CD1       59.3600  -24.0270   -2.0270 C.3    27  LEU27       0.0001
     24  CD2       60.7180  -24.5960   -0.0020 C.3    27  LEU27       0.0001
     25  N         63.3680  -20.0850    5.7990 N.3    40  PHE40      -0.1241
     26  CA        64.0800  -20.2970    4.5400 C.3    40  PHE40       0.1605
     27  C         64.8760  -19.0440    4.1910 C.2    40  PHE40       0.2264
     28  O         64.2970  -17.9700    4.0220 O.2    40  PHE40      -0.2867
     29  CB        63.0960  -20.6340    3.4210 C.3    40  PHE40       0.0534
     30  CG        63.7480  -21.1800    2.1860 C.ar   40  PHE40      -0.0203
     31  CD1       64.2900  -20.3250    1.2330 C.ar   40  PHE40      -0.0042
     32  CD2       63.8160  -22.5490    1.9700 C.ar   40  PHE40      -0.0042
     33  CE1       64.8940  -20.8270    0.0910 C.ar   40  PHE40      -0.0003
     34  CE2       64.4140  -23.0570    0.8270 C.ar   40  PHE40      -0.0003
     35  CZ        64.9530  -22.1950   -0.1120 C.ar   40  PHE40      -0.0000
     36  N         68.0810  -17.0540    1.8930 N.3    42  ALA42      -0.1245
     37  CA        68.9820  -16.9280    0.7480 C.3    42  ALA42       0.1562
     38  C         69.9000  -15.7380    1.0460 C.2    42  ALA42       0.2260
     39  O         69.6680  -15.0260    2.0250 O.2    42  ALA42      -0.2867
     40  CB        68.1830  -16.7050   -0.5250 C.3    42  ALA42       0.0290
     41  N         68.1720  -12.2720    2.1420 N.3    45  ARG45      -0.1231
     42  CA        66.7100  -12.3700    2.2930 C.3    45  ARG45       0.1694
     43  C         66.2490  -13.6090    3.0660 C.2    45  ARG45       0.2592
     44  O         66.9430  -14.6290    3.1190 O.2    45  ARG45      -0.2718
     45  CB        66.0010  -12.3070    0.9310 C.3    45  ARG45       0.0321
     46  CG        66.4160  -13.3790   -0.0630 C.3    45  ARG45       0.0489
     47  CD        66.0780  -13.0010   -1.5030 C.3    45  ARG45       0.2205
     48  NE        64.6920  -12.5380   -1.6780 N.pl3  45  ARG45      -0.0865
     49  CZ        64.2840  -11.2640   -1.7690 C.cat  45  ARG45       0.5346
     50  NH1       65.1400  -10.2390   -1.7040 N.pl3  45  ARG45       0.1354
     51  NH2       62.9850  -11.0060   -1.9350 N.pl3  45  ARG45       0.1354
     52  N         65.0610  -13.4940    3.6550 N.am   46  VAL46      -0.1966
     53  CA        64.4850  -14.5360    4.5030 C.3    46  VAL46       0.1727
     54  C         62.9600  -14.5670    4.3680 C.2    46  VAL46       0.2616
     55  O         62.3190  -13.5240    4.2110 O.2    46  VAL46      -0.2715
     56  CB        64.8890  -14.3380    5.9890 C.3    46  VAL46       0.0290
     57  CG1       64.4690  -12.9650    6.5100 C.3    46  VAL46       0.0023
     58  CG2       64.3170  -15.4430    6.8730 C.3    46  VAL46       0.0023
     59  N         62.4000  -15.7740    4.4160 N.am   47  THR47      -0.1951
     60  CA        60.9540  -15.9740    4.5040 C.3    47  THR47       0.1897
     61  C         60.6410  -17.2330    5.3130 C.2    47  THR47       0.2313
     62  O         61.5440  -17.9900    5.6750 O.2    47  THR47      -0.2863
     63  CB        60.2930  -16.0480    3.1080 C.3    47  THR47       0.1794
     64  OG1       58.8660  -16.0300    3.2520 O.3    47  THR47      -0.2208
     65  CG2       60.7190  -17.3050    2.3460 C.3    47  THR47       0.0378
     66  N         57.9110  -20.5630    5.5050 N.3    49  TYR49      -0.1241
     67  CA        56.9010  -21.3670    4.8080 C.3    49  TYR49       0.1605
     68  C         55.8910  -21.9400    5.7900 C.2    49  TYR49       0.2264
     69  O         56.2690  -22.6720    6.7000 O.2    49  TYR49      -0.2867
     70  CB        57.5550  -22.4970    4.0110 C.3    49  TYR49       0.0534
     71  CG        58.1930  -22.0140    2.7340 C.ar   49  TYR49      -0.0201
     72  CD1       59.4890  -21.5010    2.7310 C.ar   49  TYR49      -0.0009
     73  CD2       57.4950  -22.0460    1.5280 C.ar   49  TYR49      -0.0009
     74  CE1       60.0750  -21.0450    1.5600 C.ar   49  TYR49       0.0417
     75  CE2       58.0730  -21.5910    0.3530 C.ar   49  TYR49       0.0417
     76  CZ        59.3630  -21.0920    0.3740 C.ar   49  TYR49       0.1957
     77  OH        59.9470  -20.6430   -0.7830 O.3    49  TYR49      -0.2866
     78  N         56.4840  -12.0520   -4.1580 N.3    70  SER70      -0.1202
     79  CA        57.6230  -12.9540   -4.0260 C.3    70  SER70       0.2020
     80  C         58.6990  -12.5650   -5.0390 C.2    70  SER70       0.2619
     81  O         58.4530  -11.7510   -5.9370 O.2    70  SER70      -0.2717
     82  CB        57.1860  -14.4030   -4.2530 C.3    70  SER70       0.2103
     83  OG        56.7840  -14.6150   -5.5950 O.3    70  SER70      -0.2182
     84  N         59.8890  -13.1380   -4.8930 N.am   71  GLN71      -0.1965
     85  CA        60.9790  -12.8680   -5.8330 C.3    71  GLN71       0.1733
     86  C         60.5910  -13.2270   -7.2730 C.2    71  GLN71       0.2616
     87  O         60.9560  -12.5090   -8.2050 O.2    71  GLN71      -0.2715
     88  CB        62.2620  -13.5980   -5.4120 C.3    71  GLN71       0.0408
     89  CG        63.5030  -13.2280   -6.2190 C.3    71  GLN71       0.0908
     90  CD        63.8740  -11.7600   -6.1090 C.2    71  GLN71       0.2608
     91  OE1       63.6580  -10.9790   -7.0420 O.2    71  GLN71      -0.2717
     92  NE2       64.4230  -11.3730   -4.9630 N.am   71  GLN71      -0.0878
     93  N         59.8420  -14.3170   -7.4430 N.am   72  ALA72      -0.1977
     94  CA        59.3410  -14.7260   -8.7600 C.3    72  ALA72       0.1597
     95  C         58.3670  -13.7030   -9.3440 C.2    72  ALA72       0.2287
     96  O         58.4880  -13.3380  -10.5170 O.2    72  ALA72      -0.2864
     97  CB        58.6810  -16.0960   -8.6850 C.3    72  ALA72       0.0319
     98  N         65.7000  -16.9040  -10.0940 N.3   186  LEU186     -0.1245
     99  CA        65.6880  -17.2680   -8.6700 C.3   186  LEU186      0.1561
    100  C         66.9570  -18.0110   -8.2520 C.2   186  LEU186      0.2260
    101  O         67.5150  -17.7340   -7.1900 O.2   186  LEU186     -0.2867
    102  CB        64.4810  -18.1570   -8.3390 C.3   186  LEU186      0.0270
    103  CG        63.0700  -17.5880   -8.4900 C.3   186  LEU186      0.0019
    104  CD1       62.0470  -18.6620   -8.1600 C.3   186  LEU186      0.0001
    105  CD2       62.8770  -16.3730   -7.6000 C.3   186  LEU186      0.0001
    106  N         51.7310  -21.5930   -4.3870 N.3   328  ALA328     -0.1245
    107  CA        52.2610  -20.7580   -3.3090 C.3   328  ALA328      0.1562
    108  C         51.9100  -19.2940   -3.5230 C.2   328  ALA328      0.2260
    109  O         51.8840  -18.8240   -4.6600 O.2   328  ALA328     -0.2867
    110  CB        53.7690  -20.9290   -3.2000 C.3   328  ALA328      0.0290
    111  N         58.3880  -11.6360    5.9990 N.3   350  GLU350     -0.1245
    112  CA        57.6670  -12.3270    4.9340 C.3   350  GLU350      0.1567
    113  C         57.2120  -13.7300    5.3310 C.2   350  GLU350      0.2260
    114  O         57.8790  -14.4120    6.1130 O.2   350  GLU350     -0.2867
    115  CB        58.5310  -12.3980    3.6730 C.3   350  GLU350      0.0388
    116  CG        58.8510  -11.0330    3.0730 C.3   350  GLU350      0.1160
    117  CD        59.7020  -11.1020    1.8140 C.2   350  GLU350      0.3649
    118  OE1       59.7040  -12.1480    1.1270 O.co2 350  GLU350     -0.2457
    119  OE2       60.3650  -10.0930    1.5010 O.co2 350  GLU350     -0.2457
    120  N         55.4090  -17.3500    3.3180 N.3   352  MET352     -0.1245
    121  CA        54.9320  -18.0660    2.1310 C.3   352  MET352      0.1570
    122  C         53.8850  -19.0780    2.5810 C.2   352  MET352      0.2261
    123  O         54.1180  -19.8290    3.5280 O.2   352  MET352     -0.2867
    124  CB        56.0690  -18.8190    1.4330 C.3   352  MET352      0.0387
    125  CG        57.1490  -17.9530    0.8050 C.3   352  MET352      0.0595
    126  SD        56.6280  -16.9430   -0.5940 S.3   352  MET352     -0.1393
    127  CE        56.0190  -18.1780   -1.7410 C.3   352  MET352      0.0692
@<TRIPOS>BOND
     1    96    95    2
     2    98    99    1
     3    95    94    1
     4    94    97    1
     5    94    93    1
     6    99   102    1
     7    99   100    1
     8   103   102    1
     9   103   104    1
    10   103   105    1
    11   100   101    2
    12    87    86    2
    13    12    11    2
    14    93    86   am
    15    86    85    1
    16    91    90    2
    17    11    10    1
    18    89    90    1
    19    89    88    1
    20    90    92   am
    21    81    80    2
    22    85    88    1
    23    85    84    1
    24    83    82    1
    25    10    13    1
    26    10     9    1
    27    13    14    1
    28    80    84   am
    29    80    79    1
    30   109   108    2
    31   106   107    1
    32    82    79    1
    33     8     6    1
    34    78    79    1
    35     7     6    1
    36     4     3    2
    37     6     5    1
    38    14    15    1
    39    14    16    1
    40   108   107    1
    41   107   110    1
    42     3     2    1
    43     5     2    1
    44    23    22    1
    45     2     1    1
    46    51    49    1
    47    49    50    1
    48    49    48    2
    49   127   126    1
    50    48    47    1
    51    17    18    1
    52    47    46    1
    53    22    21    1
    54    22    24    1
    55    77    76    1
    56    21    18    1
    57   126   125    1
    58    40    37    1
    59    18    19    1
    60    35    33   ar
    61    35    34   ar
    62    46    45    1
    63    33    31   ar
    64    75    76   ar
    65    75    73   ar
    66    76    74   ar
    67    19    20    2
    68    37    38    1
    69    37    36    1
    70   125   124    1
    71    34    32   ar
    72    45    42    1
    73    38    39    2
    74   118   117   ar
    75    31    30   ar
    76   124   121    1
    77   119   117   ar
    78    73    71   ar
    79    74    72   ar
    80   117   116    1
    81    32    30   ar
    82   121   122    1
    83   121   120    1
    84    41    42    1
    85    30    29    1
    86    42    43    1
    87    65    63    1
    88   122   123    2
    89    72    71   ar
    90    71    70    1
    91    43    44    2
    92    43    52   am
    93   116   115    1
    94    63    64    1
    95    63    60    1
    96    29    26    1
    97    52    53    1
    98   115   112    1
    99    70    67    1
   100    28    27    2
   101    27    26    1
   102    55    54    2
   103    54    59   am
   104    54    53    1
   105    59    60    1
   106    53    56    1
   107    60    61    1
   108    26    25    1
   109    67    66    1
   110    67    68    1
   111   112   113    1
   112   112   111    1
   113    61    62    2
   114   113   114    2
   115    68    69    2
   116    56    57    1
   117    56    58    1
