@<TRIPOS>MOLECULE
tmp/5xa4B00.pdb
 185 183 0 0 0
SMALL
GASTEIGER

@<TRIPOS>ATOM
      1  N        -47.0620    8.8370   -1.2850 N.3    32  HIS32      -0.1226
      2  CA       -48.0830    9.8560   -1.0930 C.3    32  HIS32       0.1752
      3  C        -48.0880   10.1540    0.4050 C.2    32  HIS32       0.2596
      4  O        -48.8180    9.5340    1.1780 O.2    32  HIS32      -0.2718
      5  CB       -49.4300    9.3310   -1.5980 C.3    32  HIS32       0.0759
      6  CG       -50.5360   10.3340   -1.5550 C.ar   32  HIS32       0.0818
      7  ND1      -51.1220   10.8520   -2.6880 N.ar   32  HIS32      -0.2268
      8  CD2      -51.1810   10.8950   -0.5080 C.ar   32  HIS32       0.1154
      9  CE1      -52.0760   11.6970   -2.3410 C.ar   32  HIS32       0.1986
     10  NE2      -52.1360   11.7330   -1.0230 N.ar   32  HIS32      -0.2212
     11  N        -47.2220   11.0890    0.7990 N.am   33  ARG33      -0.1966
     12  CA       -46.9920   11.4480    2.2010 C.3    33  ARG33       0.1714
     13  C        -46.7890   12.9670    2.2940 C.2    33  ARG33       0.2458
     14  O        -46.5350   13.6020    1.2710 O.2    33  ARG33      -0.2730
     15  CB       -45.7450   10.7360    2.7240 C.3    33  ARG33       0.0347
     16  CG       -45.8960    9.2330    2.8420 C.3    33  ARG33       0.0492
     17  CD       -44.7840    8.6130    3.6710 C.3    33  ARG33       0.2205
     18  NE       -44.9640    7.1640    3.7820 N.pl3  33  ARG33      -0.0865
     19  CZ       -44.6220    6.2660    2.8540 C.cat  33  ARG33       0.5346
     20  NH1      -44.0480    6.6330    1.7080 N.pl3  33  ARG33       0.1354
     21  NH2      -44.8540    4.9730    3.0800 N.pl3  33  ARG33       0.1354
     22  N        -46.8910   13.5460    3.5120 N.am   34  PRO34      -0.2716
     23  CA       -46.7360   15.0040    3.6510 C.3    34  PRO34       0.1536
     24  C        -45.4260   15.5270    3.0580 C.2    34  PRO34       0.2599
     25  O        -44.3530   15.0090    3.3720 O.2    34  PRO34      -0.2715
     26  CB       -46.7720   15.2180    5.1670 C.3    34  PRO34       0.0310
     27  CG       -47.5860   14.0830    5.6790 C.3    34  PRO34       0.0237
     28  CD       -47.2220   12.9170    4.8030 C.3    34  PRO34       0.0939
     29  N        -45.5420   16.5070    2.1640 N.am   35  GLY35      -0.1955
     30  CA       -44.3880   17.0790    1.4630 C.3    35  GLY35       0.1869
     31  C        -43.9050   16.3260    0.2300 C.2    35  GLY35       0.2309
     32  O        -43.0590   16.8400   -0.5020 O.2    35  GLY35      -0.2863
     33  N        -46.2480   14.6680   -2.0570 N.3    37  VAL37      -0.1245
     34  CA       -47.3020   14.5660   -3.0650 C.3    37  VAL37       0.1561
     35  C        -47.0320   15.5770   -4.1760 C.2    37  VAL37       0.2260
     36  O        -46.9360   16.7790   -3.9210 O.2    37  VAL37      -0.2867
     37  CB       -48.7070   14.7690   -2.4550 C.3    37  VAL37       0.0252
     38  CG1      -49.7890   14.7410   -3.5280 C.3    37  VAL37       0.0019
     39  CG2      -48.9780   13.6790   -1.4320 C.3    37  VAL37       0.0019
     40  N        -50.8140   11.6220   -6.9960 N.3    43  THR43      -0.1203
     41  CA       -52.0540   12.0830   -6.3550 C.3    43  THR43       0.1994
     42  C        -53.1980   11.0800   -6.5030 C.2    43  THR43       0.2618
     43  O        -53.9800   10.8990   -5.5700 O.2    43  THR43      -0.2717
     44  CB       -52.5500   13.4410   -6.9060 C.3    43  THR43       0.1784
     45  OG1      -52.8640   13.3320   -8.2980 O.3    43  THR43      -0.2211
     46  CG2      -51.5100   14.5320   -6.6940 C.3    43  THR43       0.0376
     47  N        -53.3000   10.4580   -7.6750 N.am   44  GLY44      -0.1942
     48  CA       -54.5080    9.7370   -8.0700 C.3    44  GLY44       0.2014
     49  C        -55.5760   10.7330   -8.4680 C.2    44  GLY44       0.2639
     50  O        -55.2840   11.9270   -8.6540 O.2    44  GLY44      -0.2714
     51  N        -56.8110   10.2710   -8.6030 N.am   45  GLY45      -0.1939
     52  CA       -57.9160   11.1480   -8.9440 C.3    45  GLY45       0.2014
     53  C        -59.2620   10.5520   -8.6050 C.2    45  GLY45       0.2638
     54  O        -59.3950    9.3240   -8.4840 O.2    45  GLY45      -0.2714
     55  N        -60.2560   11.4220   -8.4660 N.am   46  PHE46      -0.1973
     56  CA       -61.6330   11.0400   -8.1920 C.3    46  PHE46       0.1639
     57  C        -62.5170   11.2200   -9.4120 C.2    46  PHE46       0.2290
     58  O        -62.3080   12.1410  -10.2220 O.2    46  PHE46      -0.2864
     59  CB       -62.2260   11.8880   -7.0630 C.3    46  PHE46       0.0560
     60  CG       -61.6520   11.5970   -5.7080 C.ar   46  PHE46      -0.0200
     61  CD1      -62.1970   10.5900   -4.9130 C.ar   46  PHE46      -0.0042
     62  CD2      -60.5760   12.3290   -5.2160 C.ar   46  PHE46      -0.0042
     63  CE1      -61.6760   10.3260   -3.6480 C.ar   46  PHE46      -0.0003
     64  CE2      -60.0500   12.0550   -3.9570 C.ar   46  PHE46      -0.0003
     65  CZ       -60.6000   11.0490   -3.1850 C.ar   46  PHE46      -0.0000
     66  N        -63.9320   17.1050   -7.5430 N.3    50  PRO50      -0.2102
     67  CA       -62.4860   17.0280   -7.3240 C.3    50  PRO50       0.1504
     68  C        -62.0060   16.2540   -6.0870 C.2    50  PRO50       0.2575
     69  O        -60.9140   15.6920   -6.1210 O.2    50  PRO50      -0.2718
     70  CB       -62.0850   18.5070   -7.1960 C.3    50  PRO50       0.0282
     71  CG       -63.3150   19.1910   -6.7410 C.3    50  PRO50       0.0208
     72  CD       -64.4280   18.4910   -7.4500 C.3    50  PRO50       0.0893
     73  N        -62.7960   16.2610   -5.0130 N.am   51  PHE51      -0.1977
     74  CA       -62.3770   15.6390   -3.7410 C.3    51  PHE51       0.1639
     75  C        -63.3040   14.5140   -3.2980 C.2    51  PHE51       0.2290
     76  O        -63.1710   13.9900   -2.1790 O.2    51  PHE51      -0.2864
     77  CB       -62.2930   16.7110   -2.6550 C.3    51  PHE51       0.0560
     78  CG       -61.1950   17.7000   -2.8940 C.ar   51  PHE51      -0.0200
     79  CD1      -59.8790   17.3590   -2.6300 C.ar   51  PHE51      -0.0042
     80  CD2      -61.4670   18.9640   -3.4180 C.ar   51  PHE51      -0.0042
     81  CE1      -58.8490   18.2600   -2.8660 C.ar   51  PHE51      -0.0003
     82  CE2      -60.4410   19.8630   -3.6570 C.ar   51  PHE51      -0.0003
     83  CZ       -59.1360   19.5070   -3.3880 C.ar   51  PHE51      -0.0000
     84  N        -62.1600    6.3930   -6.7490 N.3    56  TYR56      -0.1241
     85  CA       -60.8290    6.9550   -6.5820 C.3    56  TYR56       0.1605
     86  C        -59.8910    5.9730   -7.2490 C.2    56  TYR56       0.2264
     87  O        -59.9890    4.7600   -7.0030 O.2    56  TYR56      -0.2867
     88  CB       -60.4440    7.1380   -5.1050 C.3    56  TYR56       0.0534
     89  CG       -58.9860    7.5220   -4.9530 C.ar   56  TYR56      -0.0201
     90  CD1      -58.5460    8.8110   -5.2940 C.ar   56  TYR56      -0.0009
     91  CD2      -58.0290    6.5920   -4.5510 C.ar   56  TYR56      -0.0009
     92  CE1      -57.2110    9.1600   -5.2030 C.ar   56  TYR56       0.0417
     93  CE2      -56.6920    6.9380   -4.4420 C.ar   56  TYR56       0.0417
     94  CZ       -56.2860    8.2240   -4.7780 C.ar   56  TYR56       0.1957
     95  OH       -54.9500    8.5370   -4.6730 O.3    56  TYR56      -0.2866
     96  N        -62.5710   12.9430    0.5130 N.3    75  TYR75      -0.1241
     97  CA       -61.2310   13.2210    1.0320 C.3    75  TYR75       0.1605
     98  C        -61.1900   14.5930    1.6800 C.2    75  TYR75       0.2264
     99  O        -61.6140   15.5900    1.0670 O.2    75  TYR75      -0.2867
    100  CB       -60.2090   13.1560   -0.0880 C.3    75  TYR75       0.0534
    101  CG       -58.7780   13.3070    0.3470 C.ar   75  TYR75      -0.0201
    102  CD1      -58.1840   12.3790    1.1970 C.ar   75  TYR75      -0.0009
    103  CD2      -57.9930   14.3730   -0.1130 C.ar   75  TYR75      -0.0009
    104  CE1      -56.8630   12.4980    1.5840 C.ar   75  TYR75       0.0417
    105  CE2      -56.6780   14.4990    0.2700 C.ar   75  TYR75       0.0417
    106  CZ       -56.1150   13.5660    1.1220 C.ar   75  TYR75       0.1957
    107  OH       -54.7850   13.6690    1.4690 O.3    75  TYR75      -0.2866
    108  N        -58.4480   16.4160    2.6330 N.3    77  LEU77      -0.1231
    109  CA       -57.2280   17.2010    2.3560 C.3    77  LEU77       0.1693
    110  C        -56.7350   17.9030    3.6330 C.2    77  LEU77       0.2592
    111  O        -56.3480   17.2220    4.5770 O.2    77  LEU77      -0.2718
    112  CB       -57.3890   18.1400    1.1360 C.3    77  LEU77       0.0284
    113  CG       -56.1140   18.8200    0.6040 C.3    77  LEU77       0.0019
    114  CD1      -55.1570   17.8220   -0.0310 C.3    77  LEU77       0.0001
    115  CD2      -56.4740   19.9100   -0.4000 C.3    77  LEU77       0.0001
    116  N        -56.7720   19.2390    3.7170 N.am   78  PHE78      -0.1976
    117  CA       -56.1720   19.9230    4.8720 C.3    78  PHE78       0.1639
    118  C        -57.0810   20.0640    6.0840 C.2    78  PHE78       0.2290
    119  O        -56.6160   20.4670    7.1490 O.2    78  PHE78      -0.2864
    120  CB       -55.6610   21.3200    4.4800 C.3    78  PHE78       0.0560
    121  CG       -54.7920   21.3220    3.2570 C.ar   78  PHE78      -0.0200
    122  CD1      -53.6960   20.4730    3.1630 C.ar   78  PHE78      -0.0042
    123  CD2      -55.0740   22.1700    2.1910 C.ar   78  PHE78      -0.0042
    124  CE1      -52.8920   20.4720    2.0320 C.ar   78  PHE78      -0.0003
    125  CE2      -54.2770   22.1740    1.0570 C.ar   78  PHE78      -0.0003
    126  CZ       -53.1860   21.3180    0.9790 C.ar   78  PHE78      -0.0000
    127  N        -56.3000   14.7540    5.7190 N.3    83  HIS83      -0.1241
    128  CA       -55.8740   13.6560    4.8690 C.3    83  HIS83       0.1621
    129  C        -56.5750   12.3630    5.2230 C.2    83  HIS83       0.2264
    130  O        -55.9280   11.3320    5.3930 O.2    83  HIS83      -0.2867
    131  CB       -54.3490   13.5430    4.8940 C.3    83  HIS83       0.0745
    132  CG       -53.6760   14.8040    4.4480 C.ar   83  HIS83       0.0817
    133  ND1      -53.7800   15.2750    3.1580 N.ar   83  HIS83      -0.2268
    134  CD2      -52.9310   15.7090    5.1270 C.ar   83  HIS83       0.1154
    135  CE1      -53.1080   16.4110    3.0580 C.ar   83  HIS83       0.1986
    136  NE2      -52.5900   16.6950    4.2390 N.ar   83  HIS83      -0.2212
    137  N        -59.4190    9.7330    3.8790 N.3    85  LEU85      -0.1245
    138  CA       -60.3010    9.1940    2.8610 C.3    85  LEU85       0.1561
    139  C        -61.3860    8.3800    3.5620 C.2    85  LEU85       0.2260
    140  O        -61.0800    7.3740    4.2130 O.2    85  LEU85      -0.2867
    141  CB       -59.5290    8.3120    1.8920 C.3    85  LEU85       0.0270
    142  CG       -60.3880    7.8110    0.7370 C.3    85  LEU85       0.0019
    143  CD1      -60.5540    8.8830   -0.3250 C.3    85  LEU85       0.0001
    144  CD2      -59.7740    6.5640    0.1370 C.3    85  LEU85       0.0001
    145  N        -58.1730    9.0380   10.0580 N.3   129  ARG129     -0.1245
    146  CA       -57.3140    8.0210    9.4480 C.3   129  ARG129      0.1563
    147  C        -57.3560    6.6720   10.1710 C.2   129  ARG129      0.2260
    148  O        -56.7500    5.7120    9.7030 O.2   129  ARG129     -0.2867
    149  CB       -55.8810    8.5290    9.3600 C.3   129  ARG129      0.0307
    150  CG       -55.7230    9.8180    8.5640 C.3   129  ARG129      0.0489
    151  CD       -54.2510   10.1680    8.4560 C.3   129  ARG129      0.2205
    152  NE       -54.0580   11.5980    8.2670 N.pl3 129  ARG129     -0.0865
    153  CZ       -52.9550   12.2740    8.5900 C.cat 129  ARG129      0.5346
    154  NH1      -51.9070   11.6550    9.1250 N.pl3 129  ARG129      0.1354
    155  NH2      -52.8950   13.5870    8.3730 N.pl3 129  ARG129      0.1354
    156  N        -60.1400    4.3360    5.0640 N.3   134  HIS134     -0.1241
    157  CA       -58.8550    5.0030    4.9280 C.3   134  HIS134      0.1621
    158  C        -57.7060    3.9950    4.9480 C.2   134  HIS134      0.2264
    159  O        -56.8260    4.0230    4.0940 O.2   134  HIS134     -0.2867
    160  CB       -58.6430    6.0270    6.0330 C.3   134  HIS134      0.0745
    161  CG       -57.3670    6.7740    5.8730 C.ar  134  HIS134      0.0817
    162  ND1      -57.2810    7.9430    5.1480 N.ar  134  HIS134     -0.2268
    163  CD2      -56.1100    6.4730    6.2630 C.ar  134  HIS134      0.1154
    164  CE1      -56.0250    8.3410    5.1260 C.ar  134  HIS134      0.1986
    165  NE2      -55.2920    7.4700    5.7940 N.ar  134  HIS134     -0.2212
    166  N        -55.3910    3.6430    1.7140 N.3   138  TYR138     -0.1241
    167  CA       -54.0230    4.1490    1.8910 C.3   138  TYR138      0.1605
    168  C        -53.0030    3.0150    1.8990 C.2   138  TYR138      0.2264
    169  O        -51.8840    3.1690    1.3930 O.2   138  TYR138     -0.2867
    170  CB       -53.8420    5.0320    3.1310 C.3   138  TYR138      0.0534
    171  CG       -52.4400    5.6070    3.1470 C.ar  138  TYR138     -0.0201
    172  CD1      -52.0410    6.5140    2.1660 C.ar  138  TYR138     -0.0009
    173  CD2      -51.4910    5.1750    4.0680 C.ar  138  TYR138     -0.0009
    174  CE1      -50.7450    7.0090    2.1320 C.ar  138  TYR138      0.0417
    175  CE2      -50.1910    5.6730    4.0470 C.ar  138  TYR138      0.0417
    176  CZ       -49.8340    6.5890    3.0740 C.ar  138  TYR138      0.1957
    177  OH       -48.5460    7.0930    3.0330 O.3   138  TYR138     -0.2866
    178  N        -52.1720    2.3850   -1.6420 N.3   141  MET141     -0.1245
    179  CA       -51.3530    3.4900   -2.1460 C.3   141  MET141      0.1570
    180  C        -49.8930    3.3580   -1.7170 C.2   141  MET141      0.2261
    181  O        -49.0040    3.8090   -2.4440 O.2   141  MET141     -0.2867
    182  CB       -51.9090    4.8240   -1.6400 C.3   141  MET141      0.0387
    183  CG       -53.3260    5.1340   -2.1010 C.3   141  MET141      0.0595
    184  SD       -54.0700    6.5110   -1.2130 S.3   141  MET141     -0.1393
    185  CE       -53.0800    7.8790   -1.8140 C.3   141  MET141      0.0692
@<TRIPOS>BOND
     1    58    57    2
     2    57    56    1
     3    52    53    1
     4    52    51    1
     5    50    49    2
     6    53    54    2
     7    53    55   am
     8    51    49   am
     9    49    48    1
    10    55    56    1
    11    45    44    1
    12    56    59    1
    13    48    47    1
    14    47    42   am
    15    66    72    1
    16    66    67    1
    17    72    71    1
    18    67    70    1
    19    67    68    1
    20    86    87    2
    21    86    85    1
    22    70    71    1
    23    59    60    1
    24    40    41    1
    25    44    46    1
    26    44    41    1
    27    84    85    1
    28    85    88    1
    29    42    41    1
    30    42    43    2
    31    69    68    2
    32    68    73   am
    33    60    62   ar
    34    60    61   ar
    35    90    92   ar
    36    90    89   ar
    37    62    64   ar
    38    92    94   ar
    39    88    89    1
    40    73    74    1
    41    89    91   ar
    42    61    63   ar
    43    94    95    1
    44    94    93   ar
    45    91    93   ar
    46    35    36    2
    47    35    34    1
    48    64    65   ar
    49    74    75    1
    50    74    77    1
    51    82    80   ar
    52    82    83   ar
    53    63    65   ar
    54    38    37    1
    55    80    78   ar
    56    83    81   ar
    57    75    76    2
    58    34    37    1
    59    34    33    1
    60    78    77    1
    61    78    79   ar
    62    81    79   ar
    63     7     9   ar
    64     7     6   ar
    65    37    39    1
    66   181   180    2
    67     9    10   ar
    68   179   180    1
    69   179   178    1
    70   179   182    1
    71   183   182    1
    72   183   184    1
    73   185   184    1
    74     5     6    1
    75     5     2    1
    76     6     8   ar
    77     1     2    1
    78     2     3    1
    79    10     8   ar
    80    32    31    2
    81   115   113    1
    82   143   142    1
    83   103   105   ar
    84   103   101   ar
    85   100   101    1
    86   100    97    1
    87   114   113    1
    88   144   142    1
    89    31    30    1
    90   105   106   ar
    91   101   102   ar
    92     3    11   am
    93     3     4    2
    94    96    97    1
    95   113   112    1
    96   142   141    1
    97    11    12    1
    98   126   125   ar
    99   126   124   ar
   100    97    98    1
   101   125   123   ar
   102    99    98    2
   103   106   107    1
   104   106   104   ar
   105   112   109    1
   106   102   104   ar
   107    14    13    2
   108   169   168    2
   109    30    29    1
   110    20    19    1
   111   166   167    1
   112   167   168    1
   113   167   170    1
   114   141   138    1
   115   124   122   ar
   116   174   172   ar
   117   174   176   ar
   118    29    24   am
   119   172   171   ar
   120   123   121   ar
   121    12    13    1
   122    12    15    1
   123    13    22   am
   124   109   108    1
   125   109   110    1
   126    15    16    1
   127    16    17    1
   128    19    21    1
   129    19    18    2
   130   138   139    1
   131   138   137    1
   132   177   176    1
   133    24    25    2
   134    24    23    1
   135   135   133   ar
   136   135   136   ar
   137   176   175   ar
   138   170   171    1
   139   171   173   ar
   140   133   132   ar
   141   122   121   ar
   142   121   120    1
   143    22    23    1
   144    22    28    1
   145   139   140    2
   146   110   116   am
   147   110   111    2
   148    23    26    1
   149    17    18    1
   150   116   117    1
   151   175   173   ar
   152   159   158    2
   153   136   134   ar
   154   132   131    1
   155   132   134   ar
   156   120   117    1
   157    28    27    1
   158   128   131    1
   159   128   129    1
   160   128   127    1
   161   117   118    1
   162   157   158    1
   163   157   156    1
   164   157   160    1
   165   164   162   ar
   166   164   165   ar
   167   162   161   ar
   168    26    27    1
   169   129   130    2
   170   165   163   ar
   171   161   160    1
   172   161   163   ar
   173   118   119    2
   174   152   151    1
   175   152   153    2
   176   155   153    1
   177   151   150    1
   178   150   149    1
   179   153   154    1
   180   149   146    1
   181   146   145    1
   182   146   147    1
   183   148   147    2
