@<TRIPOS>MOLECULE
tmp/5xa4A00.pdb
 170 166 0 0 0
SMALL
GASTEIGER

@<TRIPOS>ATOM
      1  N        -82.5920   32.8020    8.3140 N.3    32  HIS32      -0.1226
      2  CA       -82.6180   32.0390    9.5510 C.3    32  HIS32       0.1752
      3  C        -82.5400   33.0770   10.6630 C.2    32  HIS32       0.2596
      4  O        -81.4710   33.5200   11.0370 O.2    32  HIS32      -0.2718
      5  CB       -81.4320   31.0890    9.5450 C.3    32  HIS32       0.0759
      6  CG       -81.3410   30.2160   10.7490 C.ar   32  HIS32       0.0818
      7  ND1      -81.4620   28.8450   10.6830 N.ar   32  HIS32      -0.2268
      8  CD2      -81.1100   30.5200   12.0460 C.ar   32  HIS32       0.1154
      9  CE1      -81.3060   28.3440   11.8960 C.ar   32  HIS32       0.1986
     10  NE2      -81.1130   29.3380   12.7430 N.ar   32  HIS32      -0.2212
     11  N        -83.7030   33.4740   11.1720 N.am   33  ARG33      -0.1966
     12  CA       -83.8520   34.6130   12.0760 C.3    33  ARG33       0.1714
     13  C        -85.0560   34.3510   12.9430 C.2    33  ARG33       0.2458
     14  O        -85.8980   33.5280   12.5900 O.2    33  ARG33      -0.2730
     15  CB       -84.1240   35.9020   11.2800 C.3    33  ARG33       0.0347
     16  CG       -82.9600   36.4810   10.5350 C.3    33  ARG33       0.0492
     17  CD       -83.3330   37.8020    9.8650 C.3    33  ARG33       0.2205
     18  NE       -82.1110   38.3230    9.3010 N.pl3  33  ARG33      -0.0865
     19  CZ       -81.6910   38.1500    8.0440 C.cat  33  ARG33       0.5346
     20  NH1      -82.4460   37.5620    7.1260 N.pl3  33  ARG33       0.1354
     21  NH2      -80.5070   38.6330    7.6920 N.pl3  33  ARG33       0.1354
     22  N        -85.1790   35.0940   14.0610 N.am   34  PRO34      -0.2716
     23  CA       -86.3260   34.8820   14.9330 C.3    34  PRO34       0.1536
     24  C        -87.6550   34.9790   14.2100 C.2    34  PRO34       0.2599
     25  O        -87.8730   35.9050   13.4090 O.2    34  PRO34      -0.2715
     26  CB       -86.1740   36.0010   15.9600 C.3    34  PRO34       0.0310
     27  CG       -84.7130   36.2110   16.0660 C.3    34  PRO34       0.0237
     28  CD       -84.2230   36.0480   14.6550 C.3    34  PRO34       0.0939
     29  N        -88.5230   34.0050   14.4690 N.am   35  GLY35      -0.1955
     30  CA       -89.8150   33.9180   13.8330 C.3    35  GLY35       0.1869
     31  C        -89.8100   33.3400   12.4350 C.2    35  GLY35       0.2309
     32  O        -90.8800   33.1390   11.8580 O.2    35  GLY35      -0.2863
     33  N        -87.6370   30.5690   11.3840 N.3    37  VAL37      -0.1245
     34  CA       -87.2210   29.1630   11.3190 C.3    37  VAL37       0.1561
     35  C        -88.4320   28.3670   11.7620 C.2    37  VAL37       0.2260
     36  O        -88.5860   28.0170   12.9420 O.2    37  VAL37      -0.2867
     37  CB       -85.9640   28.8800   12.1560 C.3    37  VAL37       0.0252
     38  CG1      -85.4720   27.4580   11.8850 C.3    37  VAL37       0.0019
     39  CG2      -84.8670   29.8630   11.8010 C.3    37  VAL37       0.0019
     40  N        -82.8010   25.4080    8.3100 N.3    43  THR43      -0.1218
     41  CA       -82.1250   25.0860    9.5550 C.3    43  THR43       0.1862
     42  C        -80.6360   24.7810    9.4040 C.2    43  THR43       0.2287
     43  O        -79.8610   25.1150   10.2950 O.2    43  THR43      -0.2866
     44  CB       -82.7780   23.8590   10.2130 C.3    43  THR43       0.1770
     45  OG1      -82.7430   22.7380    9.3390 O.3    43  THR43      -0.2211
     46  CG2      -84.2150   24.1520   10.5900 C.3    43  THR43       0.0375
     47  N        -76.4740   19.3120   11.9260 N.3    46  PHE46      -0.1241
     48  CA       -75.2450   18.9330   12.6110 C.3    46  PHE46       0.1605
     49  C        -74.9120   17.4630   12.4110 C.2    46  PHE46       0.2264
     50  O        -75.8060   16.6060   12.3130 O.2    46  PHE46      -0.2867
     51  CB       -75.3610   19.1710   14.1170 C.3    46  PHE46       0.0534
     52  CG       -75.3910   20.6170   14.5020 C.ar   46  PHE46      -0.0203
     53  CD1      -74.2180   21.3070   14.7270 C.ar   46  PHE46      -0.0042
     54  CD2      -76.6000   21.2870   14.6580 C.ar   46  PHE46      -0.0042
     55  CE1      -74.2440   22.6590   15.0710 C.ar   46  PHE46      -0.0003
     56  CE2      -76.6250   22.6310   14.9980 C.ar   46  PHE46      -0.0003
     57  CZ       -75.4550   23.3040   15.2170 C.ar   46  PHE46      -0.0000
     58  N        -77.8780   18.9900   18.3540 N.3    51  PHE51      -0.1241
     59  CA       -77.5350   20.4270   18.4990 C.3    51  PHE51       0.1605
     60  C        -76.0480   20.6700   18.6600 C.2    51  PHE51       0.2264
     61  O        -75.6420   21.7730   19.0290 O.2    51  PHE51      -0.2867
     62  CB       -78.2880   21.0400   19.6900 C.3    51  PHE51       0.0534
     63  CG       -79.7660   20.7900   19.6450 C.ar   51  PHE51      -0.0203
     64  CD1      -80.5400   21.3350   18.6450 C.ar   51  PHE51      -0.0042
     65  CD2      -80.3730   19.9880   20.5890 C.ar   51  PHE51      -0.0042
     66  CE1      -81.9050   21.0700   18.5810 C.ar   51  PHE51      -0.0003
     67  CE2      -81.7340   19.7340   20.5340 C.ar   51  PHE51      -0.0003
     68  CZ       -82.4880   20.2650   19.5250 C.ar   51  PHE51      -0.0000
     69  N        -71.2760   21.4270   11.0490 N.3    56  TYR56      -0.1241
     70  CA       -72.5670   22.0780   10.8150 C.3    56  TYR56       0.1605
     71  C        -72.5690   22.4390    9.3400 C.2    56  TYR56       0.2264
     72  O        -71.5930   23.0210    8.8570 O.2    56  TYR56      -0.2867
     73  CB       -72.7390   23.3450   11.6650 C.3    56  TYR56       0.0534
     74  CG       -73.9750   24.1190   11.2620 C.ar   56  TYR56      -0.0201
     75  CD1      -75.2510   23.6520   11.5780 C.ar   56  TYR56      -0.0009
     76  CD2      -73.8770   25.2790   10.4880 C.ar   56  TYR56      -0.0009
     77  CE1      -76.3910   24.3350   11.1630 C.ar   56  TYR56       0.0417
     78  CE2      -75.0040   25.9670   10.0700 C.ar   56  TYR56       0.0417
     79  CZ       -76.2550   25.4890   10.4050 C.ar   56  TYR56       0.1957
     80  OH       -77.3570   26.1860    9.9700 O.3    56  TYR56      -0.2866
     81  N        -74.7820   24.4310   19.5930 N.3    75  TYR75      -0.1241
     82  CA       -75.8570   25.4140   19.4450 C.3    75  TYR75       0.1605
     83  C        -76.7210   25.4170   20.6770 C.2    75  TYR75       0.2264
     84  O        -77.1960   24.3650   21.1150 O.2    75  TYR75      -0.2867
     85  CB       -76.7090   25.0960   18.2460 C.3    75  TYR75       0.0534
     86  CG       -77.7200   26.1640   17.8920 C.ar   75  TYR75      -0.0201
     87  CD1      -77.3060   27.4520   17.5580 C.ar   75  TYR75      -0.0009
     88  CD2      -79.0860   25.9000   17.8500 C.ar   75  TYR75      -0.0009
     89  CE1      -78.2080   28.4260   17.1980 C.ar   75  TYR75       0.0417
     90  CE2      -80.0000   26.8770   17.4830 C.ar   75  TYR75       0.0417
     91  CZ       -79.5410   28.1440   17.1640 C.ar   75  TYR75       0.1957
     92  OH       -80.4410   29.1030   16.7220 O.3    75  TYR75      -0.2866
     93  N        -79.7280   26.6380   21.0990 N.3    77  LEU77      -0.1231
     94  CA       -81.1560   26.5740   20.8080 C.3    77  LEU77       0.1693
     95  C        -81.8940   27.6190   21.6610 C.2    77  LEU77       0.2592
     96  O        -81.6850   28.8220   21.4650 O.2    77  LEU77      -0.2718
     97  CB       -81.6990   25.1350   20.9230 C.3    77  LEU77       0.0284
     98  CG       -83.1140   24.9200   20.3600 C.3    77  LEU77       0.0019
     99  CD1      -83.1580   25.1020   18.8450 C.3    77  LEU77       0.0001
    100  CD2      -83.6270   23.5460   20.7550 C.3    77  LEU77       0.0001
    101  N        -82.7350   27.1900   22.6050 N.am   78  PHE78      -0.1976
    102  CA       -83.5090   28.1250   23.4170 C.3    78  PHE78       0.1639
    103  C        -82.8700   28.4660   24.7510 C.2    78  PHE78       0.2290
    104  O        -83.3770   29.3350   25.4490 O.2    78  PHE78      -0.2864
    105  CB       -84.9100   27.5720   23.6670 C.3    78  PHE78       0.0560
    106  CG       -85.5950   27.0690   22.4270 C.ar   78  PHE78      -0.0200
    107  CD1      -85.6880   27.8590   21.2810 C.ar   78  PHE78      -0.0042
    108  CD2      -86.1350   25.7880   22.3960 C.ar   78  PHE78      -0.0042
    109  CE1      -86.3110   27.3650   20.1440 C.ar   78  PHE78      -0.0003
    110  CE2      -86.7660   25.3050   21.2610 C.ar   78  PHE78      -0.0003
    111  CZ       -86.8560   26.0950   20.1420 C.ar   78  PHE78      -0.0000
    112  N        -79.9160   30.9250   20.8300 N.3    83  HIS83      -0.1241
    113  CA       -79.5110   30.9620   19.4310 C.3    83  HIS83       0.1621
    114  C        -78.0610   31.3690   19.2350 C.2    83  HIS83       0.2264
    115  O        -77.7580   32.1990   18.3780 O.2    83  HIS83      -0.2867
    116  CB       -80.4620   31.8420   18.6160 C.3    83  HIS83       0.0745
    117  CG       -81.8740   31.3940   18.7090 C.ar   83  HIS83       0.0817
    118  ND1      -82.2780   30.1570   18.2620 N.ar   83  HIS83      -0.2268
    119  CD2      -82.9660   31.9890   19.2400 C.ar   83  HIS83       0.1154
    120  CE1      -83.5700   30.0120   18.5080 C.ar   83  HIS83       0.1986
    121  NE2      -84.0100   31.1130   19.0840 N.ar   83  HIS83      -0.2212
    122  N        -74.3030   29.9330   18.3110 N.3    85  LEU85      -0.1245
    123  CA       -73.4150   28.9040   17.7890 C.3    85  LEU85       0.1561
    124  C        -72.0300   29.1920   18.3340 C.2    85  LEU85       0.2260
    125  O        -71.4810   30.2630   18.0940 O.2    85  LEU85      -0.2867
    126  CB       -73.3880   28.9290   16.2550 C.3    85  LEU85       0.0270
    127  CG       -72.6730   27.7150   15.6340 C.3    85  LEU85       0.0019
    128  CD1      -73.4070   26.4030   15.8370 C.3    85  LEU85       0.0001
    129  CD2      -72.4870   27.9250   14.1520 C.3    85  LEU85       0.0001
    130  N        -74.0150   35.6770   21.0840 N.3   129  ARG129     -0.1245
    131  CA       -73.9000   36.0100   19.6620 C.3   129  ARG129      0.1563
    132  C        -72.7970   37.0360   19.3590 C.2   129  ARG129      0.2260
    133  O        -72.5270   37.3330   18.1970 O.2   129  ARG129     -0.2867
    134  CB       -75.2460   36.4820   19.1210 C.3   129  ARG129      0.0307
    135  CG       -76.3660   35.4780   19.3320 C.3   129  ARG129      0.0489
    136  CD       -77.6910   36.0830   18.9030 C.3   129  ARG129      0.2205
    137  NE       -78.8380   35.3670   19.4530 N.pl3 129  ARG129     -0.0865
    138  CZ       -79.9950   35.9450   19.7350 C.cat 129  ARG129      0.5346
    139  NH1      -80.1290   37.2500   19.5220 N.pl3 129  ARG129      0.1354
    140  NH2      -81.0120   35.2390   20.2190 N.pl3 129  ARG129      0.1354
    141  N        -69.7340   32.4500   16.1920 N.3   134  HIS134     -0.1241
    142  CA       -71.1080   32.7670   15.8610 C.3   134  HIS134      0.1621
    143  C        -71.1830   33.7330   14.6850 C.2   134  HIS134      0.2264
    144  O        -71.8960   33.5010   13.7110 O.2   134  HIS134     -0.2867
    145  CB       -71.8540   33.3620   17.0570 C.3   134  HIS134      0.0745
    146  CG       -73.2860   33.6060   16.7560 C.ar  134  HIS134      0.0817
    147  ND1      -74.2590   32.6600   16.9840 N.ar  134  HIS134     -0.2268
    148  CD2      -73.8950   34.6360   16.1240 C.ar  134  HIS134      0.1154
    149  CE1      -75.4150   33.1210   16.5440 C.ar  134  HIS134      0.1986
    150  NE2      -75.2200   34.3160   16.0120 N.ar  134  HIS134     -0.2212
    151  N        -72.7810   32.6570   11.2110 N.3   138  TYR138     -0.1241
    152  CA       -74.0340   33.3480   10.9040 C.3   138  TYR138      0.1605
    153  C        -73.8880   34.2670    9.6850 C.2   138  TYR138      0.2264
    154  O        -74.8190   34.4010    8.8870 O.2   138  TYR138     -0.2867
    155  CB       -74.6240   34.1120   12.0910 C.3   138  TYR138      0.0534
    156  CG       -76.0020   34.6300   11.7190 C.ar  138  TYR138     -0.0201
    157  CD1      -77.0570   33.7450   11.4970 C.ar  138  TYR138     -0.0009
    158  CD2      -76.2350   35.9850   11.5080 C.ar  138  TYR138     -0.0009
    159  CE1      -78.3040   34.1930   11.1050 C.ar  138  TYR138      0.0417
    160  CE2      -77.4980   36.4280   11.1120 C.ar  138  TYR138      0.0417
    161  CZ       -78.5210   35.5160   10.9300 C.ar  138  TYR138      0.1957
    162  OH       -79.7910   35.9120   10.5360 O.3   138  TYR138     -0.2866
    163  N        -74.4810   32.2080    6.7420 N.3   141  MET141     -0.1245
    164  CA       -75.9050   31.8510    6.6330 C.3   141  MET141      0.1570
    165  C        -76.7500   32.9880    6.0520 C.2   141  MET141      0.2261
    166  O        -77.8050   32.7350    5.4590 O.2   141  MET141     -0.2867
    167  CB       -76.4400   31.5020    8.0230 C.3   141  MET141      0.0387
    168  CG       -75.7410   30.3190    8.6790 C.3   141  MET141      0.0595
    169  SD       -76.1370   30.0720   10.4310 S.3   141  MET141     -0.1393
    170  CE       -77.8680   29.6200   10.3270 C.3   141  MET141      0.0692
@<TRIPOS>BOND
     1   166   165    2
     2   165   164    1
     3   164   163    1
     4   164   167    1
     5    20    19    1
     6    21    19    1
     7   167   168    1
     8    19    18    2
     9    40    41    1
    10     1     2    1
    11   168   169    1
    12    72    71    2
    13   154   153    2
    14    18    17    1
    15    45    44    1
    16    71    70    1
    17    42    41    1
    18    42    43    2
    19     5     2    1
    20     5     6    1
    21     2     3    1
    22    41    44    1
    23   153   152    1
    24    17    16    1
    25    80    79    1
    26    78    79   ar
    27    78    76   ar
    28    44    46    1
    29   170   169    1
    30    79    77   ar
    31    76    74   ar
    32    16    15    1
    33   162   161    1
    34     3     4    2
    35     3    11   am
    36     7     6   ar
    37     7     9   ar
    38     6     8   ar
    39    70    69    1
    40    70    73    1
    41   152   151    1
    42   152   155    1
    43   161   159   ar
    44   161   160   ar
    45   159   157   ar
    46   160   158   ar
    47    77    75   ar
    48    11    12    1
    49    74    75   ar
    50    74    73    1
    51    15    12    1
    52    34    33    1
    53    34    35    1
    54    34    37    1
    55   157   156   ar
    56   158   156   ar
    57   156   155    1
    58    35    36    2
    59    39    37    1
    60    32    31    2
    61    38    37    1
    62     9    10   ar
    63    47    48    1
    64     8    10   ar
    65    12    13    1
    66    50    49    2
    67    49    48    1
    68    31    30    1
    69    14    13    2
    70    48    51    1
    71    13    22   am
    72    25    24    2
    73   144   143    2
    74    30    29    1
    75    22    28    1
    76    22    23    1
    77    51    52    1
    78   129   127    1
    79    24    29   am
    80    24    23    1
    81    52    54   ar
    82    52    53   ar
    83    28    27    1
    84    54    56   ar
    85   143   142    1
    86    53    55   ar
    87    23    26    1
    88    56    57   ar
    89    55    57   ar
    90   127   128    1
    91   127   126    1
    92   142   141    1
    93   142   145    1
    94    26    27    1
    95   150   148   ar
    96   150   149   ar
    97   148   146   ar
    98   126   123    1
    99   149   147   ar
   100    92    91    1
   101   146   147   ar
   102   146   145    1
   103    91    89   ar
   104    91    90   ar
   105    89    87   ar
   106    90    88   ar
   107    87    86   ar
   108   123   122    1
   109   123   124    1
   110    88    86   ar
   111    86    85    1
   112   125   124    2
   113   133   132    2
   114    85    82    1
   115   118   120   ar
   116   118   117   ar
   117    58    59    1
   118   115   114    2
   119    59    60    1
   120    59    62    1
   121   120   121   ar
   122    66    64   ar
   123    66    68   ar
   124   116   117    1
   125   116   113    1
   126    64    63   ar
   127    60    61    2
   128   117   119   ar
   129    99    98    1
   130   136   135    1
   131   136   137    1
   132   121   119   ar
   133   134   135    1
   134   134   131    1
   135   114   113    1
   136   132   131    1
   137   113   112    1
   138    82    81    1
   139    82    83    1
   140   137   138    2
   141   139   138    1
   142    68    67   ar
   143    63    62    1
   144    63    65   ar
   145   131   130    1
   146   138   140    1
   147   111   109   ar
   148   111   110   ar
   149   109   107   ar
   150    98   100    1
   151    98    97    1
   152    67    65   ar
   153    83    84    2
   154    94    97    1
   155    94    93    1
   156    94    95    1
   157   110   108   ar
   158   107   106   ar
   159    96    95    2
   160    95   101   am
   161   108   106   ar
   162   106   105    1
   163   101   102    1
   164   102   105    1
   165   102   103    1
   166   103   104    2
