@<TRIPOS>MOLECULE
tmp/5xa8A09.pdb
 87 86 0 0 0
SMALL
GASTEIGER

@<TRIPOS>ATOM
      1  N         42.9100   25.0600   -6.9660 N.3   274  ILE274     -0.1245
      2  CA        42.5580   26.2130   -7.7880 C.3   274  ILE274      0.1561
      3  C         43.2600   26.1570   -9.1400 C.2   274  ILE274      0.2260
      4  O         43.1770   27.0960   -9.9330 O.2   274  ILE274     -0.2867
      5  CB        42.9070   27.5440   -7.0950 C.3   274  ILE274      0.0252
      6  CG1       44.4190   27.6740   -6.9090 C.3   274  ILE274      0.0019
      7  CG2       42.1770   27.6610   -5.7650 C.3   274  ILE274      0.0019
      8  CD1       44.8430   28.9780   -6.2720 C.3   274  ILE274      0.0001
      9  N         43.9250   23.6440  -15.1050 N.3   278  HIS278     -0.1241
     10  CA        45.1650   23.6890  -15.8720 C.3   278  HIS278      0.1621
     11  C         45.7760   22.3020  -16.0480 C.2   278  HIS278      0.2264
     12  O         46.9120   22.1720  -16.5040 O.2   278  HIS278     -0.2867
     13  CB        46.1760   24.6210  -15.2010 C.3   278  HIS278      0.0745
     14  CG        45.8200   26.0720  -15.2990 C.ar  278  HIS278      0.0817
     15  ND1       44.6970   26.6060  -14.7050 N.ar  278  HIS278     -0.2268
     16  CD2       46.4420   27.1020  -15.9200 C.ar  278  HIS278      0.1154
     17  CE1       44.6420   27.9020  -14.9570 C.ar  278  HIS278      0.1986
     18  NE2       45.6890   28.2280  -15.6930 N.ar  278  HIS278     -0.2212
     19  N         49.5380   32.7730   -5.1950 N.3   776  PHE776     -0.1241
     20  CA        48.0960   32.9730   -5.2670 C.3   776  PHE776      0.1605
     21  C         47.7290   34.2420   -6.0290 C.2   776  PHE776      0.2264
     22  O         46.6640   34.3150   -6.6370 O.2   776  PHE776     -0.2867
     23  CB        47.4910   33.0130   -3.8630 C.3   776  PHE776      0.0534
     24  CG        47.2950   31.6560   -3.2500 C.ar  776  PHE776     -0.0203
     25  CD1       48.3040   31.0610   -2.5110 C.ar  776  PHE776     -0.0042
     26  CD2       46.1010   30.9740   -3.4150 C.ar  776  PHE776     -0.0042
     27  CE1       48.1250   29.8110   -1.9460 C.ar  776  PHE776     -0.0003
     28  CE2       45.9150   29.7240   -2.8530 C.ar  776  PHE776     -0.0003
     29  CZ        46.9280   29.1430   -2.1180 C.ar  776  PHE776     -0.0000
     30  N         47.6610   33.5280   -9.8380 N.3   779  ALA779     -0.1231
     31  CA        46.4830   32.7520  -10.2040 C.3   779  ALA779      0.1694
     32  C         45.2090   33.5780  -10.0550 C.2   779  ALA779      0.2592
     33  O         44.1830   33.2670  -10.6610 O.2   779  ALA779     -0.2718
     34  CB        46.3980   31.4900   -9.3590 C.3   779  ALA779      0.0304
     35  N         45.2800   34.6330   -9.2490 N.am  780  ALA780     -0.1966
     36  CA        44.1230   35.4820   -8.9960 C.3   780  ALA780      0.1728
     37  C         43.9880   36.5750  -10.0490 C.2   780  ALA780      0.2616
     38  O         42.8920   36.8390  -10.5420 O.2   780  ALA780     -0.2715
     39  CB        44.2110   36.0970   -7.6080 C.3   780  ALA780      0.0334
     40  N         45.1050   37.2100  -10.3890 N.am  781  LEU781     -0.1963
     41  CA        45.0930   38.3010  -11.3570 C.3   781  LEU781      0.1728
     42  C         44.9790   37.7800  -12.7870 C.2   781  LEU781      0.2616
     43  O         44.5200   38.4920  -13.6810 O.2   781  LEU781     -0.2715
     44  CB        46.3500   39.1620  -11.2110 C.3   781  LEU781      0.0311
     45  CG        46.5990   39.7860   -9.8370 C.3   781  LEU781      0.0022
     46  CD1       47.7300   40.8020   -9.9070 C.3   781  LEU781      0.0001
     47  CD2       45.3330   40.4200   -9.2820 C.3   781  LEU781      0.0001
     48  N         45.3980   36.5370  -12.9970 N.am  782  GLY782     -0.1955
     49  CA        45.3290   35.9220  -14.3090 C.3   782  GLY782      0.1869
     50  C         46.6830   35.8290  -14.9850 C.2   782  GLY782      0.2309
     51  O         46.8040   35.2720  -16.0760 O.2   782  GLY782     -0.2863
     52  N         46.4350   39.4240  -18.0980 N.3   871  THR871     -0.1203
     53  CA        45.2400   38.8030  -17.5430 C.3   871  THR871      0.1994
     54  C         44.6750   37.7650  -18.5080 C.2   871  THR871      0.2618
     55  O         44.1910   36.7110  -18.0950 O.2   871  THR871     -0.2717
     56  CB        44.1570   39.8550  -17.2270 C.3   871  THR871      0.1784
     57  OG1       44.7080   40.8720  -16.3810 O.3   871  THR871     -0.2211
     58  CG2       42.9630   39.2130  -16.5340 C.3   871  THR871      0.0376
     59  N         44.7540   38.0690  -19.7990 N.am  872  HIS872     -0.1961
     60  CA        44.2420   37.1790  -20.8310 C.3   872  HIS872      0.1787
     61  C         45.3560   36.7590  -21.7810 C.2   872  HIS872      0.2620
     62  O         45.4430   37.2550  -22.9040 O.2   872  HIS872     -0.2715
     63  CB        43.1130   37.8600  -21.6040 C.3   872  HIS872      0.0785
     64  CG        42.1890   38.6590  -20.7410 C.ar  872  HIS872      0.0821
     65  ND1       41.0970   38.1060  -20.1060 N.ar  872  HIS872     -0.2267
     66  CD2       42.1960   39.9700  -20.4020 C.ar  872  HIS872      0.1154
     67  CE1       40.4710   39.0430  -19.4160 C.ar  872  HIS872      0.1986
     68  NE2       41.1180   40.1830  -19.5790 N.ar  872  HIS872     -0.2212
     69  N         46.2070   35.8450  -21.3280 N.am  873  PHE873     -0.1960
     70  CA        47.3540   35.4210  -22.1210 C.3   873  PHE873      0.1771
     71  C         47.1160   34.0680  -22.7850 C.2   873  PHE873      0.2619
     72  O         47.8820   33.6540  -23.6560 O.2   873  PHE873     -0.2715
     73  CB        48.6150   35.3680  -21.2540 C.3   873  PHE873      0.0574
     74  CG        48.6500   34.2110  -20.2970 C.ar  873  PHE873     -0.0200
     75  CD1       49.4160   33.0910  -20.5740 C.ar  873  PHE873     -0.0042
     76  CD2       47.9210   34.2440  -19.1210 C.ar  873  PHE873     -0.0042
     77  CE1       49.4540   32.0250  -19.6960 C.ar  873  PHE873     -0.0003
     78  CE2       47.9530   33.1800  -18.2390 C.ar  873  PHE873     -0.0003
     79  CZ        48.7210   32.0690  -18.5270 C.ar  873  PHE873     -0.0000
     80  N         46.0560   33.3810  -22.3730 N.am  874  MET874     -0.1977
     81  CA        45.7050   32.1010  -22.9780 C.3   874  MET874      0.1605
     82  C         44.5860   32.2650  -23.9980 C.2   874  MET874      0.2287
     83  O         43.8640   31.3150  -24.3000 O.2   874  MET874     -0.2864
     84  CB        45.2900   31.0890  -21.9100 C.3   874  MET874      0.0413
     85  CG        46.3850   30.7460  -20.9210 C.3   874  MET874      0.0598
     86  SD        46.0630   29.1900  -20.0730 S.3   874  MET874     -0.1393
     87  CE        44.3790   29.4500  -19.5210 C.3   874  MET874      0.0692
@<TRIPOS>BOND
     1    83    82    2
     2    82    81    1
     3    72    71    2
     4    81    80    1
     5    81    84    1
     6    62    61    2
     7    71    80   am
     8    71    70    1
     9    70    69    1
    10    70    73    1
    11    84    85    1
    12    61    69   am
    13    61    60    1
    14    63    60    1
    15    63    64    1
    16    73    74    1
    17    85    86    1
    18    60    59    1
    19    64    66   ar
    20    64    65   ar
    21    75    74   ar
    22    75    77   ar
    23    66    68   ar
    24    74    76   ar
    25    65    67   ar
    26    86    87    1
    27    59    54   am
    28    77    79   ar
    29    68    67   ar
    30    76    78   ar
    31    79    78   ar
    32    54    55    2
    33    54    53    1
    34    52    53    1
    35    53    56    1
    36    56    58    1
    37    56    57    1
    38    12    11    2
    39    51    50    2
    40    11    10    1
    41    16    18   ar
    42    16    14   ar
    43    10    13    1
    44    10     9    1
    45    18    17   ar
    46    14    13    1
    47    14    15   ar
    48    50    49    1
    49    17    15   ar
    50    49    48    1
    51    43    42    2
    52    48    42   am
    53    42    41    1
    54    41    44    1
    55    41    40    1
    56    44    45    1
    57    33    32    2
    58    38    37    2
    59    40    37   am
    60    31    32    1
    61    31    30    1
    62    31    34    1
    63    32    35   am
    64    37    36    1
    65     4     3    2
    66    46    45    1
    67    45    47    1
    68    35    36    1
    69     3     2    1
    70    36    39    1
    71     2     5    1
    72     2     1    1
    73     5     6    1
    74     5     7    1
    75     6     8    1
    76    22    21    2
    77    21    20    1
    78    20    19    1
    79    20    23    1
    80    23    24    1
    81    26    24   ar
    82    26    28   ar
    83    24    25   ar
    84    28    29   ar
    85    25    27   ar
    86    29    27   ar
