@<TRIPOS>MOLECULE
tmp/5xa8A02.pdb
 81 75 0 0 0
SMALL
GASTEIGER

@<TRIPOS>ATOM
      1  N         57.1020   24.6300   23.3150 N.3   252  LYS252     -0.1245
      2  CA        56.2210   25.6980   22.8600 C.3   252  LYS252      0.1561
      3  C         56.4590   26.0000   21.3820 C.2   252  LYS252      0.2260
      4  O         55.5600   26.4630   20.6790 O.2   252  LYS252     -0.2867
      5  CB        56.4260   26.9590   23.7050 C.3   252  LYS252      0.0271
      6  CG        55.4500   28.0900   23.4080 C.3   252  LYS252      0.0035
      7  CD        54.4360   28.2790   24.5320 C.3   252  LYS252      0.0206
      8  CE        53.4630   27.1120   24.6280 C.3   252  LYS252      0.1093
      9  NZ        52.4400   27.3240   25.6910 N.3   252  LYS252     -0.1314
     10  N         55.1560   22.8270   19.3220 N.3   255  GLU255     -0.1245
     11  CA        53.7060   22.9650   19.2470 C.3   255  GLU255      0.1567
     12  C         53.3420   23.9440   18.1390 C.2   255  GLU255      0.2260
     13  O         52.4160   23.7110   17.3600 O.2   255  GLU255     -0.2867
     14  CB        53.1350   23.4390   20.5850 C.3   255  GLU255      0.0388
     15  CG        51.6500   23.7680   20.5490 C.3   255  GLU255      0.1160
     16  CD        51.1610   24.3940   21.8410 C.2   255  GLU255      0.3649
     17  OE1       51.9660   24.5080   22.7900 O.co2 255  GLU255     -0.2457
     18  OE2       49.9730   24.7740   21.9080 O.co2 255  GLU255     -0.2457
     19  N         51.5630   23.5060   14.4530 N.3   259  GLN259     -0.1245
     20  CA        50.5100   24.4760   14.1880 C.3   259  GLN259      0.1566
     21  C         50.6520   25.0330   12.7760 C.2   259  GLN259      0.2260
     22  O         49.6590   25.2930   12.0980 O.2   259  GLN259     -0.2867
     23  CB        50.5460   25.6060   15.2190 C.3   259  GLN259      0.0367
     24  CG        49.4160   26.6120   15.0840 C.3   259  GLN259      0.0905
     25  CD        49.4400   27.6640   16.1760 C.2   259  GLN259      0.2608
     26  OE1       50.2650   27.6120   17.0880 O.2   259  GLN259     -0.2717
     27  NE2       48.5310   28.6280   16.0870 N.am  259  GLN259     -0.0878
     28  N         48.5360   24.3610    8.8600 N.3   263  VAL263     -0.1245
     29  CA        48.1390   25.5190    8.0640 C.3   263  VAL263      0.1561
     30  C         48.7750   25.4910    6.6760 C.2   263  VAL263      0.2260
     31  O         48.0950   25.6990    5.6700 O.2   263  VAL263     -0.2867
     32  CB        48.5150   26.8390    8.7650 C.3   263  VAL263      0.0252
     33  CG1       48.2570   28.0260    7.8490 C.3   263  VAL263      0.0019
     34  CG2       47.7430   26.9860   10.0650 C.3   263  VAL263      0.0019
     35  N         52.0530   34.6370   30.9810 N.3   825  LYS825     -0.1245
     36  CA        50.7690   34.7500   30.2990 C.3   825  LYS825      0.1561
     37  C         50.9380   35.2370   28.8630 C.2   825  LYS825      0.2260
     38  O         50.0460   35.0630   28.0330 O.2   825  LYS825     -0.2867
     39  CB        49.8410   35.6960   31.0630 C.3   825  LYS825      0.0271
     40  CG        49.6230   35.3210   32.5200 C.3   825  LYS825      0.0035
     41  CD        48.9260   33.9770   32.6530 C.3   825  LYS825      0.0206
     42  CE        48.6770   33.6330   34.1140 C.3   825  LYS825      0.1093
     43  NZ        47.9520   32.3420   34.2690 N.3   825  LYS825     -0.1314
     44  N         51.6250   35.4400   25.1280 N.3   827  PRO827     -0.2102
     45  CA        51.5780   34.4650   24.0340 C.3   827  PRO827      0.1504
     46  C         52.8530   34.4810   23.2000 C.2   827  PRO827      0.2576
     47  O         53.6240   35.4380   23.2800 O.2   827  PRO827     -0.2718
     48  CB        50.3770   34.9270   23.2080 C.3   827  PRO827      0.0282
     49  CG        50.3050   36.3920   23.4570 C.3   827  PRO827      0.0208
     50  CD        50.7210   36.5790   24.8880 C.3   827  PRO827      0.0893
     51  N         53.0680   33.4330   22.4120 N.am  828  LEU828     -0.1966
     52  CA        54.2610   33.3340   21.5790 C.3   828  LEU828      0.1728
     53  C         54.2980   34.4440   20.5360 C.2   828  LEU828      0.2616
     54  O         55.3270   35.0910   20.3430 O.2   828  LEU828     -0.2715
     55  CB        54.3270   31.9680   20.8940 C.3   828  LEU828      0.0311
     56  CG        55.5530   31.7290   20.0110 C.3   828  LEU828      0.0022
     57  CD1       56.8340   31.8760   20.8180 C.3   828  LEU828      0.0001
     58  CD2       55.4840   30.3590   19.3570 C.3   828  LEU828      0.0001
     59  N         53.1700   34.6610   19.8700 N.am  829  ILE829     -0.1977
     60  CA        53.0720   35.7050   18.8570 C.3   829  ILE829      0.1596
     61  C         51.9740   36.7060   19.1940 C.2   829  ILE829      0.2287
     62  O         50.8030   36.3450   19.3090 O.2   829  ILE829     -0.2864
     63  CB        52.8010   35.1170   17.4600 C.3   829  ILE829      0.0276
     64  CG1       53.9350   34.1770   17.0470 C.3   829  ILE829      0.0022
     65  CG2       52.6350   36.2300   16.4370 C.3   829  ILE829      0.0022
     66  CD1       53.7800   33.6120   15.6540 C.3   829  ILE829      0.0001
     67  N         49.3520   39.8840   18.6770 N.3   831  GLY831     -0.1225
     68  CA        48.4380   40.2440   17.6090 C.3   831  GLY831      0.1811
     69  C         49.0490   41.3010   16.7120 C.2   831  GLY831      0.2280
     70  O         48.8760   41.2750   15.4940 O.2   831  GLY831     -0.2866
     71  N         51.7010   39.6500   14.5900 N.3   834  PHE834     -0.1241
     72  CA        51.1450   38.8670   13.4930 C.3   834  PHE834      0.1605
     73  C         50.8050   39.7770   12.3210 C.2   834  PHE834      0.2264
     74  O         50.8960   39.3760   11.1610 O.2   834  PHE834     -0.2867
     75  CB        49.9040   38.0970   13.9460 C.3   834  PHE834      0.0534
     76  CG        49.3080   37.2300   12.8740 C.ar  834  PHE834     -0.0203
     77  CD1       49.8880   36.0150   12.5460 C.ar  834  PHE834     -0.0042
     78  CD2       48.1670   37.6290   12.1950 C.ar  834  PHE834     -0.0042
     79  CE1       49.3430   35.2140   11.5590 C.ar  834  PHE834     -0.0003
     80  CE2       47.6170   36.8320   11.2080 C.ar  834  PHE834     -0.0003
     81  CZ        48.2050   35.6230   10.8900 C.ar  834  PHE834     -0.0000
@<TRIPOS>BOND
     1    31    30    2
     2    30    29    1
     3    33    32    1
     4    29    32    1
     5    29    28    1
     6    32    34    1
     7    81    80   ar
     8    81    79   ar
     9    74    73    2
    10    80    78   ar
    11    79    77   ar
    12    22    21    2
    13    78    76   ar
    14    73    72    1
    15    77    76   ar
    16    21    20    1
    17    76    75    1
    18    72    75    1
    19    72    71    1
    20    20    19    1
    21    20    23    1
    22    24    23    1
    23    24    25    1
    24    70    69    2
    25    66    64    1
    26    27    25   am
    27    25    26    2
    28    65    63    1
    29    69    68    1
    30    64    63    1
    31    13    12    2
    32    63    60    1
    33    68    67    1
    34    12    11    1
    35    60    61    1
    36    60    59    1
    37    61    62    2
    38    11    10    1
    39    11    14    1
    40    58    56    1
    41    59    53   am
    42    56    57    1
    43    56    55    1
    44    54    53    2
    45    53    52    1
    46    15    14    1
    47    15    16    1
    48     4     3    2
    49    55    52    1
    50     3     2    1
    51    52    51    1
    52    16    18   ar
    53    16    17   ar
    54    51    46   am
    55     2     1    1
    56     2     5    1
    57    46    47    2
    58    46    45    1
    59    48    49    1
    60    48    45    1
    61     6     5    1
    62     6     7    1
    63    49    50    1
    64    45    44    1
    65     7     8    1
    66     8     9    1
    67    50    44    1
    68    38    37    2
    69    37    36    1
    70    36    35    1
    71    36    39    1
    72    39    40    1
    73    40    41    1
    74    41    42    1
    75    42    43    1
