@<TRIPOS>MOLECULE
tmp/5xa9A07.pdb
 91 89 0 0 0
SMALL
GASTEIGER

@<TRIPOS>ATOM
      1  N         14.6600   53.8490   64.0910 N.3    71  ILE71      -0.1245
      2  CA        13.8070   53.6260   62.9400 C.3    71  ILE71       0.1561
      3  C         14.0770   54.6610   61.8610 C.2    71  ILE71       0.2260
      4  O         14.0890   54.3520   60.6750 O.2    71  ILE71      -0.2867
      5  CB        12.3250   53.6730   63.3250 C.3    71  ILE71       0.0252
      6  CG1       12.0070   52.5490   64.3070 C.3    71  ILE71       0.0019
      7  CG2       11.4550   53.5550   62.0870 C.3    71  ILE71       0.0019
      8  CD1       10.5370   52.4380   64.6450 C.3    71  ILE71       0.0001
      9  N         17.1170   53.6430   60.0460 N.3    74  VAL74      -0.1231
     10  CA        16.9610   52.5490   59.0870 C.3    74  VAL74       0.1692
     11  C         16.2910   52.9930   57.7820 C.2    74  VAL74       0.2591
     12  O         16.7350   52.6350   56.6960 O.2    74  VAL74      -0.2718
     13  CB        16.1870   51.3680   59.6960 C.3    74  VAL74       0.0266
     14  CG1       15.9280   50.2990   58.6470 C.3    74  VAL74       0.0020
     15  CG2       16.9640   50.7830   60.8610 C.3    74  VAL74       0.0020
     16  N         15.2350   53.7860   57.9000 N.am   75  LEU75      -0.1980
     17  CA        14.5050   54.3000   56.7470 C.3    75  LEU75       0.1596
     18  C         15.1190   55.6040   56.2480 C.2    75  LEU75       0.2287
     19  O         14.5270   56.6750   56.3890 O.2    75  LEU75      -0.2864
     20  CB        13.0300   54.5090   57.0960 C.3    75  LEU75       0.0297
     21  CG        12.2600   53.2680   57.5520 C.3    75  LEU75       0.0022
     22  CD1       10.8100   53.6150   57.8540 C.3    75  LEU75       0.0001
     23  CD2       12.3460   52.1660   56.5070 C.3    75  LEU75       0.0001
     24  N         18.1310   54.9840   53.8030 N.3    77  TRP77      -0.1227
     25  CA        18.9350   54.4720   52.7000 C.3    77  TRP77       0.1737
     26  C         18.1680   54.5440   51.3850 C.2    77  TRP77       0.2595
     27  O         18.6610   55.0790   50.3920 O.2    77  TRP77      -0.2718
     28  CB        19.3670   53.0280   52.9710 C.3    77  TRP77       0.0564
     29  CG        20.2570   52.8610   54.1680 C.ar   77  TRP77       0.0003
     30  CD1       20.8230   53.8520   54.9170 C.ar   77  TRP77       0.0946
     31  CD2       20.6820   51.6240   54.7540 C.ar   77  TRP77       0.0152
     32  NE1       21.5750   53.3090   55.9310 N.ar   77  TRP77      -0.2442
     33  CE2       21.5040   51.9430   55.8530 C.ar   77  TRP77       0.0810
     34  CE3       20.4470   50.2780   54.4550 C.ar   77  TRP77       0.0012
     35  CZ2       22.0910   50.9650   56.6540 C.ar   77  TRP77       0.0191
     36  CZ3       21.0310   49.3090   55.2520 C.ar   77  TRP77       0.0001
     37  CH2       21.8430   49.6580   56.3380 C.ar   77  TRP77       0.0015
     38  N         16.9570   53.9970   51.3910 N.am   78  PHE78      -0.1976
     39  CA        16.1240   53.9490   50.1960 C.3    78  PHE78       0.1639
     40  C         15.6670   55.3470   49.7860 C.2    78  PHE78       0.2290
     41  O         14.8340   55.9570   50.4570 O.2    78  PHE78      -0.2864
     42  CB        14.9120   53.0410   50.4300 C.3    78  PHE78       0.0560
     43  CG        15.2650   51.6920   50.9960 C.ar   78  PHE78      -0.0200
     44  CD1       15.2060   51.4600   52.3610 C.ar   78  PHE78      -0.0042
     45  CD2       15.6580   50.6570   50.1630 C.ar   78  PHE78      -0.0042
     46  CE1       15.5300   50.2210   52.8840 C.ar   78  PHE78      -0.0003
     47  CE2       15.9830   49.4160   50.6800 C.ar   78  PHE78      -0.0003
     48  CZ        15.9200   49.1980   52.0420 C.ar   78  PHE78      -0.0000
     49  N          7.1300   43.7450   51.3520 N.3   289  ILE289     -0.1231
     50  CA         8.4600   44.3200   51.5100 C.3   289  ILE289      0.1692
     51  C          8.4340   45.8410   51.3860 C.2   289  ILE289      0.2591
     52  O          9.4680   46.4990   51.5020 O.2   289  ILE289     -0.2718
     53  CB         9.4440   43.7520   50.4700 C.3   289  ILE289      0.0266
     54  CG1        9.0110   44.1460   49.0560 C.3   289  ILE289      0.0019
     55  CG2        9.5430   42.2400   50.6010 C.3   289  ILE289      0.0020
     56  CD1        9.9340   43.6370   47.9700 C.3   289  ILE289      0.0001
     57  N          7.2480   46.3940   51.1530 N.am  290  ARG290     -0.1980
     58  CA         7.0960   47.8350   50.9870 C.3   290  ARG290      0.1597
     59  C          5.8270   48.3420   51.6680 C.2   290  ARG290      0.2287
     60  O          5.7690   49.4850   52.1230 O.2   290  ARG290     -0.2864
     61  CB         7.0810   48.1990   49.4990 C.3   290  ARG290      0.0334
     62  CG         7.0730   49.6930   49.2170 C.3   290  ARG290      0.0492
     63  CD         7.0580   49.9730   47.7220 C.3   290  ARG290      0.2205
     64  NE         7.0560   51.4040   47.4320 N.pl3 290  ARG290     -0.0865
     65  CZ         7.0340   51.9180   46.2060 C.cat 290  ARG290      0.5346
     66  NH1        7.0120   51.1170   45.1500 N.pl3 290  ARG290      0.1354
     67  NH2        7.0330   53.2330   46.0360 N.pl3 290  ARG290      0.1354
     68  N          4.6370   47.4210   54.4430 N.3   292  ALA292     -0.1231
     69  CA         4.7710   47.4190   55.8950 C.3   292  ALA292      0.1694
     70  C          5.5260   48.6510   56.3850 C.2   292  ALA292      0.2591
     71  O          5.5390   48.9480   57.5800 O.2   292  ALA292     -0.2718
     72  CB         5.4700   46.1510   56.3600 C.3   292  ALA292      0.0304
     73  N          6.1530   49.3650   55.4560 N.am  293  ILE293     -0.1980
     74  CA         6.9210   50.5590   55.7900 C.3   293  ILE293      0.1595
     75  C          5.9910   51.7110   56.1670 C.2   293  ILE293      0.2287
     76  O          6.3810   52.6280   56.8900 O.2   293  ILE293     -0.2864
     77  CB         7.8270   50.9890   54.6170 C.3   293  ILE293      0.0276
     78  CG1        8.5110   49.7700   53.9970 C.3   293  ILE293      0.0022
     79  CG2        8.8620   52.0060   55.0760 C.3   293  ILE293      0.0022
     80  CD1        9.4360   50.1070   52.8470 C.3   293  ILE293      0.0001
     81  N          5.5860   52.1560   59.8480 N.3   296  PHE296     -0.1241
     82  CA         6.7620   52.6540   60.5520 C.3   296  PHE296      0.1605
     83  C          6.9760   54.1400   60.2900 C.2   296  PHE296      0.2264
     84  O          7.6910   54.8130   61.0310 O.2   296  PHE296     -0.2867
     85  CB         8.0070   51.8610   60.1490 C.3   296  PHE296      0.0534
     86  CG         8.0660   50.4840   60.7440 C.ar  296  PHE296     -0.0203
     87  CD1        7.4540   49.4140   60.1120 C.ar  296  PHE296     -0.0042
     88  CD2        8.7320   50.2590   61.9380 C.ar  296  PHE296     -0.0042
     89  CE1        7.5070   48.1450   60.6600 C.ar  296  PHE296     -0.0003
     90  CE2        8.7880   48.9930   62.4900 C.ar  296  PHE296     -0.0003
     91  CZ         8.1750   47.9350   61.8500 C.ar  296  PHE296     -0.0000
@<TRIPOS>BOND
     1    66    65    1
     2    67    65    1
     3    65    64    2
     4    64    63    1
     5    63    62    1
     6    56    54    1
     7    54    53    1
     8    62    61    1
     9    61    58    1
    10    40    39    1
    11    40    41    2
    12    45    47   ar
    13    45    43   ar
    14    39    42    1
    15    39    38    1
    16    27    26    2
    17    42    43    1
    18    53    55    1
    19    53    50    1
    20    47    48   ar
    21    58    57    1
    22    58    59    1
    23    43    44   ar
    24    57    51   am
    25    49    50    1
    26    26    38   am
    27    26    25    1
    28    51    52    2
    29    51    50    1
    30    59    60    2
    31    48    46   ar
    32    44    46   ar
    33    25    28    1
    34    25    24    1
    35    80    78    1
    36    28    29    1
    37    78    77    1
    38    29    31   ar
    39    29    30   ar
    40    68    69    1
    41    34    31   ar
    42    34    36   ar
    43    77    79    1
    44    77    74    1
    45    31    33   ar
    46    30    32   ar
    47    36    37   ar
    48    73    74    1
    49    73    70   am
    50    74    75    1
    51    33    32   ar
    52    33    35   ar
    53    69    72    1
    54    69    70    1
    55    75    76    2
    56    18    19    2
    57    18    17    1
    58    37    35   ar
    59    70    71    2
    60    23    21    1
    61    12    11    2
    62    17    20    1
    63    17    16    1
    64    20    21    1
    65    21    22    1
    66    11    16   am
    67    11    10    1
    68    14    13    1
    69    10    13    1
    70    10     9    1
    71    13    15    1
    72    81    82    1
    73    87    89   ar
    74    87    86   ar
    75    85    82    1
    76    85    86    1
    77    83    82    1
    78    83    84    2
    79    89    91   ar
    80     4     3    2
    81    86    88   ar
    82    91    90   ar
    83     3     2    1
    84    88    90   ar
    85     7     5    1
    86     2     5    1
    87     2     1    1
    88     5     6    1
    89     6     8    1
