@<TRIPOS>MOLECULE
tmp/5xa9A00.pdb
 90 85 0 0 0
SMALL
GASTEIGER

@<TRIPOS>ATOM
      1  N         23.1870   67.2830   79.7190 N.3   104  VAL104     -0.1245
      2  CA        22.9600   68.4140   80.6110 C.3   104  VAL104      0.1561
      3  C         22.5930   67.9740   82.0240 C.2   104  VAL104      0.2260
      4  O         23.0540   68.5560   83.0060 O.2   104  VAL104     -0.2867
      5  CB        21.8570   69.3430   80.0720 C.3   104  VAL104      0.0252
      6  CG1       21.5770   70.4630   81.0610 C.3   104  VAL104      0.0019
      7  CG2       22.2570   69.9060   78.7170 C.3   104  VAL104      0.0019
      8  N         25.5590   66.8710   84.1630 N.3   107  TRP107     -0.1227
      9  CA        26.3530   67.9850   84.6690 C.3   107  TRP107      0.1737
     10  C         25.6680   68.6740   85.8480 C.2   107  TRP107      0.2595
     11  O         26.3230   69.3210   86.6660 O.2   107  TRP107     -0.2718
     12  CB        26.6210   68.9940   83.5490 C.3   107  TRP107      0.0564
     13  CG        27.4920   70.1430   83.9590 C.ar  107  TRP107      0.0003
     14  CD1       28.8470   70.1280   84.1200 C.ar  107  TRP107      0.0946
     15  CD2       27.0680   71.4800   84.2500 C.ar  107  TRP107      0.0152
     16  NE1       29.2930   71.3710   84.4990 N.ar  107  TRP107     -0.2442
     17  CE2       28.2200   72.2200   84.5850 C.ar  107  TRP107      0.0810
     18  CE3       25.8270   72.1240   84.2630 C.ar  107  TRP107      0.0012
     19  CZ2       28.1680   73.5690   84.9290 C.ar  107  TRP107      0.0191
     20  CZ3       25.7770   73.4640   84.6040 C.ar  107  TRP107      0.0001
     21  CH2       26.9400   74.1710   84.9320 C.ar  107  TRP107      0.0015
     22  N         24.3500   68.5270   85.9320 N.am  108  GLN108     -0.1979
     23  CA        23.5810   69.1080   87.0260 C.3   108  GLN108      0.1601
     24  C         23.1500   68.0420   88.0300 C.2   108  GLN108      0.2287
     25  O         22.0940   68.1530   88.6530 O.2   108  GLN108     -0.2864
     26  CB        22.3570   69.8480   86.4870 C.3   108  GLN108      0.0394
     27  CG        22.6920   70.9870   85.5390 C.3   108  GLN108      0.0908
     28  CD        21.4590   71.7190   85.0510 C.2   108  GLN108      0.2608
     29  OE1       20.3410   71.4220   85.4700 O.2   108  GLN108     -0.2717
     30  NE2       21.6570   72.6840   84.1600 N.am  108  GLN108     -0.0878
     31  N         14.1200   72.5820   83.2110 N.3   316  THR316     -0.1203
     32  CA        15.4760   72.8400   83.6810 C.3   316  THR316      0.1994
     33  C         15.7860   74.3340   83.6770 C.2   316  THR316      0.2618
     34  O         16.4370   74.8460   84.5880 O.2   316  THR316     -0.2717
     35  CB        16.5180   72.1040   82.8170 C.3   316  THR316      0.1784
     36  OG1       16.1930   70.7090   82.7570 O.3   316  THR316     -0.2211
     37  CG2       17.9140   72.2700   83.3990 C.3   316  THR316      0.0376
     38  N         15.3070   75.0290   82.6500 N.am  317  THR317     -0.1952
     39  CA        15.5150   76.4670   82.5330 C.3   317  THR317      0.1897
     40  C         14.7540   77.2200   83.6190 C.2   317  THR317      0.2313
     41  O         15.2980   78.1140   84.2660 O.2   317  THR317     -0.2863
     42  CB        15.0760   76.9910   81.1520 C.3   317  THR317      0.1794
     43  OG1       15.7520   76.2580   80.1220 O.3   317  THR317     -0.2208
     44  CG2       15.4000   78.4700   81.0130 C.3   317  THR317      0.0378
     45  N         16.2900   76.5520   87.0490 N.3   320  ALA320     -0.1231
     46  CA        17.5870   77.1990   87.2070 C.3   320  ALA320      0.1694
     47  C         17.4210   78.6720   87.5660 C.2   320  ALA320      0.2591
     48  O         18.2040   79.2250   88.3380 O.2   320  ALA320     -0.2718
     49  CB        18.4130   77.0510   85.9400 C.3   320  ALA320      0.0304
     50  N         16.3960   79.3000   87.0000 N.am  321  LEU321     -0.1980
     51  CA        16.1240   80.7090   87.2590 C.3   321  LEU321      0.1596
     52  C         15.4530   80.8990   88.6150 C.2   321  LEU321      0.2287
     53  O         15.6150   81.9350   89.2590 O.2   321  LEU321     -0.2864
     54  CB        15.2530   81.2980   86.1490 C.3   321  LEU321      0.0297
     55  CG        15.8880   81.3130   84.7580 C.3   321  LEU321      0.0022
     56  CD1       14.9000   81.8180   83.7200 C.3   321  LEU321      0.0001
     57  CD2       17.1510   82.1600   84.7560 C.3   321  LEU321      0.0001
     58  N         16.1260   79.0700   91.2100 N.3   323  THR323     -0.1203
     59  CA        17.1930   78.8910   92.1870 C.3   323  THR323      0.1994
     60  C         17.8940   80.2130   92.4790 C.2   323  THR323      0.2617
     61  O         18.0890   80.5780   93.6380 O.2   323  THR323     -0.2717
     62  CB        18.2320   77.8630   91.7030 C.3   323  THR323      0.1784
     63  OG1       17.5900   76.6030   91.4790 O.3   323  THR323     -0.2211
     64  CG2       19.3340   77.6890   92.7370 C.3   323  THR323      0.0376
     65  N         18.2660   80.9250   91.4190 N.am  324  ARG324     -0.1979
     66  CA        18.9190   82.2220   91.5550 C.3   324  ARG324      0.1597
     67  C         17.9980   83.2340   92.2300 C.2   324  ARG324      0.2287
     68  O         18.4570   84.1090   92.9660 O.2   324  ARG324     -0.2864
     69  CB        19.3640   82.7470   90.1880 C.3   324  ARG324      0.0334
     70  CG        20.8200   82.4620   89.8520 C.3   324  ARG324      0.0492
     71  CD        21.2010   83.0550   88.5040 C.3   324  ARG324      0.2205
     72  NE        22.5750   82.7330   88.1290 N.pl3 324  ARG324     -0.0865
     73  CZ        23.1180   83.0310   86.9530 C.cat 324  ARG324      0.5346
     74  NH1       22.4830   83.8360   86.1110 N.pl3 324  ARG324      0.1354
     75  NH2       24.2960   82.5230   86.6160 N.pl3 324  ARG324      0.1354
     76  N         19.8650   76.2260   96.8460 N.3   333  VAL333     -0.1245
     77  CA        19.2240   74.9980   96.3900 C.3   333  VAL333      0.1561
     78  C         20.2290   74.0270   95.7760 C.2   333  VAL333      0.2260
     79  O         20.8670   74.3340   94.7690 O.2   333  VAL333     -0.2867
     80  CB        18.1200   75.2970   95.3630 C.3   333  VAL333      0.0252
     81  CG1       17.5110   74.0050   94.8490 C.3   333  VAL333      0.0019
     82  CG2       17.0560   76.1880   95.9800 C.3   333  VAL333      0.0019
     83  N         17.4130   70.7260   92.2660 N.3   336  LEU336     -0.1245
     84  CA        16.3980   71.4440   91.4970 C.3   336  LEU336      0.1561
     85  C         14.9770   70.8620   91.6000 C.2   336  LEU336      0.2260
     86  O         14.0220   71.6240   91.7460 O.2   336  LEU336     -0.2867
     87  CB        16.8150   71.5170   90.0230 C.3   336  LEU336      0.0270
     88  CG        18.1450   72.2090   89.7200 C.3   336  LEU336      0.0019
     89  CD1       18.4000   72.2450   88.2210 C.3   336  LEU336      0.0001
     90  CD2       18.1680   73.6110   90.3040 C.3   336  LEU336      0.0001
@<TRIPOS>BOND
     1     7     5    1
     2     1     2    1
     3     5     2    1
     4     5     6    1
     5    43    42    1
     6     2     3    1
     7    44    42    1
     8    42    39    1
     9     3     4    2
    10    39    38    1
    11    39    40    1
    12    38    33   am
    13    36    35    1
    14    35    37    1
    15    35    32    1
    16    31    32    1
    17    12    13    1
    18    12     9    1
    19    40    41    2
    20    33    32    1
    21    33    34    2
    22    56    55    1
    23    13    14   ar
    24    13    15   ar
    25    14    16   ar
    26    30    28   am
    27     8     9    1
    28    15    18   ar
    29    15    17   ar
    30    18    20   ar
    31    16    17   ar
    32    17    19   ar
    33    20    21   ar
    34     9    10    1
    35    57    55    1
    36    55    54    1
    37    19    21   ar
    38    28    29    2
    39    28    27    1
    40    27    26    1
    41    10    22   am
    42    10    11    2
    43    22    23    1
    44    49    46    1
    45    74    73    1
    46    54    51    1
    47    26    23    1
    48    75    73    1
    49    73    72    2
    50    50    51    1
    51    50    47   am
    52    23    24    1
    53    45    46    1
    54    46    47    1
    55    51    52    1
    56    47    48    2
    57    24    25    2
    58    72    71    1
    59    89    88    1
    60    71    70    1
    61    52    53    2
    62    88    87    1
    63    88    90    1
    64    70    69    1
    65    87    84    1
    66    69    66    1
    67    58    59    1
    68    65    66    1
    69    65    60   am
    70    63    62    1
    71    84    85    1
    72    84    83    1
    73    66    67    1
    74    85    86    2
    75    62    59    1
    76    62    64    1
    77    59    60    1
    78    67    68    2
    79    60    61    2
    80    79    78    2
    81    81    80    1
    82    80    82    1
    83    80    77    1
    84    78    77    1
    85    77    76    1
