@<TRIPOS>MOLECULE
tmp/5xa9A06.pdb
 128 128 0 0 0
SMALL
GASTEIGER

@<TRIPOS>ATOM
      1  N         -6.3560   48.6460   61.6930 N.3   273  LEU273     -0.1231
      2  CA        -7.7160   48.1670   61.5820 C.3   273  LEU273      0.1693
      3  C         -8.4140   48.8140   60.3890 C.2   273  LEU273      0.2592
      4  O         -9.3840   48.2810   59.8600 O.2   273  LEU273     -0.2718
      5  CB        -8.4820   48.4590   62.8670 C.3   273  LEU273      0.0284
      6  CG        -7.7760   47.9620   64.1280 C.3   273  LEU273      0.0019
      7  CD1       -8.6150   48.2330   65.3660 C.3   273  LEU273      0.0001
      8  CD2       -7.4600   46.4800   64.0000 C.3   273  LEU273      0.0001
      9  N         -7.9240   49.9850   59.9920 N.am  274  ILE274     -0.1966
     10  CA        -8.5420   50.7690   58.9290 C.3   274  ILE274      0.1727
     11  C         -8.0440   50.3120   57.5620 C.2   274  ILE274      0.2616
     12  O         -8.8320   50.1110   56.6370 O.2   274  ILE274     -0.2715
     13  CB        -8.2600   52.2740   59.0970 C.3   274  ILE274      0.0290
     14  CG1       -8.7690   52.7650   60.4530 C.3   274  ILE274      0.0022
     15  CG2       -8.8990   53.0680   57.9680 C.3   274  ILE274      0.0023
     16  CD1      -10.2590   52.5830   60.6470 C.3   274  ILE274      0.0001
     17  N         -6.7310   50.1470   57.4440 N.am  275  ASN275     -0.1958
     18  CA        -6.1190   49.7110   56.1940 C.3   275  ASN275      0.1819
     19  C         -6.4550   48.2590   55.8670 C.2   275  ASN275      0.2621
     20  O         -5.6390   47.3610   56.0780 O.2   275  ASN275     -0.2715
     21  CB        -4.6010   49.8930   56.2550 C.3   275  ASN275      0.1195
     22  CG        -4.1950   51.3280   56.5260 C.2   275  ASN275      0.2630
     23  OD1       -4.8970   52.2660   56.1470 O.2   275  ASN275     -0.2716
     24  ND2       -3.0560   51.5080   57.1850 N.am  275  ASN275     -0.0877
     25  N         -7.6600   48.0370   55.3530 N.am  276  ILE276     -0.1963
     26  CA        -8.1130   46.6950   55.0020 C.3   276  ILE276      0.1727
     27  C         -8.6070   46.6430   53.5570 C.2   276  ILE276      0.2617
     28  O         -8.3770   45.6650   52.8450 O.2   276  ILE276     -0.2715
     29  CB        -9.2410   46.2140   55.9420 C.3   276  ILE276      0.0290
     30  CG1       -8.7870   46.2730   57.4020 C.3   276  ILE276      0.0022
     31  CG2       -9.6810   44.8030   55.5820 C.3   276  ILE276      0.0023
     32  CD1       -9.8190   45.7590   58.3820 C.3   276  ILE276      0.0001
     33  N         -9.2740   47.7100   53.1290 N.am  277  GLY277     -0.1940
     34  CA        -9.8770   47.7650   51.8090 C.3   277  GLY277      0.2014
     35  C         -8.9000   47.7170   50.6480 C.2   277  GLY277      0.2638
     36  O         -9.2890   47.4190   49.5180 O.2   277  GLY277     -0.2714
     37  N         -7.6320   48.0080   50.9190 N.am  278  HIS278     -0.1973
     38  CA        -6.6130   48.0100   49.8740 C.3   278  HIS278      0.1656
     39  C         -5.9900   46.6290   49.6880 C.2   278  HIS278      0.2291
     40  O         -5.5140   46.2940   48.6030 O.2   278  HIS278     -0.2864
     41  CB        -5.5220   49.0360   50.1900 C.3   278  HIS278      0.0771
     42  CG        -4.4200   49.0750   49.1780 C.ar  278  HIS278      0.0820
     43  ND1       -3.2030   48.4610   49.3770 N.ar  278  HIS278     -0.2267
     44  CD2       -4.3550   49.6490   47.9520 C.ar  278  HIS278      0.1154
     45  CE1       -2.4340   48.6580   48.3210 C.ar  278  HIS278      0.1986
     46  NE2       -3.1100   49.3750   47.4420 N.ar  278  HIS278     -0.2212
     47  N          4.7560   51.6470   55.6790 N.3   294  TYR294     -0.1241
     48  CA         3.7650   52.6870   55.9360 C.3   294  TYR294      0.1605
     49  C          3.4180   52.7920   57.4200 C.2   294  TYR294      0.2264
     50  O          3.0490   53.8620   57.9040 O.2   294  TYR294     -0.2867
     51  CB         2.4970   52.4220   55.1190 C.3   294  TYR294      0.0534
     52  CG         1.4310   53.4850   55.2630 C.ar  294  TYR294     -0.0201
     53  CD1        1.4940   54.6630   54.5300 C.ar  294  TYR294     -0.0009
     54  CD2        0.3570   53.3080   56.1270 C.ar  294  TYR294     -0.0009
     55  CE1        0.5200   55.6370   54.6560 C.ar  294  TYR294      0.0417
     56  CE2       -0.6210   54.2760   56.2590 C.ar  294  TYR294      0.0417
     57  CZ        -0.5350   55.4380   55.5220 C.ar  294  TYR294      0.1957
     58  OH        -1.5060   56.4040   55.6500 O.3   294  TYR294     -0.2866
     59  N         -3.1700   59.3510   58.6210 N.3   779  ALA779     -0.1231
     60  CA        -2.7760   57.9490   58.5610 C.3   779  ALA779      0.1694
     61  C         -3.9720   57.0110   58.3820 C.2   779  ALA779      0.2592
     62  O         -3.8250   55.9070   57.8520 O.2   779  ALA779     -0.2718
     63  CB        -2.0000   57.5730   59.8100 C.3   779  ALA779      0.0304
     64  N         -5.1480   57.4440   58.8290 N.am  780  ALA780     -0.1966
     65  CA        -6.3190   56.5720   58.8380 C.3   780  ALA780      0.1728
     66  C         -7.4500   57.1010   57.9620 C.2   780  ALA780      0.2616
     67  O         -8.5660   56.5790   58.0010 O.2   780  ALA780     -0.2715
     68  CB        -6.8110   56.3720   60.2660 C.3   780  ALA780      0.0334
     69  N         -7.1630   58.1350   57.1770 N.am  781  LEU781     -0.1963
     70  CA        -8.1660   58.7070   56.2890 C.3   781  LEU781      0.1728
     71  C         -7.7240   58.6040   54.8330 C.2   781  LEU781      0.2616
     72  O         -8.5530   58.4620   53.9340 O.2   781  LEU781     -0.2715
     73  CB        -8.4470   60.1630   56.6600 C.3   781  LEU781      0.0311
     74  CG        -9.7070   60.7820   56.0580 C.3   781  LEU781      0.0022
     75  CD1      -10.9280   59.9510   56.4190 C.3   781  LEU781      0.0001
     76  CD2       -9.8770   62.2170   56.5300 C.3   781  LEU781      0.0001
     77  N         -6.4170   58.6820   54.6040 N.am  782  GLY782     -0.1955
     78  CA        -5.8730   58.5000   53.2710 C.3   782  GLY782      0.1869
     79  C         -5.0050   59.6430   52.7820 C.2   782  GLY782      0.2309
     80  O         -4.2810   59.5010   51.7960 O.2   782  GLY782     -0.2863
     81  N        -11.7220   65.2370   47.0500 N.3   867  TYR867     -0.1241
     82  CA       -11.5620   64.2320   48.0980 C.3   867  TYR867      0.1605
     83  C        -11.7060   62.8050   47.5730 C.2   867  TYR867      0.2264
     84  O        -11.1510   61.8660   48.1440 O.2   867  TYR867     -0.2867
     85  CB       -12.5810   64.4830   49.2150 C.3   867  TYR867      0.0534
     86  CG       -12.6260   63.4090   50.2840 C.ar  867  TYR867     -0.0201
     87  CD1      -11.6820   63.3750   51.3010 C.ar  867  TYR867     -0.0009
     88  CD2      -13.6210   62.4390   50.2800 C.ar  867  TYR867     -0.0009
     89  CE1      -11.7210   62.3990   52.2810 C.ar  867  TYR867      0.0417
     90  CE2      -13.6690   61.4590   51.2550 C.ar  867  TYR867      0.0417
     91  CZ       -12.7170   61.4440   52.2530 C.ar  867  TYR867      0.1957
     92  OH       -12.7610   60.4700   53.2250 O.3   867  TYR867     -0.2866
     93  N         -7.3980   61.0400   48.4250 N.3   871  THR871     -0.1203
     94  CA        -7.0500   60.0070   49.3940 C.3   871  THR871      0.1994
     95  C         -6.1780   58.9220   48.7690 C.2   871  THR871      0.2618
     96  O         -5.3920   58.2710   49.4580 O.2   871  THR871     -0.2717
     97  CB        -8.3080   59.3540   49.9960 C.3   871  THR871      0.1784
     98  OG1       -9.0920   58.7680   48.9490 O.3   871  THR871     -0.2211
     99  CG2       -9.1450   60.3890   50.7300 C.3   871  THR871      0.0376
    100  N         -6.3210   58.7320   47.4620 N.am  872  HIS872     -0.1961
    101  CA        -5.5370   57.7340   46.7460 C.3   872  HIS872      0.1787
    102  C         -4.2950   58.3630   46.1240 C.2   872  HIS872      0.2620
    103  O         -4.1250   58.3480   44.9050 O.2   872  HIS872     -0.2715
    104  CB        -6.3850   57.0590   45.6660 C.3   872  HIS872      0.0785
    105  CG        -7.6400   56.4310   46.1880 C.ar  872  HIS872      0.0821
    106  ND1       -8.7500   57.1680   46.5390 N.ar  872  HIS872     -0.2267
    107  CD2       -7.9600   55.1360   46.4200 C.ar  872  HIS872      0.1154
    108  CE1       -9.7000   56.3540   46.9640 C.ar  872  HIS872      0.1986
    109  NE2       -9.2460   55.1150   46.9020 N.ar  872  HIS872     -0.2212
    110  N         -3.4300   58.9140   46.9700 N.am  873  PHE873     -0.1960
    111  CA        -2.2090   59.5600   46.5030 C.3   873  PHE873      0.1771
    112  C         -1.1560   58.5270   46.1190 C.2   873  PHE873      0.2619
    113  O         -0.1990   58.8340   45.4080 O.2   873  PHE873     -0.2715
    114  CB        -1.6560   60.5080   47.5720 C.3   873  PHE873      0.0574
    115  CG        -1.0670   59.8080   48.7660 C.ar  873  PHE873     -0.0200
    116  CD1        0.3050   59.6490   48.8850 C.ar  873  PHE873     -0.0042
    117  CD2       -1.8820   59.3150   49.7700 C.ar  873  PHE873     -0.0042
    118  CE1        0.8500   59.0080   49.9820 C.ar  873  PHE873     -0.0003
    119  CE2       -1.3430   58.6740   50.8700 C.ar  873  PHE873     -0.0003
    120  CZ         0.0250   58.5200   50.9760 C.ar  873  PHE873     -0.0000
    121  N         -1.3400   57.3010   46.5970 N.am  874  MET874     -0.1977
    122  CA        -0.4180   56.2120   46.3000 C.3   874  MET874      0.1605
    123  C         -0.5780   55.7370   44.8580 C.2   874  MET874      0.2287
    124  O          0.4030   55.4060   44.1910 O.2   874  MET874     -0.2864
    125  CB        -0.6390   55.0500   47.2710 C.3   874  MET874      0.0413
    126  CG         0.2520   53.8440   47.0230 C.3   874  MET874      0.0598
    127  SD         0.0170   52.5580   48.2640 S.3   874  MET874     -0.1393
    128  CE        -1.7560   52.3240   48.1740 C.3   874  MET874      0.0692
@<TRIPOS>BOND
     1   124   123    2
     2   123   122    1
     3   103   102    2
     4   113   112    2
     5   104   105    1
     6   104   101    1
     7   112   111    1
     8   112   121   am
     9   102   101    1
    10   102   110   am
    11   105   107   ar
    12   105   106   ar
    13   122   121    1
    14   122   125    1
    15   107   109   ar
    16   111   110    1
    17   111   114    1
    18   106   108   ar
    19   101   100    1
    20   109   108   ar
    21   126   125    1
    22   126   127    1
    23    81    82    1
    24    46    44   ar
    25    46    45   ar
    26   100    95   am
    27   114   115    1
    28    83    82    1
    29    83    84    2
    30    44    42   ar
    31    82    85    1
    32   128   127    1
    33    45    43   ar
    34    93    94    1
    35    40    39    2
    36   115   116   ar
    37   115   117   ar
    38    95    94    1
    39    95    96    2
    40   116   118   ar
    41    98    97    1
    42    42    43   ar
    43    42    41    1
    44    85    86    1
    45    94    97    1
    46    36    35    2
    47    39    38    1
    48   117   119   ar
    49    38    41    1
    50    38    37    1
    51   118   120   ar
    52    97    99    1
    53    88    86   ar
    54    88    90   ar
    55    86    87   ar
    56    35    37   am
    57    35    34    1
    58   119   120   ar
    59    90    91   ar
    60    87    89   ar
    61    80    79    2
    62    34    33    1
    63    91    89   ar
    64    91    92    1
    65    79    78    1
    66    28    27    2
    67    33    27   am
    68    78    77    1
    69    27    26    1
    70    72    71    2
    71    53    55   ar
    72    53    52   ar
    73    77    71   am
    74    55    57   ar
    75    71    70    1
    76    26    25    1
    77    26    29    1
    78    51    52    1
    79    51    48    1
    80    52    54   ar
    81    25    19   am
    82    57    58    1
    83    57    56   ar
    84    31    29    1
    85    47    48    1
    86    19    20    2
    87    19    18    1
    88    48    49    1
    89    29    30    1
    90    74    75    1
    91    74    76    1
    92    74    73    1
    93    54    56   ar
    94    23    22    2
    95    18    21    1
    96    18    17    1
    97    21    22    1
    98    70    73    1
    99    70    69    1
   100    22    24   am
   101    12    11    2
   102    69    66   am
   103    30    32    1
   104    49    50    2
   105    17    11   am
   106    11    10    1
   107    62    61    2
   108    66    67    2
   109    66    65    1
   110    15    13    1
   111    61    60    1
   112    61    64   am
   113    60    59    1
   114    60    63    1
   115    64    65    1
   116    65    68    1
   117    10    13    1
   118    10     9    1
   119    13    14    1
   120     4     3    2
   121     9     3   am
   122     3     2    1
   123    14    16    1
   124     2     1    1
   125     2     5    1
   126     5     6    1
   127     8     6    1
   128     6     7    1
