@<TRIPOS>MOLECULE
tmp/5xabA08.pdb
 86 81 0 0 0
SMALL
GASTEIGER

@<TRIPOS>ATOM
      1  N         47.8990   68.2660   86.6720 N.3   104  VAL104     -0.1245
      2  CA        47.0060   68.3950   87.8180 C.3   104  VAL104      0.1561
      3  C         47.5410   67.6450   89.0360 C.2   104  VAL104      0.2260
      4  O         47.5680   68.1840   90.1430 O.2   104  VAL104     -0.2867
      5  CB        45.5910   67.8790   87.4860 C.3   104  VAL104      0.0252
      6  CG1       44.7110   67.8850   88.7280 C.3   104  VAL104      0.0019
      7  CG2       44.9680   68.7160   86.3790 C.3   104  VAL104      0.0019
      8  N         50.2100   69.5560   90.6200 N.3   107  TRP107     -0.1227
      9  CA        49.7050   70.7890   91.2150 C.3   107  TRP107      0.1737
     10  C         49.0970   70.5550   92.5980 C.2   107  TRP107      0.2595
     11  O         49.0740   71.4580   93.4330 O.2   107  TRP107     -0.2718
     12  CB        48.6720   71.4340   90.2870 C.3   107  TRP107      0.0564
     13  CG        48.1120   72.7260   90.7980 C.ar  107  TRP107      0.0003
     14  CD1       48.7060   73.9540   90.7490 C.ar  107  TRP107      0.0946
     15  CD2       46.8390   72.9220   91.4250 C.ar  107  TRP107      0.0152
     16  NE1       47.8840   74.9010   91.3110 N.ar  107  TRP107     -0.2442
     17  CE2       46.7310   74.2930   91.7340 C.ar  107  TRP107      0.0810
     18  CE3       45.7800   72.0710   91.7580 C.ar  107  TRP107      0.0012
     19  CZ2       45.6080   74.8320   92.3590 C.ar  107  TRP107      0.0191
     20  CZ3       44.6660   72.6080   92.3790 C.ar  107  TRP107      0.0001
     21  CH2       44.5890   73.9750   92.6730 C.ar  107  TRP107      0.0015
     22  N         48.6090   69.3410   92.8370 N.am  108  GLN108     -0.1979
     23  CA        48.0060   69.0000   94.1220 C.3   108  GLN108      0.1601
     24  C         49.0640   68.7970   95.2030 C.2   108  GLN108      0.2287
     25  O         48.9780   69.3840   96.2820 O.2   108  GLN108     -0.2864
     26  CB        47.1440   67.7420   93.9980 C.3   108  GLN108      0.0394
     27  CG        45.9550   67.8900   93.0650 C.3   108  GLN108      0.0908
     28  CD        45.0160   66.7020   93.1310 C.2   108  GLN108      0.2608
     29  OE1       44.9060   66.0390   94.1630 O.2   108  GLN108     -0.2717
     30  NE2       44.3350   66.4230   92.0250 N.am  108  GLN108     -0.0878
     31  N         35.7280   65.8530   90.2130 N.3   316  THR316     -0.1203
     32  CA        36.4520   66.9230   90.8900 C.3   316  THR316      0.1994
     33  C         35.6570   68.2280   90.8990 C.2   316  THR316      0.2618
     34  O         35.6310   68.9400   91.9020 O.2   316  THR316     -0.2717
     35  CB        37.8230   67.1720   90.2320 C.3   316  THR316      0.1784
     36  OG1       38.5510   65.9390   90.1590 O.3   316  THR316     -0.2211
     37  CG2       38.6270   68.1840   91.0310 C.3   316  THR316      0.0376
     38  N         35.0060   68.5290   89.7790 N.am  317  THR317     -0.1952
     39  CA        34.2180   69.7510   89.6510 C.3   317  THR317      0.1897
     40  C         33.0340   69.7580   90.6140 C.2   317  THR317      0.2313
     41  O         32.7540   70.7680   91.2620 O.2   317  THR317     -0.2863
     42  CB        33.6910   69.9360   88.2140 C.3   317  THR317      0.1794
     43  OG1       34.7840   69.8770   87.2890 O.3   317  THR317     -0.2208
     44  CG2       32.9820   71.2750   88.0720 C.3   317  THR317      0.0378
     45  N         34.3070   70.2380   94.2440 N.3   320  ALA320     -0.1245
     46  CA        34.8140   71.5840   94.4830 C.3   320  ALA320      0.1562
     47  C         33.6770   72.5790   94.6870 C.2   320  ALA320      0.2260
     48  O         33.7780   73.4900   95.5080 O.2   320  ALA320     -0.2867
     49  CB        35.7030   72.0260   93.3340 C.3   320  ALA320      0.0290
     50  N         31.9990   71.7920   97.9640 N.3   323  THR323     -0.1203
     51  CA        32.8610   72.3010   99.0240 C.3   323  THR323      0.1994
     52  C         32.5820   73.7770   99.2840 C.2   323  THR323      0.2617
     53  O         32.4780   74.2040  100.4350 O.2   323  THR323     -0.2717
     54  CB        34.3510   72.1120   98.6790 C.3   323  THR323      0.1784
     55  OG1       34.6460   70.7140   98.5810 O.3   323  THR323     -0.2211
     56  CG2       35.2340   72.7340   99.7500 C.3   323  THR323      0.0376
     57  N         32.4570   74.5500   98.2100 N.am  324  ARG324     -0.1979
     58  CA        32.1200   75.9650   98.3200 C.3   324  ARG324      0.1597
     59  C         30.7530   76.1440   98.9680 C.2   324  ARG324      0.2287
     60  O         30.5250   77.1000   99.7110 O.2   324  ARG324     -0.2864
     61  CB        32.1380   76.6370   96.9450 C.3   324  ARG324      0.0334
     62  CG        33.5020   76.6660   96.2790 C.3   324  ARG324      0.0492
     63  CD        33.4530   77.4310   94.9680 C.3   324  ARG324      0.2205
     64  NE        34.7570   77.4750   94.3130 N.pl3 324  ARG324     -0.0865
     65  CZ        34.9920   78.0960   93.1620 C.cat 324  ARG324      0.5346
     66  NH1       34.0100   78.7290   92.5340 N.pl3 324  ARG324      0.1354
     67  NH2       36.2100   78.0850   92.6380 N.pl3 324  ARG324      0.1354
     68  N         38.4970   69.9930  103.7870 N.3   334  ARG334     -0.1245
     69  CA        39.8680   70.1810  103.3330 C.3   334  ARG334      0.1563
     70  C         40.2430   69.2060  102.2220 C.2   334  ARG334      0.2260
     71  O         40.9930   69.5510  101.3100 O.2   334  ARG334     -0.2867
     72  CB        40.8330   70.0380  104.5100 C.3   334  ARG334      0.0307
     73  CG        40.5250   70.9850  105.6600 C.3   334  ARG334      0.0489
     74  CD        41.5070   70.8280  106.8070 C.3   334  ARG334      0.2205
     75  NE        42.8700   71.1850  106.4240 N.pl3 334  ARG334     -0.0865
     76  CZ        43.8250   70.3030  106.1500 C.cat 334  ARG334      0.5346
     77  NH1       43.5700   69.0030  106.2220 N.pl3 334  ARG334      0.1354
     78  NH2       45.0360   70.7200  105.8090 N.pl3 334  ARG334      0.1354
     79  N         38.8450   66.8860   99.1450 N.3   336  LEU336     -0.1245
     80  CA        37.7160   66.6830   98.2370 C.3   336  LEU336      0.1561
     81  C         37.1220   65.2640   98.2760 C.2   336  LEU336      0.2260
     82  O         35.9000   65.1220   98.3120 O.2   336  LEU336     -0.2867
     83  CB        38.1220   67.0340   96.8000 C.3   336  LEU336      0.0270
     84  CG        38.3540   68.5140   96.4880 C.3   336  LEU336      0.0019
     85  CD1       38.7410   68.7000   95.0290 C.3   336  LEU336      0.0001
     86  CD2       37.1190   69.3330   96.8240 C.3   336  LEU336      0.0001
@<TRIPOS>BOND
     1     7     5    1
     2     1     2    1
     3    43    42    1
     4     5     2    1
     5     5     6    1
     6     2     3    1
     7    44    42    1
     8    42    39    1
     9     3     4    2
    10    39    38    1
    11    39    40    1
    12    38    33   am
    13    36    35    1
    14    31    32    1
    15    35    32    1
    16    35    37    1
    17    12    13    1
    18    12     9    1
    19    40    41    2
    20     8     9    1
    21    14    13   ar
    22    14    16   ar
    23    13    15   ar
    24    32    33    1
    25    33    34    2
    26     9    10    1
    27    16    17   ar
    28    15    17   ar
    29    15    18   ar
    30    17    19   ar
    31    18    20   ar
    32    30    28   am
    33    19    21   ar
    34    20    21   ar
    35    66    65    1
    36    10    22   am
    37    10    11    2
    38    67    65    1
    39    22    23    1
    40    27    28    1
    41    27    26    1
    42    28    29    2
    43    65    64    2
    44    49    46    1
    45    26    23    1
    46    23    24    1
    47    45    46    1
    48    64    63    1
    49    46    47    1
    50    47    48    2
    51    63    62    1
    52    85    84    1
    53    24    25    2
    54    62    61    1
    55    84    83    1
    56    84    86    1
    57    83    80    1
    58    61    58    1
    59    50    51    1
    60    57    58    1
    61    57    52   am
    62    80    81    1
    63    80    79    1
    64    81    82    2
    65    58    59    1
    66    55    54    1
    67    54    51    1
    68    54    56    1
    69    59    60    2
    70    51    52    1
    71    52    53    2
    72    71    70    2
    73    70    69    1
    74    69    68    1
    75    69    72    1
    76    72    73    1
    77    73    74    1
    78    78    76    1
    79    76    77    1
    80    76    75    2
    81    75    74    1
