@<TRIPOS>MOLECULE
tmp/5xagB02.pdb
 171 161 0 0 0
SMALL
GASTEIGER

@<TRIPOS>ATOM
      1  N          9.2630  -64.8500  -31.3940 N.3   235  GLY235     -0.1210
      2  CA         9.1340  -65.0740  -32.8280 C.3   235  GLY235      0.1956
      3  C         10.4100  -64.7940  -33.5870 C.2   235  GLY235      0.2611
      4  O         10.7740  -65.5250  -34.5030 O.2   235  GLY235     -0.2717
      5  N         11.1210  -63.7460  -33.1910 N.am  236  VAL236     -0.1979
      6  CA        12.3830  -63.3930  -33.8040 C.3   236  VAL236      0.1595
      7  C         13.4690  -64.4240  -33.5210 C.2   236  VAL236      0.2287
      8  O         14.5000  -64.4390  -34.1990 O.2   236  VAL236     -0.2864
      9  CB        12.6290  -61.9580  -33.2920 C.3   236  VAL236      0.0276
     10  CG1       14.0430  -61.7600  -32.7530 C.3   236  VAL236      0.0022
     11  CG2       12.2220  -60.9690  -34.3480 C.3   236  VAL236      0.0022
     12  N         13.3230  -69.3740  -35.4890 N.3   239  CYS239     -0.1221
     13  CA        14.2100  -70.0770  -36.4060 C.3   239  CYS239      0.1808
     14  C         15.5290  -70.4670  -35.7790 C.2   239  CYS239      0.2601
     15  O         16.3170  -71.1560  -36.4350 O.2   239  CYS239     -0.2717
     16  CB        14.5000  -69.2300  -37.6300 C.3   239  CYS239      0.0970
     17  SG        13.0520  -69.0190  -38.6440 S.3   239  CYS239     -0.0800
     18  N         15.8070  -70.0170  -34.5580 N.am  240  LEU240     -0.1979
     19  CA        17.0430  -70.3560  -33.8720 C.3   240  LEU240      0.1596
     20  C         16.8580  -71.5070  -32.9140 C.2   240  LEU240      0.2287
     21  O         17.8190  -72.2390  -32.6530 O.2   240  LEU240     -0.2864
     22  CB        17.5730  -69.1520  -33.0800 C.3   240  LEU240      0.0297
     23  CG        17.9520  -67.8650  -33.8060 C.3   240  LEU240      0.0022
     24  CD1       18.4140  -66.8020  -32.7980 C.3   240  LEU240      0.0001
     25  CD2       19.0160  -68.1460  -34.8690 C.3   240  LEU240      0.0001
     26  N         15.3990  -74.0260  -43.0620 N.3   246  LEU246     -0.1231
     27  CA        16.3640  -72.9860  -42.7490 C.3   246  LEU246      0.1693
     28  C         17.2550  -73.4150  -41.5880 C.2   246  LEU246      0.2592
     29  O         16.7770  -73.8550  -40.5340 O.2   246  LEU246     -0.2718
     30  CB        15.6440  -71.6780  -42.4280 C.3   246  LEU246      0.0284
     31  CG        15.3840  -70.8620  -43.6930 C.3   246  LEU246      0.0019
     32  CD1       14.8890  -69.4680  -43.3430 C.3   246  LEU246      0.0001
     33  CD2       16.6370  -70.8070  -44.5940 C.3   246  LEU246      0.0001
     34  N         18.5560  -73.3080  -41.8000 N.am  247  ASN247     -0.1960
     35  CA        19.5240  -73.5130  -40.7320 C.3   247  ASN247      0.1819
     36  C         19.9050  -72.1590  -40.1380 C.2   247  ASN247      0.2621
     37  O         21.0590  -71.7400  -40.1870 O.2   247  ASN247     -0.2715
     38  CB        20.7420  -74.2680  -41.2720 C.3   247  ASN247      0.1195
     39  CG        21.5750  -74.9300  -40.1710 C.2   247  ASN247      0.2630
     40  OD1       22.7460  -74.5890  -39.9700 O.2   247  ASN247     -0.2716
     41  ND2       20.9720  -75.8820  -39.4570 N.am  247  ASN247     -0.0877
     42  N         18.9080  -71.4550  -39.5930 N.am  248  ALA248     -0.1963
     43  CA        19.1310  -70.0800  -39.1520 C.3   248  ALA248      0.1728
     44  C         20.0700  -70.0320  -37.9540 C.2   248  ALA248      0.2616
     45  O         19.9730  -70.8380  -37.0210 O.2   248  ALA248     -0.2715
     46  CB        17.8220  -69.3840  -38.7900 C.3   248  ALA248      0.0334
     47  N         20.9970  -69.0860  -38.0040 N.am  249  ASP249     -0.1971
     48  CA        21.8920  -68.7950  -36.9020 C.3   249  ASP249      0.1709
     49  C         22.1530  -67.2950  -36.9140 C.2   249  ASP249      0.2293
     50  O         21.7870  -66.5850  -37.8620 O.2   249  ASP249     -0.2864
     51  CB        23.1790  -69.6430  -36.9780 C.3   249  ASP249      0.1436
     52  CG        24.1220  -69.2440  -38.1240 C.2   249  ASP249      0.3671
     53  OD1       24.3430  -68.0220  -38.3440 O.co2 249  ASP249     -0.2456
     54  OD2       24.6900  -70.1710  -38.7770 O.co2 249  ASP249     -0.2456
     55  N         24.3900  -66.0940  -40.0040 N.3   252  LYS252     -0.1231
     56  CA        23.6990  -66.1110  -41.2930 C.3   252  LYS252      0.1693
     57  C         22.6380  -65.0240  -41.3640 C.2   252  LYS252      0.2591
     58  O         22.4170  -64.4250  -42.4250 O.2   252  LYS252     -0.2718
     59  CB        23.0720  -67.4770  -41.5350 C.3   252  LYS252      0.0285
     60  CG        24.0400  -68.5360  -42.0560 C.3   252  LYS252      0.0035
     61  CD        23.2950  -69.8370  -42.3150 C.3   252  LYS252      0.0206
     62  CE        24.2370  -71.0040  -42.3130 C.3   252  LYS252      0.1093
     63  NZ        23.6090  -72.1740  -41.6290 N.3   252  LYS252     -0.1314
     64  N         21.9760  -64.7490  -40.2380 N.am  253  LEU253     -0.1980
     65  CA        20.9640  -63.7020  -40.2230 C.3   253  LEU253      0.1596
     66  C         21.5740  -62.3580  -40.5720 C.2   253  LEU253      0.2287
     67  O         21.0250  -61.6200  -41.3960 O.2   253  LEU253     -0.2864
     68  CB        20.2950  -63.6670  -38.8570 C.3   253  LEU253      0.0297
     69  CG        19.3120  -62.5360  -38.6230 C.3   253  LEU253      0.0022
     70  CD1       17.9440  -62.8400  -39.2080 C.3   253  LEU253      0.0001
     71  CD2       19.2220  -62.3830  -37.1440 C.3   253  LEU253      0.0001
     72  N         22.6640  -62.0580  -44.3530 N.3   256  ASN256     -0.1225
     73  CA        21.5590  -61.8710  -45.2880 C.3   256  ASN256      0.1785
     74  C         20.7090  -60.6460  -45.0230 C.2   256  ASN256      0.2597
     75  O         20.0130  -60.2040  -45.9400 O.2   256  ASN256     -0.2718
     76  CB        20.6420  -63.0920  -45.2740 C.3   256  ASN256      0.1169
     77  CG        21.3030  -64.3100  -45.8720 C.2   256  ASN256      0.2627
     78  OD1       21.4190  -64.4070  -47.0840 O.2   256  ASN256     -0.2716
     79  ND2       21.7350  -65.2440  -45.0300 N.am  256  ASN256     -0.0877
     80  N         20.7070  -60.1090  -43.7960 N.am  257  MET257     -0.1979
     81  CA        19.8570  -58.9620  -43.4880 C.3   257  MET257      0.1605
     82  C         20.5610  -57.6160  -43.6670 C.2   257  MET257      0.2287
     83  O         19.8950  -56.6130  -43.9710 O.2   257  MET257     -0.2864
     84  CB        19.3090  -59.0820  -42.0620 C.3   257  MET257      0.0413
     85  CG        18.1170  -60.0490  -41.9240 C.3   257  MET257      0.0598
     86  SD        16.8140  -59.6550  -43.1180 S.3   257  MET257     -0.1393
     87  CE        16.0210  -58.2500  -42.3170 C.3   257  MET257      0.0692
     88  N         15.9020  -55.1550  -46.6960 N.3   308  THR308     -0.1203
     89  CA        15.6850  -56.5830  -46.5630 C.3   308  THR308      0.1994
     90  C         14.5720  -56.8220  -45.5530 C.2   308  THR308      0.2618
     91  O         14.2490  -55.9550  -44.7320 O.2   308  THR308     -0.2717
     92  CB        16.9280  -57.3230  -46.0820 C.3   308  THR308      0.1784
     93  OG1       17.3440  -56.7580  -44.8190 O.3   308  THR308     -0.2211
     94  CG2       18.0390  -57.2710  -47.1300 C.3   308  THR308      0.0376
     95  N         14.0110  -58.0340  -45.6190 N.am  309  VAL309     -0.1965
     96  CA        12.9150  -58.4810  -44.7680 C.3   309  VAL309      0.1727
     97  C         13.0890  -59.9650  -44.5340 C.2   309  VAL309      0.2616
     98  O         13.5220  -60.6760  -45.4370 O.2   309  VAL309     -0.2715
     99  CB        11.5430  -58.2140  -45.4180 C.3   309  VAL309      0.0290
    100  CG1       10.4500  -58.7890  -44.5490 C.3   309  VAL309      0.0023
    101  CG2       11.3160  -56.7150  -45.6770 C.3   309  VAL309      0.0023
    102  N         12.7410  -60.4410  -43.3320 N.am  310  ALA310     -0.1963
    103  CA        12.7210  -61.8720  -43.0200 C.3   310  ALA310      0.1728
    104  C         11.5130  -62.1630  -42.1360 C.2   310  ALA310      0.2616
    105  O         11.4110  -61.6050  -41.0420 O.2   310  ALA310     -0.2715
    106  CB        14.0140  -62.3040  -42.3230 C.3   310  ALA310      0.0334
    107  N         10.6140  -63.0550  -42.5860 N.am  311  ALA311     -0.1963
    108  CA         9.3320  -63.3100  -41.9220 C.3   311  ALA311      0.1728
    109  C          9.1310  -64.7960  -41.6230 C.2   311  ALA311      0.2616
    110  O          9.5640  -65.6540  -42.3940 O.2   311  ALA311     -0.2715
    111  CB         8.1660  -62.8000  -42.7910 C.3   311  ALA311      0.0334
    112  N          8.4770  -65.1050  -40.5020 N.am  312  ILE312     -0.1977
    113  CA         8.1400  -66.4820  -40.1440 C.3   312  ILE312      0.1596
    114  C          6.6780  -66.5700  -39.7770 C.2   312  ILE312      0.2287
    115  O          6.1810  -65.7850  -38.9650 O.2   312  ILE312     -0.2864
    116  CB         8.9270  -67.0310  -38.9490 C.3   312  ILE312      0.0276
    117  CG1        9.2740  -65.9050  -38.0190 C.3   312  ILE312      0.0022
    118  CG2       10.0880  -67.8250  -39.3810 C.3   312  ILE312      0.0022
    119  CD1        8.7850  -66.2090  -36.6630 C.3   312  ILE312      0.0001
    120  N         15.3470  -60.6170  -54.5270 N.3   343  ASN343     -0.1225
    121  CA        14.8750  -61.6410  -53.6020 C.3   343  ASN343      0.1785
    122  C         15.1560  -61.2420  -52.1520 C.2   343  ASN343      0.2597
    123  O         15.5550  -62.0730  -51.3220 O.2   343  ASN343     -0.2718
    124  CB        15.4920  -63.0030  -53.9530 C.3   343  ASN343      0.1169
    125  CG        14.9010  -64.1680  -53.1310 C.2   343  ASN343      0.2627
    126  OD1       13.6900  -64.2060  -52.8570 O.2   343  ASN343     -0.2716
    127  ND2       15.7640  -65.1130  -52.7260 N.am  343  ASN343     -0.0877
    128  N         14.9270  -59.9540  -51.8260 N.am  344  ASN344     -0.1974
    129  CA        15.2650  -59.4620  -50.4880 C.3   344  ASN344      0.1688
    130  C         14.2010  -59.7590  -49.4250 C.2   344  ASN344      0.2292
    131  O         14.4660  -59.5410  -48.2400 O.2   344  ASN344     -0.2864
    132  CB        15.5840  -57.9590  -50.5160 C.3   344  ASN344      0.1181
    133  CG        14.4870  -57.1320  -51.1270 C.2   344  ASN344      0.2629
    134  OD1       13.5030  -57.6680  -51.6290 O.2   344  ASN344     -0.2716
    135  ND2       14.6540  -55.8120  -51.1100 N.am  344  ASN344     -0.0877
    136  N         12.3420  -62.7250  -47.5150 N.3   346  LYS346     -0.1231
    137  CA        12.4800  -64.1460  -47.2540 C.3   346  LYS346      0.1693
    138  C         11.4560  -64.5920  -46.2180 C.2   346  LYS346      0.2593
    139  O         11.2530  -63.9230  -45.1960 O.2   346  LYS346     -0.2718
    140  CB        13.8740  -64.4850  -46.7480 C.3   346  LYS346      0.0285
    141  CG        14.1430  -65.9860  -46.6880 C.3   346  LYS346      0.0035
    142  CD        14.7030  -66.4480  -48.0380 C.3   346  LYS346      0.0206
    143  CE        14.7910  -67.9680  -48.1090 C.3   346  LYS346      0.1093
    144  NZ        15.4250  -68.5740  -46.9010 N.3   346  LYS346     -0.1314
    145  N         10.8550  -65.7500  -46.4660 N.am  347  THR347     -0.1939
    146  CA         9.7840  -66.2810  -45.6470 C.3   347  THR347      0.2028
    147  C         10.1420  -67.6800  -45.1710 C.2   347  THR347      0.2642
    148  O         10.8750  -68.4130  -45.8450 O.2   347  THR347     -0.2714
    149  CB         8.5020  -66.3360  -46.4340 C.3   347  THR347      0.1808
    150  OG1        8.3470  -65.1180  -47.1800 O.3   347  THR347     -0.2208
    151  CG2        7.3410  -66.5040  -45.4930 C.3   347  THR347      0.0379
    152  N          9.6230  -68.0470  -44.0050 N.am  348  ALA348     -0.1977
    153  CA         9.7840  -69.3850  -43.4660 C.3   348  ALA348      0.1597
    154  C          8.4610  -69.8050  -42.8430 C.2   348  ALA348      0.2287
    155  O          7.5910  -68.9760  -42.5860 O.2   348  ALA348     -0.2864
    156  CB        10.9260  -69.4430  -42.4400 C.3   348  ALA348      0.0319
    157  N          5.8330  -63.4200  -37.2450 N.3   362  THR362     -0.1218
    158  CA         6.7990  -62.4080  -36.8410 C.3   362  THR362      0.1862
    159  C          7.5730  -61.9100  -38.0540 C.2   362  THR362      0.2287
    160  O          7.8140  -62.6460  -39.0110 O.2   362  THR362     -0.2866
    161  CB         7.7710  -62.9330  -35.7980 C.3   362  THR362      0.1770
    162  OG1        7.0480  -63.3750  -34.6580 O.3   362  THR362     -0.2211
    163  CG2        8.6980  -61.8350  -35.3380 C.3   362  THR362      0.0375
    164  N         10.9050  -59.3540  -39.3280 N.3   364  ILE364     -0.1245
    165  CA        12.1450  -58.6000  -39.0970 C.3   364  ILE364      0.1561
    166  C         12.3980  -57.7800  -40.3410 C.2   364  ILE364      0.2260
    167  O         12.6330  -58.3490  -41.4110 O.2   364  ILE364     -0.2867
    168  CB        13.3470  -59.5120  -38.8580 C.3   364  ILE364      0.0252
    169  CG1       13.1480  -60.4410  -37.6830 C.3   364  ILE364      0.0019
    170  CG2       14.6080  -58.6930  -38.6840 C.3   364  ILE364      0.0019
    171  CD1       14.2870  -61.3820  -37.5210 C.3   364  ILE364      0.0001
@<TRIPOS>BOND
     1   120   121    1
     2   124   121    1
     3   124   125    1
     4   121   122    1
     5   125   126    2
     6   125   127   am
     7   122   128   am
     8   122   123    2
     9   128   129    1
    10   134   133    2
    11   133   135   am
    12   133   132    1
    13   132   129    1
    14   129   130    1
    15   130   131    2
    16   143   142    1
    17   143   144    1
    18   142   141    1
    19   136   137    1
    20   137   140    1
    21   137   138    1
    22   150   149    1
    23    94    92    1
    24    78    77    2
    25   140   141    1
    26    88    89    1
    27    89    92    1
    28    89    90    1
    29   145   138   am
    30   145   146    1
    31   149   146    1
    32   149   151    1
    33   138   139    2
    34    92    93    1
    35    75    74    2
    36    77    76    1
    37    77    79   am
    38   148   147    2
    39   101    99    1
    40   146   147    1
    41    95    90   am
    42    95    96    1
    43    90    91    2
    44    98    97    2
    45    99    96    1
    46    99   100    1
    47    73    76    1
    48    73    74    1
    49    73    72    1
    50   147   152   am
    51    74    80   am
    52    96    97    1
    53    33    31    1
    54    97   102   am
    55   152   153    1
    56    83    82    2
    57    80    81    1
    58    31    32    1
    59    31    30    1
    60    82    81    1
    61    81    84    1
    62   153   154    1
    63   153   156    1
    64   102   103    1
    65    86    87    1
    66    86    85    1
    67    26    27    1
    68   103   106    1
    69   103   104    1
    70   154   155    2
    71   111   108    1
    72    27    30    1
    73    27    28    1
    74   107   104   am
    75   107   108    1
    76    58    57    2
    77   110   109    2
    78    61    62    1
    79    61    60    1
    80    62    63    1
    81   104   105    2
    82    84    85    1
    83    60    59    1
    84   108   109    1
    85    34    28   am
    86    34    35    1
    87   109   112   am
    88    28    29    2
    89    59    56    1
    90   167   166    2
    91    67    66    2
    92    57    56    1
    93    57    64   am
    94    56    55    1
    95    38    35    1
    96    38    39    1
    97    35    36    1
    98    66    65    1
    99   112   113    1
   100   166   165    1
   101    64    65    1
   102    65    68    1
   103    37    36    2
   104    39    40    2
   105    39    41   am
   106   113   114    1
   107   113   116    1
   108    36    42   am
   109   114   115    2
   110    42    43    1
   111   118   116    1
   112   164   165    1
   113    70    69    1
   114    43    46    1
   115    43    44    1
   116   165   168    1
   117   160   159    2
   118   116   117    1
   119   168   170    1
   120   168   169    1
   121    68    69    1
   122    54    52   ar
   123    17    16    1
   124    69    71    1
   125    53    52   ar
   126    52    51    1
   127   159   158    1
   128   117   119    1
   129    47    44   am
   130    47    48    1
   131    44    45    2
   132    50    49    2
   133   169   171    1
   134    16    13    1
   135   157   158    1
   136    51    48    1
   137    49    48    1
   138   158   161    1
   139    15    14    2
   140    13    14    1
   141    13    12    1
   142   161   163    1
   143   161   162    1
   144    14    18   am
   145    25    23    1
   146    18    19    1
   147     4     3    2
   148    11     9    1
   149     8     7    2
   150    19    22    1
   151    19    20    1
   152    23    22    1
   153    23    24    1
   154     6     7    1
   155     6     9    1
   156     6     5    1
   157     3     5   am
   158     3     2    1
   159     9    10    1
   160    20    21    2
   161     2     1    1
