@<TRIPOS>MOLECULE
tmp/5xarA00.pdb
 119 115 0 0 0
SMALL
GASTEIGER

@<TRIPOS>ATOM
      1  N        -44.9300   31.2190  -27.6990 N.3    38  PHE38      -0.1241
      2  CA       -45.1340   29.8140  -28.0440 C.3    38  PHE38       0.1605
      3  C        -45.8980   29.0410  -26.9680 C.2    38  PHE38       0.2264
      4  O        -46.7520   28.2270  -27.2780 O.2    38  PHE38      -0.2867
      5  CB       -43.7640   29.1270  -28.2350 C.3    38  PHE38       0.0534
      6  CG       -43.0550   29.4500  -29.5340 C.ar   38  PHE38      -0.0203
      7  CD1      -43.6660   30.1540  -30.5970 C.ar   38  PHE38      -0.0042
      8  CD2      -41.7770   28.9960  -29.7130 C.ar   38  PHE38      -0.0042
      9  CE1      -42.9910   30.4090  -31.7640 C.ar   38  PHE38      -0.0003
     10  CE2      -41.0940   29.2350  -30.8920 C.ar   38  PHE38      -0.0003
     11  CZ       -41.7000   29.9460  -31.9190 C.ar   38  PHE38      -0.0000
     12  N        -41.3790   35.4800  -36.5970 N.3    99  PHE99      -0.1241
     13  CA       -41.5340   34.0790  -36.8120 C.3    99  PHE99       0.1605
     14  C        -42.2720   33.8290  -38.0860 C.2    99  PHE99       0.2264
     15  O        -42.0340   32.8150  -38.7550 O.2    99  PHE99      -0.2867
     16  CB       -42.3220   33.5050  -35.5920 C.3    99  PHE99       0.0534
     17  CG       -42.7060   32.0490  -35.6930 C.ar   99  PHE99      -0.0203
     18  CD1      -41.7400   31.0770  -35.5830 C.ar   99  PHE99      -0.0042
     19  CD2      -44.0500   31.6560  -35.8530 C.ar   99  PHE99      -0.0042
     20  CE1      -42.0890   29.7440  -35.6730 C.ar   99  PHE99      -0.0003
     21  CE2      -44.3930   30.3300  -35.9560 C.ar   99  PHE99      -0.0003
     22  CZ       -43.4130   29.3780  -35.8680 C.ar   99  PHE99      -0.0000
     23  N        -39.7920   33.4860  -41.0020 N.3   102  LEU102     -0.1245
     24  CA       -39.0620   32.2380  -40.8580 C.3   102  LEU102      0.1561
     25  C        -39.9340   31.1150  -41.3460 C.2   102  LEU102      0.2260
     26  O        -39.5410   30.3260  -42.1710 O.2   102  LEU102     -0.2867
     27  CB       -38.7070   32.0040  -39.4120 C.3   102  LEU102      0.0270
     28  CG       -38.0050   30.6640  -39.1960 C.3   102  LEU102      0.0019
     29  CD1      -36.5830   30.6190  -39.7420 C.3   102  LEU102      0.0001
     30  CD2      -37.9830   30.3810  -37.7090 C.3   102  LEU102      0.0001
     31  N        -30.7290   10.3790  -43.6870 N.3   234  ILE234     -0.1231
     32  CA       -30.9240   11.6770  -43.0080 C.3   234  ILE234      0.1692
     33  C        -30.9770   11.6460  -41.4610 C.2   234  ILE234      0.2593
     34  O        -31.3240   10.6530  -40.8070 O.2   234  ILE234     -0.2718
     35  CB       -32.1510   12.4720  -43.5460 C.3   234  ILE234      0.0266
     36  CG1      -31.8900   12.8790  -45.0020 C.3   234  ILE234      0.0019
     37  CG2      -32.3470   13.7810  -42.8260 C.3   234  ILE234      0.0020
     38  CD1      -33.0860   13.4830  -45.7070 C.3   234  ILE234      0.0001
     39  N        -30.5500   12.7590  -40.8810 N.am  235  THR235     -0.1939
     40  CA       -30.4480   12.9170  -39.4460 C.3   235  THR235      0.2028
     41  C        -30.7550   14.3650  -39.1610 C.2   235  THR235      0.2642
     42  O        -30.9150   15.2170  -40.0550 O.2   235  THR235     -0.2714
     43  CB       -29.0120   12.5820  -38.9300 C.3   235  THR235      0.1808
     44  OG1      -28.0280   13.2120  -39.7640 O.3   235  THR235     -0.2208
     45  CG2      -28.7340   11.0720  -38.9050 C.3   235  THR235      0.0379
     46  N        -30.6890   14.7020  -37.8660 N.am  236  HIS236     -0.1973
     47  CA       -30.9380   16.0690  -37.4020 C.3   236  HIS236      0.1656
     48  C        -30.1310   17.1180  -38.2070 C.2   236  HIS236      0.2291
     49  O        -30.6440   18.1590  -38.5980 O.2   236  HIS236     -0.2864
     50  CB       -30.5810   16.1570  -35.9110 C.3   236  HIS236      0.0771
     51  CG       -31.5480   15.4630  -34.9960 C.ar  236  HIS236      0.0820
     52  ND1      -32.1560   16.1210  -33.9510 N.ar  236  HIS236     -0.2267
     53  CD2      -31.9860   14.1760  -34.9400 C.ar  236  HIS236      0.1154
     54  CE1      -32.9460   15.2820  -33.3070 C.ar  236  HIS236      0.1986
     55  NE2      -32.8590   14.0950  -33.8860 N.ar  236  HIS236     -0.2212
     56  N        -31.5140   18.1610  -41.4550 N.3   239  THR239     -0.1218
     57  CA       -32.6690   19.0070  -41.1870 C.3   239  THR239      0.1862
     58  C        -32.1940   20.3820  -40.7340 C.2   239  THR239      0.2287
     59  O        -32.8150   21.3840  -41.0870 O.2   239  THR239     -0.2866
     60  CB       -33.5410   18.4190  -40.0580 C.3   239  THR239      0.1770
     61  OG1      -33.7300   17.0160  -40.2930 O.3   239  THR239     -0.2211
     62  CG2      -34.8780   19.1310  -39.9580 C.3   239  THR239      0.0375
     63  N        -32.6430   24.3920  -42.2290 N.3   243  LEU243     -0.1245
     64  CA       -32.8840   25.6410  -41.5290 C.3   243  LEU243      0.1561
     65  C        -31.9010   26.7050  -41.9540 C.2   243  LEU243      0.2260
     66  O        -32.2870   27.8550  -42.1510 O.2   243  LEU243     -0.2867
     67  CB       -32.7800   25.4190  -40.0330 C.3   243  LEU243      0.0270
     68  CG       -33.4260   26.4730  -39.1440 C.3   243  LEU243      0.0019
     69  CD1      -34.8680   26.8130  -39.5160 C.3   243  LEU243      0.0001
     70  CD2      -33.3810   25.9670  -37.7080 C.3   243  LEU243      0.0001
     71  N        -38.0120   17.7550  -44.5210 N.3   298  ARG298     -0.1231
     72  CA       -38.2610   17.3390  -43.1440 C.3   298  ARG298      0.1694
     73  C        -38.4920   18.5050  -42.2300 C.2   298  ARG298      0.2591
     74  O        -39.3170   18.3760  -41.3680 O.2   298  ARG298     -0.2718
     75  CB       -37.1470   16.4690  -42.6330 C.3   298  ARG298      0.0321
     76  CG       -37.5290   15.7270  -41.3530 C.3   298  ARG298      0.0489
     77  CD       -36.4580   14.7540  -40.8870 C.3   298  ARG298      0.2205
     78  NE       -36.0570   13.7820  -41.9080 N.pl3 298  ARG298     -0.0865
     79  CZ       -36.7720   12.7390  -42.3200 C.cat 298  ARG298      0.5346
     80  NH1      -37.9870   12.4950  -41.8410 N.pl3 298  ARG298      0.1354
     81  NH2      -36.2750   11.9290  -43.2410 N.pl3 298  ARG298      0.1354
     82  N        -37.8220   19.6160  -42.4200 N.am  299  LEU299     -0.1980
     83  CA       -38.1140   20.8270  -41.6860 C.3   299  LEU299      0.1596
     84  C        -39.5160   21.2840  -41.9910 C.2   299  LEU299      0.2287
     85  O        -40.3230   21.4740  -41.0200 O.2   299  LEU299     -0.2864
     86  CB       -37.2080   21.9980  -42.0810 C.3   299  LEU299      0.0297
     87  CG       -36.1440   22.4050  -41.0690 C.3   299  LEU299      0.0022
     88  CD1      -35.5930   23.7440  -41.5160 C.3   299  LEU299      0.0001
     89  CD2      -36.6240   22.5150  -39.6180 C.3   299  LEU299      0.0001
     90  N        -42.1060   19.4620  -40.1310 N.3   302  PHE302     -0.1227
     91  CA       -42.0880   19.8450  -38.7310 C.3   302  PHE302      0.1736
     92  C        -42.8100   21.1960  -38.5090 C.2   302  PHE302      0.2595
     93  O        -43.6330   21.3530  -37.5930 O.2   302  PHE302     -0.2718
     94  CB       -40.6790   19.9160  -38.1410 C.3   302  PHE302      0.0547
     95  CG       -40.6590   20.0360  -36.6350 C.ar  302  PHE302     -0.0202
     96  CD1      -41.1290   19.0200  -35.8560 C.ar  302  PHE302     -0.0042
     97  CD2      -40.2130   21.1750  -36.0040 C.ar  302  PHE302     -0.0042
     98  CE1      -41.1370   19.1030  -34.4790 C.ar  302  PHE302     -0.0003
     99  CE2      -40.2520   21.2830  -34.6270 C.ar  302  PHE302     -0.0003
    100  CZ       -40.7050   20.2460  -33.8630 C.ar  302  PHE302     -0.0000
    101  N        -42.5480   22.1640  -39.3930 N.am  303  PHE303     -0.1976
    102  CA       -43.2270   23.4620  -39.3330 C.3   303  PHE303      0.1639
    103  C        -44.6850   23.3530  -39.6850 C.2   303  PHE303      0.2290
    104  O        -45.5570   23.8210  -38.9460 O.2   303  PHE303     -0.2864
    105  CB       -42.5760   24.5030  -40.2510 C.3   303  PHE303      0.0560
    106  CG       -41.4500   25.2240  -39.6110 C.ar  303  PHE303     -0.0200
    107  CD1      -40.2590   24.5670  -39.3530 C.ar  303  PHE303     -0.0042
    108  CD2      -41.5710   26.5460  -39.2500 C.ar  303  PHE303     -0.0042
    109  CE1      -39.2030   25.2200  -38.7420 C.ar  303  PHE303     -0.0003
    110  CE2      -40.5250   27.2090  -38.6400 C.ar  303  PHE303     -0.0003
    111  CZ       -39.3440   26.5350  -38.3790 C.ar  303  PHE303     -0.0000
    112  N        -45.8360   23.3770  -35.9080 N.3   307  LEU307     -0.1245
    113  CA       -45.8050   24.7970  -35.6430 C.3   307  LEU307      0.1561
    114  C        -46.8880   25.5710  -36.4110 C.2   307  LEU307      0.2260
    115  O        -47.1370   26.7320  -36.0920 O.2   307  LEU307     -0.2867
    116  CB       -44.4150   25.3260  -35.9510 C.3   307  LEU307      0.0270
    117  CG       -43.2460   24.5200  -35.3580 C.3   307  LEU307      0.0019
    118  CD1      -41.9320   25.2340  -35.6880 C.3   307  LEU307      0.0001
    119  CD2      -43.3870   24.3120  -33.8500 C.3   307  LEU307      0.0001
@<TRIPOS>BOND
     1    38    36    1
     2    36    35    1
     3    71    72    1
     4    31    32    1
     5    35    32    1
     6    35    37    1
     7    81    79    1
     8    72    75    1
     9    72    73    1
    10    32    33    1
    11    75    76    1
    12    82    73   am
    13    82    83    1
    14    79    78    2
    15    79    80    1
    16    73    74    2
    17    63    64    1
    18    26    25    2
    19    66    65    2
    20    86    83    1
    21    86    87    1
    22    84    83    1
    23    84    85    2
    24    65    64    1
    25    78    77    1
    26    64    67    1
    27    88    87    1
    28    33    39   am
    29    33    34    2
    30    56    57    1
    31    76    77    1
    32    25    24    1
    33    57    58    1
    34    57    60    1
    35    59    58    2
    36    87    89    1
    37    23    24    1
    38    39    40    1
    39    24    27    1
    40    61    60    1
    41   105   106    1
    42   105   102    1
    43    90    91    1
    44    60    62    1
    45    42    41    2
    46    67    68    1
    47    44    43    1
    48    29    28    1
    49   103   102    1
    50   103   104    2
    51   106   107   ar
    52   106   108   ar
    53    69    68    1
    54    40    41    1
    55    40    43    1
    56    27    28    1
    57   101   102    1
    58   101    92   am
    59   107   109   ar
    60   108   110   ar
    61    28    30    1
    62    41    46   am
    63    68    70    1
    64    43    45    1
    65    15    14    2
    66   109   111   ar
    67    91    92    1
    68    91    94    1
    69   110   111   ar
    70    49    48    2
    71    92    93    2
    72    48    47    1
    73    94    95    1
    74    14    13    1
    75    46    47    1
    76    47    50    1
    77    13    12    1
    78    13    16    1
    79    95    97   ar
    80    95    96   ar
    81   114   115    2
    82   114   113    1
    83    97    99   ar
    84    21    22   ar
    85    21    19   ar
    86   116   113    1
    87   116   117    1
    88    50    51    1
    89   112   113    1
    90    22    20   ar
    91    96    98   ar
    92    19    17   ar
    93    17    16    1
    94    17    18   ar
    95   118   117    1
    96    20    18   ar
    97   117   119    1
    98    51    53   ar
    99    51    52   ar
   100    53    55   ar
   101    99   100   ar
   102    98   100   ar
   103    52    54   ar
   104    55    54   ar
   105    11     9   ar
   106    11    10   ar
   107     9     7   ar
   108    10     8   ar
   109     7     6   ar
   110     8     6   ar
   111     6     5    1
   112     5     2    1
   113     2     1    1
   114     2     3    1
   115     4     3    2
