@<TRIPOS>MOLECULE
tmp/5xarB00.pdb
 119 115 0 0 0
SMALL
GASTEIGER

@<TRIPOS>ATOM
      1  N        -30.4550   34.2290  -37.1130 N.3    40  PHE40      -0.1241
      2  CA       -30.0550   32.8480  -37.3800 C.3    40  PHE40       0.1605
      3  C        -29.2320   32.6980  -38.6630 C.2    40  PHE40       0.2264
      4  O        -28.2670   31.9560  -38.6980 O.2    40  PHE40      -0.2867
      5  CB       -31.3020   31.9590  -37.5120 C.3    40  PHE40       0.0534
      6  CG       -31.9970   31.6100  -36.2020 C.ar   40  PHE40      -0.0203
      7  CD1      -31.4580   31.8800  -34.9370 C.ar   40  PHE40      -0.0042
      8  CD2      -33.2090   30.9720  -36.2720 C.ar   40  PHE40      -0.0042
      9  CE1      -32.1240   31.5440  -33.7990 C.ar   40  PHE40      -0.0003
     10  CE2      -33.8830   30.6210  -35.1230 C.ar   40  PHE40      -0.0003
     11  CZ       -33.3380   30.9030  -33.8820 C.ar   40  PHE40      -0.0000
     12  N        -34.2800   33.8850  -27.3550 N.3   101  PHE101     -0.1241
     13  CA       -33.9320   32.5580  -27.7430 C.3   101  PHE101      0.1605
     14  C        -33.1270   31.9030  -26.6780 C.2   101  PHE101      0.2264
     15  O        -33.2090   30.6790  -26.5000 O.2   101  PHE101     -0.2867
     16  CB       -33.1020   32.6520  -29.0510 C.3   101  PHE101      0.0534
     17  CG       -32.5260   31.3580  -29.5320 C.ar  101  PHE101     -0.0203
     18  CD1      -33.3480   30.4100  -30.0710 C.ar  101  PHE101     -0.0042
     19  CD2      -31.1560   31.1130  -29.4980 C.ar  101  PHE101     -0.0042
     20  CE1      -32.8250   29.2220  -30.5480 C.ar  101  PHE101     -0.0003
     21  CE2      -30.6290   29.9230  -29.9530 C.ar  101  PHE101     -0.0003
     22  CZ       -31.4670   28.9820  -30.4860 C.ar  101  PHE101     -0.0000
     23  N        -35.4550   30.0530  -24.2430 N.3   104  LEU104     -0.1245
     24  CA       -36.0150   28.8940  -24.9150 C.3   104  LEU104      0.1561
     25  C        -34.9870   27.7990  -24.9170 C.2   104  LEU104      0.2260
     26  O        -35.2520   26.6940  -24.5060 O.2   104  LEU104     -0.2867
     27  CB       -36.3860   29.2480  -26.3430 C.3   104  LEU104      0.0270
     28  CG       -36.9110   28.0360  -27.1140 C.3   104  LEU104      0.0019
     29  CD1      -38.3020   27.5930  -26.6740 C.3   104  LEU104      0.0001
     30  CD2      -36.9330   28.4030  -28.5700 C.3   104  LEU104      0.0001
     31  N        -40.6230    6.9520  -32.2460 N.3   226  ILE226     -0.1231
     32  CA       -40.5780    8.4100  -32.2810 C.3   226  ILE226      0.1692
     33  C        -41.3750    8.9990  -33.4240 C.2   226  ILE226      0.2593
     34  O        -41.5620    8.3800  -34.4590 O.2   226  ILE226     -0.2718
     35  CB       -39.1370    8.9900  -32.2450 C.3   226  ILE226      0.0266
     36  CG1      -38.4760    8.7150  -30.8970 C.3   226  ILE226      0.0019
     37  CG2      -39.1310   10.4890  -32.3500 C.3   226  ILE226      0.0020
     38  CD1      -37.0230    9.0860  -30.8070 C.3   226  ILE226      0.0001
     39  N        -41.8570   10.2120  -33.2180 N.am  227  THR227     -0.1939
     40  CA       -42.5750   10.9800  -34.2430 C.3   227  THR227      0.2028
     41  C        -42.2100   12.4190  -34.0690 C.2   227  THR227      0.2642
     42  O        -41.8440   12.8130  -32.9680 O.2   227  THR227     -0.2714
     43  CB       -44.0980   10.8240  -34.1290 C.3   227  THR227      0.1808
     44  OG1      -44.7000   11.7590  -33.2300 O.3   227  THR227     -0.2208
     45  CG2      -44.4390    9.4300  -33.7670 C.3   227  THR227      0.0379
     46  N        -42.2780   13.2230  -35.1290 N.am  228  HIS228     -0.1973
     47  CA       -42.0710   14.6730  -35.0200 C.3   228  HIS228      0.1656
     48  C        -42.9520   15.2110  -33.8790 C.2   228  HIS228      0.2291
     49  O        -42.5640   16.0980  -33.1160 O.2   228  HIS228     -0.2864
     50  CB       -42.4170   15.3920  -36.3430 C.3   228  HIS228      0.0771
     51  CG       -41.2550   15.4550  -37.2780 C.ar  228  HIS228      0.0820
     52  ND1      -40.7820   14.3560  -37.9600 N.ar  228  HIS228     -0.2267
     53  CD2      -40.3950   16.4590  -37.5510 C.ar  228  HIS228      0.1154
     54  CE1      -39.6990   14.6940  -38.6350 C.ar  228  HIS228      0.1986
     55  NE2      -39.4400   15.9660  -38.3980 N.ar  228  HIS228     -0.2212
     56  N        -41.6180   15.0290  -30.5010 N.3   231  THR231     -0.1218
     57  CA       -40.5930   16.0510  -30.3530 C.3   231  THR231      0.1862
     58  C        -41.2480   17.4130  -30.1700 C.2   231  THR231      0.2287
     59  O        -40.7630   18.2440  -29.4230 O.2   231  THR231     -0.2866
     60  CB       -39.6860   16.0880  -31.5870 C.3   231  THR231      0.1770
     61  OG1      -39.3240   14.7480  -31.9400 O.3   231  THR231     -0.2211
     62  CG2      -38.4670   16.9380  -31.3440 C.3   231  THR231      0.0375
     63  N        -41.3040   20.4440  -27.1320 N.3   235  LEU235     -0.1245
     64  CA       -41.2440   21.8980  -27.2320 C.3   235  LEU235      0.1561
     65  C        -42.3470   22.5450  -26.4320 C.2   235  LEU235      0.2260
     66  O        -42.1140   23.5410  -25.7650 O.2   235  LEU235     -0.2867
     67  CB       -41.3440   22.3330  -28.6860 C.3   235  LEU235      0.0270
     68  CG       -40.8620   23.7230  -29.0400 C.3   235  LEU235      0.0019
     69  CD1      -39.4800   24.0380  -28.5170 C.3   235  LEU235      0.0001
     70  CD2      -40.8760   23.8510  -30.5610 C.3   235  LEU235      0.0001
     71  N        -35.0610   14.2300  -27.7100 N.3   290  ARG290     -0.1231
     72  CA       -34.8220   14.4550  -29.1350 C.3   290  ARG290      0.1694
     73  C        -34.7470   15.9160  -29.4680 C.2   290  ARG290      0.2591
     74  O        -33.9140   16.2840  -30.2660 O.2   290  ARG290     -0.2718
     75  CB       -35.9760   13.7040  -29.9490 C.3   290  ARG290      0.0321
     76  CG       -35.9030   12.2070  -29.8620 C.3   290  ARG290      0.0489
     77  CD       -34.6160   11.4670  -30.2550 C.3   290  ARG290      0.2205
     78  NE       -34.2730   11.4950  -31.6790 N.pl3 290  ARG290     -0.0865
     79  CZ       -34.8930   10.8320  -32.6680 C.cat 290  ARG290      0.5346
     80  NH1      -35.9690   10.0920  -32.4630 N.pl3 290  ARG290      0.1354
     81  NH2      -34.4440   10.9570  -33.9260 N.pl3 290  ARG290      0.1354
     82  N        -35.5330   16.7500  -28.8230 N.am  291  LEU291     -0.1980
     83  CA       -35.4220   18.1900  -28.9760 C.3   291  LEU291      0.1596
     84  C        -34.1050   18.7060  -28.4620 C.2   291  LEU291      0.2287
     85  O        -33.3450   19.3370  -29.2430 O.2   291  LEU291     -0.2864
     86  CB       -36.4560   18.9450  -28.1460 C.3   291  LEU291      0.0297
     87  CG       -37.5850   19.5870  -28.9330 C.3   291  LEU291      0.0022
     88  CD1      -38.3040   20.5340  -27.9730 C.3   291  LEU291      0.0001
     89  CD2      -37.1650   20.3610  -30.2000 C.3   291  LEU291      0.0001
     90  N        -31.3380   18.1280  -30.8310 N.3   294  PHE294     -0.1227
     91  CA       -31.4300   19.0590  -31.9520 C.3   294  PHE294      0.1736
     92  C        -30.9010   20.4540  -31.5610 C.2   294  PHE294      0.2595
     93  O        -30.1370   21.0860  -32.2980 O.2   294  PHE294     -0.2718
     94  CB       -32.8470   19.2070  -32.4900 C.3   294  PHE294      0.0547
     95  CG       -32.9140   19.9460  -33.7920 C.ar  294  PHE294     -0.0202
     96  CD1      -32.3140   19.4270  -34.9110 C.ar  294  PHE294     -0.0042
     97  CD2      -33.5650   21.1590  -33.9040 C.ar  294  PHE294     -0.0042
     98  CE1      -32.3760   20.0760  -36.1420 C.ar  294  PHE294     -0.0003
     99  CE2      -33.6040   21.8310  -35.1200 C.ar  294  PHE294     -0.0003
    100  CZ       -33.0060   21.2840  -36.2450 C.ar  294  PHE294     -0.0000
    101  N        -31.2660   20.9190  -30.3620 N.am  295  PHE295     -0.1976
    102  CA       -30.7680   22.1940  -29.8400 C.3   295  PHE295      0.1639
    103  C        -29.2940   22.1450  -29.5280 C.2   295  PHE295      0.2290
    104  O        -28.5120   22.9880  -29.9800 O.2   295  PHE295     -0.2864
    105  CB       -31.5280   22.6650  -28.5870 C.3   295  PHE295      0.0560
    106  CG       -32.7680   23.4370  -28.9020 C.ar  295  PHE295     -0.0200
    107  CD1      -33.8600   22.7980  -29.4510 C.ar  295  PHE295     -0.0042
    108  CD2      -32.8320   24.8020  -28.6720 C.ar  295  PHE295     -0.0042
    109  CE1      -35.0050   23.5040  -29.7580 C.ar  295  PHE295     -0.0003
    110  CE2      -33.9720   25.5120  -28.9670 C.ar  295  PHE295     -0.0003
    111  CZ       -35.0560   24.8630  -29.5140 C.ar  295  PHE295     -0.0000
    112  N        -28.2550   23.8910  -32.9140 N.3   299  LEU299     -0.1245
    113  CA       -28.4900   25.2790  -32.5580 C.3   299  LEU299      0.1561
    114  C        -27.4960   25.7950  -31.5090 C.2   299  LEU299      0.2260
    115  O        -27.4120   27.0060  -31.3090 O.2   299  LEU299     -0.2867
    116  CB       -29.9400   25.4550  -32.0880 C.3   299  LEU299      0.0270
    117  CG       -31.0300   24.8340  -32.9940 C.3   299  LEU299      0.0019
    118  CD1      -32.4060   25.1550  -32.4430 C.3   299  LEU299      0.0001
    119  CD2      -30.9050   25.2890  -34.4570 C.3   299  LEU299      0.0001
@<TRIPOS>BOND
     1     4     3    2
     2     3     2    1
     3    54    55   ar
     4    54    52   ar
     5    55    53   ar
     6    52    51   ar
     7    53    51   ar
     8     5     2    1
     9     5     6    1
    10     2     1    1
    11    51    50    1
    12    50    47    1
    13     8     6   ar
    14     8    10   ar
    15   100    98   ar
    16   100    99   ar
    17     6     7   ar
    18    98    96   ar
    19    46    47    1
    20    46    41   am
    21    10    11   ar
    22    99    97   ar
    23    47    48    1
    24     7     9   ar
    25    96    95   ar
    26    34    33    2
    27   119   117    1
    28    40    43    1
    29    40    41    1
    30    40    39    1
    31    43    45    1
    32    43    44    1
    33    41    42    2
    34    81    79    1
    35    97    95   ar
    36    11     9   ar
    37    48    49    2
    38    95    94    1
    39    33    39   am
    40    33    32    1
    41   117   118    1
    42   117   116    1
    43   112   113    1
    44    79    80    1
    45    79    78    2
    46   113   116    1
    47   113   114    1
    48    94    91    1
    49    37    35    1
    50    93    92    2
    51    32    31    1
    52    32    35    1
    53    35    36    1
    54    91    92    1
    55    91    90    1
    56    61    60    1
    57    78    77    1
    58    60    62    1
    59    60    57    1
    60    92   101   am
    61   114   115    2
    62    36    38    1
    63    70    68    1
    64    20    22   ar
    65    20    18   ar
    66    56    57    1
    67    22    21   ar
    68   101   102    1
    69    57    58    1
    70    74    73    2
    71    77    76    1
    72    89    87    1
    73    58    59    2
    74    18    17   ar
    75   104   103    2
    76    21    19   ar
    77    75    76    1
    78    75    72    1
    79   102   103    1
    80   102   105    1
    81   109   111   ar
    82   109   107   ar
    83    17    19   ar
    84    17    16    1
    85   111   110   ar
    86    73    72    1
    87    73    82   am
    88   107   106   ar
    89    85    84    2
    90    72    71    1
    91    16    13    1
    92    68    67    1
    93    68    69    1
    94    83    82    1
    95    83    84    1
    96    83    86    1
    97   110   108   ar
    98    87    86    1
    99    87    88    1
   100   106   108   ar
   101   106   105    1
   102    67    64    1
   103    30    28    1
   104    13    12    1
   105    13    14    1
   106    64    63    1
   107    64    65    1
   108    28    29    1
   109    28    27    1
   110    14    15    2
   111    65    66    2
   112    27    24    1
   113    25    24    1
   114    25    26    2
   115    24    23    1
