@<TRIPOS>MOLECULE
tmp/5xasB00.pdb
 96 89 0 0 0
SMALL
GASTEIGER

@<TRIPOS>ATOM
      1  N        -42.0530  -73.8790   47.8090 N.3   105  PHE105     -0.1241
      2  CA       -40.9090  -74.6280   48.3400 C.3   105  PHE105      0.1605
      3  C        -41.2770  -76.1250   48.4400 C.2   105  PHE105      0.2264
      4  O        -40.5480  -76.9840   47.8980 O.2   105  PHE105     -0.2867
      5  CB       -40.5490  -74.1250   49.7380 C.3   105  PHE105      0.0534
      6  CG       -39.3100  -74.7280   50.3330 C.ar  105  PHE105     -0.0203
      7  CD1      -39.3320  -75.9190   51.0640 C.ar  105  PHE105     -0.0042
      8  CD2      -38.1150  -74.0610   50.2080 C.ar  105  PHE105     -0.0042
      9  CE1      -38.1620  -76.4480   51.6100 C.ar  105  PHE105     -0.0003
     10  CE2      -36.9520  -74.5770   50.7530 C.ar  105  PHE105     -0.0003
     11  CZ       -36.9650  -75.7620   51.4680 C.ar  105  PHE105     -0.0000
     12  N        -39.9670  -79.4730   46.4080 N.3   109  LEU109     -0.1245
     13  CA       -39.4590  -80.6110   47.1510 C.3   109  LEU109      0.1561
     14  C        -40.1250  -81.9100   46.7970 C.2   109  LEU109      0.2260
     15  O        -39.4570  -82.8940   46.4750 O.2   109  LEU109     -0.2867
     16  CB       -39.6350  -80.3870   48.6520 C.3   109  LEU109      0.0270
     17  CG       -38.3620  -79.9760   49.3810 C.3   109  LEU109      0.0019
     18  CD1      -37.7650  -78.7210   48.7510 C.3   109  LEU109      0.0001
     19  CD2      -38.6380  -79.7680   50.8670 C.3   109  LEU109      0.0001
     20  N        -41.7730  -87.0290   56.7700 N.3   169  GLY169     -0.1225
     21  CA       -40.4750  -86.9520   56.0990 C.3   169  GLY169      0.1811
     22  C        -39.4810  -85.9190   56.6880 C.2   169  GLY169      0.2280
     23  O        -38.7080  -85.3250   55.9650 O.2   169  GLY169     -0.2866
     24  N        -38.4510  -82.4040   58.9660 N.3   171  ASN171     -0.1225
     25  CA       -38.8360  -81.0430   59.2730 C.3   171  ASN171      0.1785
     26  C        -39.4180  -80.2690   58.0960 C.2   171  ASN171      0.2598
     27  O        -40.6050  -80.0660   58.0580 O.2   171  ASN171     -0.2718
     28  CB       -37.6200  -80.2730   59.8610 C.3   171  ASN171      0.1169
     29  CG       -37.9860  -78.8340   60.3530 C.2   171  ASN171      0.2627
     30  OD1      -39.0070  -78.5890   60.9850 O.2   171  ASN171     -0.2716
     31  ND2      -37.1420  -77.8840   60.0220 N.am  171  ASN171     -0.0877
     32  N        -38.5700  -79.8810   57.1280 N.am  172  GLY172     -0.1942
     33  CA       -39.0160  -79.1350   55.9790 C.3   172  GLY172      0.2014
     34  C        -40.0350  -79.8900   55.1460 C.2   172  GLY172      0.2638
     35  O        -41.0400  -79.3480   54.7030 O.2   172  GLY172     -0.2714
     36  N        -39.8320  -81.1970   55.0710 N.am  173  ALA173     -0.1977
     37  CA       -40.7530  -82.0740   54.3070 C.3   173  ALA173      0.1597
     38  C        -42.0060  -82.5600   54.9770 C.2   173  ALA173      0.2287
     39  O        -42.9980  -82.7390   54.2900 O.2   173  ALA173     -0.2864
     40  CB       -39.9950  -83.2680   53.7020 C.3   173  ALA173      0.0319
     41  N        -33.5380  -76.9850   48.9000 N.3   294  SER294     -0.1217
     42  CA       -33.2180  -77.7420   50.1200 C.3   294  SER294      0.1889
     43  C        -31.8780  -77.4030   50.7090 C.2   294  SER294      0.2288
     44  O        -31.6650  -77.6650   51.9090 O.2   294  SER294     -0.2866
     45  CB       -33.1940  -79.2360   49.7970 C.3   294  SER294      0.2089
     46  OG       -34.4480  -79.6910   49.3500 O.3   294  SER294     -0.2183
     47  N        -33.3880  -73.3700   52.0770 N.3   298  LEU298     -0.1245
     48  CA       -33.9410  -74.0140   53.2800 C.3   298  LEU298      0.1561
     49  C        -33.7710  -73.0900   54.5170 C.2   298  LEU298      0.2260
     50  O        -34.6650  -72.9670   55.3670 O.2   298  LEU298     -0.2867
     51  CB       -33.2870  -75.3770   53.5050 C.3   298  LEU298      0.0270
     52  CG       -33.6180  -76.1020   54.8100 C.3   298  LEU298      0.0019
     53  CD1      -35.1080  -76.2270   55.0490 C.3   298  LEU298      0.0001
     54  CD2      -32.9890  -77.4780   54.7920 C.3   298  LEU298      0.0001
     55  N        -35.4650  -87.8950   61.0580 N.3   363  ARG363     -0.1231
     56  CA       -35.7050  -86.5570   60.5240 C.3   363  ARG363      0.1694
     57  C        -35.2920  -86.4040   59.0560 C.2   363  ARG363      0.2593
     58  O        -34.3440  -85.7790   58.7360 O.2   363  ARG363     -0.2718
     59  CB       -35.0170  -85.4530   61.3580 C.3   363  ARG363      0.0321
     60  CG       -35.8820  -84.8790   62.4520 C.3   363  ARG363      0.0489
     61  CD       -35.0960  -83.9970   63.4060 C.3   363  ARG363      0.2205
     62  NE       -35.6190  -82.6360   63.3720 N.pl3 363  ARG363     -0.0865
     63  CZ       -34.8680  -81.5470   63.4720 C.cat 363  ARG363      0.5346
     64  NH1      -33.5670  -81.6390   63.6500 N.pl3 363  ARG363      0.1354
     65  NH2      -35.4300  -80.3610   63.4090 N.pl3 363  ARG363      0.1354
     66  N        -36.0670  -87.0070   58.1580 N.am  364  GLY364     -0.1942
     67  CA       -35.8640  -87.0040   56.7470 C.3   364  GLY364      0.2014
     68  C        -34.5200  -87.4840   56.2670 C.2   364  GLY364      0.2639
     69  O        -34.0530  -88.5530   56.6710 O.2   364  GLY364     -0.2714
     70  N        -33.8500  -86.6520   55.4710 N.am  365  GLY365     -0.1939
     71  CA       -32.5180  -86.9680   54.9490 C.3   365  GLY365      0.2014
     72  C        -31.3450  -86.8560   55.8670 C.2   365  GLY365      0.2639
     73  O        -30.5570  -87.8090   56.0580 O.2   365  GLY365     -0.2714
     74  N        -31.2250  -85.7570   56.6110 N.am  366  SER366     -0.1949
     75  CA       -30.1920  -85.5580   57.6200 C.3   366  SER366      0.1924
     76  C        -30.1740  -86.7310   58.6250 C.2   366  SER366      0.2314
     77  O        -29.1070  -87.2340   59.0100 O.2   366  SER366     -0.2863
     78  CB       -30.4140  -84.2590   58.4050 C.3   366  SER366      0.2116
     79  OG       -31.5670  -84.3150   59.2480 O.3   366  SER366     -0.2180
     80  N        -37.8250  -91.9280   53.5340 N.3   388  SER388     -0.1202
     81  CA       -37.8650  -90.5210   53.8780 C.3   388  SER388      0.2020
     82  C        -38.6050  -89.6740   52.8360 C.2   388  SER388      0.2618
     83  O        -39.2580  -88.6640   53.1870 O.2   388  SER388     -0.2717
     84  CB       -36.4690  -89.9570   54.1460 C.3   388  SER388      0.2103
     85  OG       -35.8940  -90.5930   55.2750 O.3   388  SER388     -0.2182
     86  N        -38.5230  -90.0770   51.5690 N.am  389  ARG389     -0.1979
     87  CA       -39.0770  -89.2720   50.4810 C.3   389  ARG389      0.1597
     88  C        -40.4320  -89.7720   49.9790 C.2   389  ARG389      0.2287
     89  O        -41.4630  -89.0700   50.0900 O.2   389  ARG389     -0.2864
     90  CB       -38.1260  -89.2420   49.2680 C.3   389  ARG389      0.0334
     91  CG       -36.7260  -88.7420   49.4950 C.3   389  ARG389      0.0492
     92  CD       -35.9940  -88.8390   48.1640 C.3   389  ARG389      0.2205
     93  NE       -34.6230  -88.3820   48.2900 N.pl3 389  ARG389     -0.0865
     94  CZ       -33.7650  -88.2570   47.2830 C.cat 389  ARG389      0.5346
     95  NH1      -34.1290  -88.5660   46.0400 N.pl3 389  ARG389      0.1354
     96  NH2      -32.5310  -87.8120   47.5280 N.pl3 389  ARG389      0.1354
@<TRIPOS>BOND
     1    95    94    1
     2    12    13    1
     3    15    14    2
     4    14    13    1
     5    13    16    1
     6    94    96    1
     7    94    93    2
     8     1     2    1
     9     4     3    2
    10    92    93    1
    11    92    91    1
    12     2     3    1
    13     2     5    1
    14    16    17    1
    15    18    17    1
    16    41    42    1
    17    90    91    1
    18    90    87    1
    19    46    45    1
    20    17    19    1
    21     5     6    1
    22    45    42    1
    23    88    89    2
    24    88    87    1
    25    42    43    1
    26     8     6   ar
    27     8    10   ar
    28     6     7   ar
    29    87    86    1
    30    43    44    2
    31    10    11   ar
    32     7     9   ar
    33    11     9   ar
    34    86    82   am
    35    47    48    1
    36    82    83    2
    37    82    81    1
    38    48    51    1
    39    48    49    1
    40    51    52    1
    41    80    81    1
    42    40    37    1
    43    81    84    1
    44    84    85    1
    45    39    38    2
    46    37    38    1
    47    37    36    1
    48    49    50    2
    49    35    34    2
    50    54    52    1
    51    52    53    1
    52    71    70    1
    53    71    72    1
    54    36    34   am
    55    34    33    1
    56    70    68   am
    57    72    73    2
    58    72    74   am
    59    23    22    2
    60    33    32    1
    61    21    22    1
    62    21    20    1
    63    68    69    2
    64    68    67    1
    65    74    75    1
    66    67    66    1
    67    32    26   am
    68    75    78    1
    69    75    76    1
    70    27    26    2
    71    26    25    1
    72    66    57   am
    73    78    79    1
    74    76    77    2
    75    58    57    2
    76    24    25    1
    77    57    56    1
    78    25    28    1
    79    28    29    1
    80    31    29   am
    81    29    30    2
    82    56    55    1
    83    56    59    1
    84    59    60    1
    85    60    61    1
    86    62    61    1
    87    62    63    2
    88    65    63    1
    89    63    64    1
