@<TRIPOS>MOLECULE
tmp/5xatC00.pdb
 125 122 0 0 0
SMALL
GASTEIGER

@<TRIPOS>ATOM
      1  N          6.0420  -43.1060  -10.8710 N.3    97  LEU97      -0.1231
      2  CA         6.7750  -42.3950   -9.8470 C.3    97  LEU97       0.1693
      3  C          7.3300  -43.3390   -8.8160 C.2    97  LEU97       0.2592
      4  O          8.5050  -43.2660   -8.4660 O.2    97  LEU97      -0.2718
      5  CB         5.8810  -41.3940   -9.1400 C.3    97  LEU97       0.0284
      6  CG         6.5990  -40.6620   -8.0060 C.3    97  LEU97       0.0019
      7  CD1        7.5730  -39.6380   -8.5550 C.3    97  LEU97       0.0001
      8  CD2        5.5740  -40.0040   -7.1260 C.3    97  LEU97       0.0001
      9  N          6.4680  -44.2030   -8.3030 N.am   98  ASN98      -0.1974
     10  CA         6.9030  -45.1300   -7.2700 C.3    98  ASN98       0.1688
     11  C          7.9570  -46.0850   -7.7910 C.2    98  ASN98       0.2292
     12  O          9.0030  -46.2380   -7.1670 O.2    98  ASN98      -0.2864
     13  CB         5.7250  -45.9030   -6.6740 C.3    98  ASN98       0.1181
     14  CG         4.8680  -45.0460   -5.7510 C.2    98  ASN98       0.2629
     15  OD1        5.0460  -43.8330   -5.6580 O.2    98  ASN98      -0.2716
     16  ND2        3.9490  -45.6840   -5.0430 N.am   98  ASN98      -0.0877
     17  N         11.2720  -44.4440   -7.8430 N.3   101  ILE101     -0.1245
     18  CA        11.8770  -44.3350   -6.5090 C.3   101  ILE101      0.1561
     19  C         12.2890  -45.7140   -6.0030 C.2   101  ILE101      0.2260
     20  O         13.3760  -45.8870   -5.4590 O.2   101  ILE101     -0.2867
     21  CB        10.9230  -43.6870   -5.4930 C.3   101  ILE101      0.0252
     22  CG1       10.5860  -42.2600   -5.9140 C.3   101  ILE101      0.0019
     23  CG2       11.5560  -43.6340   -4.1090 C.3   101  ILE101      0.0019
     24  CD1        9.3630  -41.7170   -5.2180 C.3   101  ILE101      0.0001
     25  N          5.9280  -34.9720    5.4900 N.3   164  GLY164     -0.1210
     26  CA         6.4060  -35.7690    4.3700 C.3   164  GLY164      0.1956
     27  C          5.5780  -35.6710    3.1080 C.2   164  GLY164      0.2612
     28  O          5.3630  -36.6650    2.4330 O.2   164  GLY164     -0.2717
     29  N          5.1690  -34.4560    2.7450 N.am  165  GLY165     -0.1942
     30  CA         4.5600  -34.1840    1.4450 C.3   165  GLY165      0.2014
     31  C          3.0650  -34.0510    1.4420 C.2   165  GLY165      0.2639
     32  O          2.4550  -33.7670    2.4610 O.2   165  GLY165     -0.2714
     33  N          2.4880  -34.2750    0.2650 N.am  166  ASN166     -0.1958
     34  CA         1.0640  -34.1530    0.0480 C.3   166  ASN166      0.1819
     35  C          0.3500  -35.2900    0.7460 C.2   166  ASN166      0.2621
     36  O         -0.4050  -35.0390    1.6730 O.2   166  ASN166     -0.2715
     37  CB         0.7580  -34.1500   -1.4500 C.3   166  ASN166      0.1195
     38  CG        -0.6310  -33.6650   -1.7700 C.2   166  ASN166      0.2630
     39  OD1       -1.5740  -33.8730   -1.0320 O.2   166  ASN166     -0.2716
     40  ND2       -0.7470  -32.9910   -2.8810 N.am  166  ASN166     -0.0877
     41  N          0.6110  -36.5200    0.3120 N.am  167  GLY167     -0.1954
     42  CA        -0.0370  -37.6940    0.8710 C.3   167  GLY167      0.1869
     43  C          0.3360  -37.8910    2.3280 C.2   167  GLY167      0.2309
     44  O         -0.5230  -38.1850    3.1420 O.2   167  GLY167     -0.2863
     45  N          5.2120  -45.5210    6.8800 N.3   262  HIS262     -0.1226
     46  CA         4.8890  -45.4490    5.4450 C.3   262  HIS262      0.1752
     47  C          5.6420  -46.5500    4.7030 C.2   262  HIS262      0.2596
     48  O          6.8010  -46.8180    5.0070 O.2   262  HIS262     -0.2718
     49  CB         5.2660  -44.0670    4.8820 C.3   262  HIS262      0.0759
     50  CG         4.8680  -43.8570    3.4550 C.ar  262  HIS262      0.0818
     51  ND1        5.7050  -44.1520    2.4020 N.ar  262  HIS262     -0.2268
     52  CD2        3.7240  -43.3860    2.9060 C.ar  262  HIS262      0.1154
     53  CE1        5.0920  -43.8820    1.2630 C.ar  262  HIS262      0.1986
     54  NE2        3.8910  -43.4070    1.5420 N.ar  262  HIS262     -0.2212
     55  N          4.9860  -47.1710    3.7250 N.am  263  TYR263     -0.1962
     56  CA         5.5490  -48.3490    3.0400 C.3   263  TYR263      0.1771
     57  C          6.9770  -48.1580    2.5000 C.2   263  TYR263      0.2619
     58  O          7.7740  -49.0860    2.5420 O.2   263  TYR263     -0.2715
     59  CB         4.6170  -48.8850    1.9330 C.3   263  TYR263      0.0574
     60  CG         4.1880  -47.8750    0.8930 C.ar  263  TYR263     -0.0198
     61  CD1        5.0820  -47.4140   -0.0710 C.ar  263  TYR263     -0.0009
     62  CD2        2.8820  -47.3850    0.8570 C.ar  263  TYR263     -0.0009
     63  CE1        4.7040  -46.4790   -1.0170 C.ar  263  TYR263      0.0417
     64  CE2        2.4920  -46.4510   -0.0970 C.ar  263  TYR263      0.0417
     65  CZ         3.4120  -46.0030   -1.0360 C.ar  263  TYR263      0.1957
     66  OH         3.0690  -45.0820   -2.0060 O.3   263  TYR263     -0.2866
     67  N          7.2920  -46.9670    1.9850 N.am  264  PHE264     -0.1974
     68  CA         8.6550  -46.6570    1.5010 C.3   264  PHE264      0.1639
     69  C          9.6950  -46.7720    2.6130 C.2   264  PHE264      0.2290
     70  O         10.7960  -47.2490    2.3670 O.2   264  PHE264     -0.2864
     71  CB         8.7760  -45.2620    0.8280 C.3   264  PHE264      0.0560
     72  CG         8.5730  -45.2630   -0.6730 C.ar  264  PHE264     -0.0200
     73  CD1        9.2810  -46.1370   -1.4990 C.ar  264  PHE264     -0.0042
     74  CD2        7.7030  -44.3510   -1.2640 C.ar  264  PHE264     -0.0042
     75  CE1        9.0960  -46.1230   -2.8710 C.ar  264  PHE264     -0.0003
     76  CE2        7.5190  -44.3330   -2.6360 C.ar  264  PHE264     -0.0003
     77  CZ         8.2170  -45.2200   -3.4390 C.ar  264  PHE264     -0.0000
     78  N          2.7200  -32.7700   -9.8230 N.3   311  TYR311     -0.1241
     79  CA         2.9760  -32.4310   -8.4250 C.3   311  TYR311      0.1605
     80  C          3.4360  -31.0060   -8.1980 C.2   311  TYR311      0.2264
     81  O          4.2780  -30.7540   -7.3280 O.2   311  TYR311     -0.2867
     82  CB         3.9540  -33.4240   -7.8350 C.3   311  TYR311      0.0534
     83  CG         3.6560  -34.8320   -8.2380 C.ar  311  TYR311     -0.0201
     84  CD1        2.4200  -35.3960   -7.9640 C.ar  311  TYR311     -0.0009
     85  CD2        4.5990  -35.6040   -8.9210 C.ar  311  TYR311     -0.0009
     86  CE1        2.1230  -36.7040   -8.3360 C.ar  311  TYR311      0.0417
     87  CE2        4.3170  -36.9110   -9.2940 C.ar  311  TYR311      0.0417
     88  CZ         3.0830  -37.4620   -9.0070 C.ar  311  TYR311      0.1957
     89  OH         2.8490  -38.7620   -9.3840 O.3   311  TYR311     -0.2866
     90  N          8.4050  -31.4500   -0.9260 N.3   365  ARG365     -0.1231
     91  CA         7.1540  -32.1940   -1.1000 C.3   365  ARG365      0.1694
     92  C          7.3670  -33.7220   -1.1970 C.2   365  ARG365      0.2593
     93  O          6.9860  -34.3820   -2.1840 O.2   365  ARG365     -0.2718
     94  CB         6.4320  -31.6510   -2.3190 C.3   365  ARG365      0.0321
     95  CG         4.9920  -32.0550   -2.4830 C.3   365  ARG365      0.0489
     96  CD         4.4250  -31.3050   -3.6540 C.3   365  ARG365      0.2205
     97  NE         3.0880  -31.7140   -4.0540 N.pl3 365  ARG365     -0.0865
     98  CZ         2.2240  -30.9480   -4.7180 C.cat 365  ARG365      0.5346
     99  NH1        2.5230  -29.6910   -5.0360 N.pl3 365  ARG365      0.1354
    100  NH2        1.0380  -31.4240   -5.0600 N.pl3 365  ARG365      0.1354
    101  N          7.9590  -34.2740   -0.1380 N.am  366  GLY366     -0.1942
    102  CA         8.1260  -35.7160    0.0270 C.3   366  GLY366      0.2014
    103  C          8.8710  -36.3800   -1.1060 C.2   366  GLY366      0.2639
    104  O          9.9260  -35.9070   -1.4860 O.2   366  GLY366     -0.2714
    105  N          8.2840  -37.4410   -1.6670 N.am  367  GLY367     -0.1939
    106  CA         8.9480  -38.2690   -2.6730 C.3   367  GLY367      0.2014
    107  C          9.1580  -37.5850   -4.0010 C.2   367  GLY367      0.2639
    108  O         10.2710  -37.5970   -4.5440 O.2   367  GLY367     -0.2714
    109  N          8.0900  -36.9950   -4.5320 N.am  368  SER368     -0.1949
    110  CA         8.1930  -36.1810   -5.7400 C.3   368  SER368      0.1924
    111  C          9.2330  -35.0940   -5.5230 C.2   368  SER368      0.2314
    112  O         10.0560  -34.8630   -6.3910 O.2   368  SER368     -0.2863
    113  CB         6.8570  -35.5480   -6.1150 C.3   368  SER368      0.2116
    114  OG         6.4130  -34.6550   -5.1210 O.3   368  SER368     -0.2180
    115  N          9.7970  -40.1210    4.6500 N.3   391  ARG391     -0.1245
    116  CA         8.9090  -41.1850    5.1370 C.3   391  ARG391      0.1563
    117  C          8.9470  -41.3720    6.6430 C.2   391  ARG391      0.2260
    118  O          7.9450  -41.1250    7.3080 O.2   391  ARG391     -0.2867
    119  CB         9.2320  -42.4910    4.4270 C.3   391  ARG391      0.0307
    120  CG         9.2010  -42.3620    2.9270 C.3   391  ARG391      0.0489
    121  CD         7.9810  -41.6590    2.3620 C.3   391  ARG391      0.2205
    122  NE         8.1110  -41.4770    0.9240 N.pl3 391  ARG391     -0.0865
    123  CZ         7.2350  -40.8290    0.1620 C.cat 391  ARG391      0.5346
    124  NH1        6.1310  -40.2990    0.6880 N.pl3 391  ARG391      0.1354
    125  NH2        7.4560  -40.7160   -1.1400 N.pl3 391  ARG391      0.1354
@<TRIPOS>BOND
     1     1     2    1
     2     2     5    1
     3     2     3    1
     4    78    79    1
     5    89    88    1
     6    87    88   ar
     7    87    85   ar
     8     5     6    1
     9    88    86   ar
    10    85    83   ar
    11     3     4    2
    12     3     9   am
    13     7     6    1
    14    79    80    1
    15    79    82    1
    16    86    84   ar
    17     9    10    1
    18    83    84   ar
    19    83    82    1
    20    80    81    2
    21     6     8    1
    22    17    18    1
    23    11    10    1
    24    11    12    2
    25    10    13    1
    26    13    14    1
    27    18    19    1
    28    18    21    1
    29   112   111    2
    30   113   110    1
    31   113   114    1
    32    19    20    2
    33    22    21    1
    34    22    24    1
    35    14    15    2
    36    14    16   am
    37   110   111    1
    38   110   109    1
    39    21    23    1
    40   100    98    1
    41    99    98    1
    42    98    97    2
    43   108   107    2
    44   109   107   am
    45    97    96    1
    46   107   106    1
    47    96    95    1
    48    77    75   ar
    49    77    76   ar
    50    40    38   am
    51    75    73   ar
    52   106   105    1
    53    76    74   ar
    54    95    94    1
    55    94    91    1
    56    93    92    2
    57    66    65    1
    58    38    37    1
    59    38    39    2
    60   105   103   am
    61    73    72   ar
    62   104   103    2
    63    37    34    1
    64    74    72   ar
    65    92    91    1
    66    92   101   am
    67   125   123    1
    68   103   102    1
    69    91    90    1
    70    65    63   ar
    71    65    64   ar
    72    63    61   ar
    73    72    71    1
    74   101   102    1
    75    64    62   ar
    76    61    60   ar
    77    34    33    1
    78    34    35    1
    79   123   124    1
    80   123   122    2
    81    33    31   am
    82    41    35   am
    83    41    42    1
    84    35    36    2
    85    71    68    1
    86    62    60   ar
    87    42    43    1
    88    60    59    1
    89   122   121    1
    90    53    54   ar
    91    53    51   ar
    92    31    30    1
    93    31    32    2
    94    30    29    1
    95    68    67    1
    96    68    69    1
    97    54    52   ar
    98    59    56    1
    99    67    57   am
   100    43    44    2
   101   121   120    1
   102    70    69    2
   103    51    50   ar
   104    28    27    2
   105    57    58    2
   106    57    56    1
   107    29    27   am
   108    52    50   ar
   109   120   119    1
   110    56    55    1
   111    27    26    1
   112    50    49    1
   113    55    47   am
   114    26    25    1
   115   119   116    1
   116   115   116    1
   117    47    48    2
   118    47    46    1
   119    49    46    1
   120   116   117    1
   121    46    45    1
   122   117   118    2
