@<TRIPOS>MOLECULE
tmp/5xawA00.pdb
 120 116 0 0 0
SMALL
GASTEIGER

@<TRIPOS>ATOM
      1  N         -8.0510   15.1290   -4.0980 N.3    36  HIS36      -0.1226
      2  CA        -8.1290   13.7200   -4.4700 C.3    36  HIS36       0.1752
      3  C         -6.7470   13.0890   -4.4000 C.2    36  HIS36       0.2596
      4  O         -5.7880   13.6400   -4.9510 O.2    36  HIS36      -0.2718
      5  CB        -8.6980   13.5630   -5.8840 C.3    36  HIS36       0.0759
      6  CG       -10.1230   13.9930   -6.0040 C.ar   36  HIS36       0.0818
      7  ND1      -10.9860   14.0030   -4.9300 N.ar   36  HIS36      -0.2268
      8  CD2      -10.8330   14.4520   -7.0600 C.ar   36  HIS36       0.1154
      9  CE1      -12.1700   14.4390   -5.3190 C.ar   36  HIS36       0.1986
     10  NE2      -12.1030   14.7210   -6.6070 N.ar   36  HIS36      -0.2212
     11  N         -6.6440   11.9270   -3.7440 N.am   37  PHE37      -0.1962
     12  CA        -5.3860   11.1990   -3.6910 C.3    37  PHE37       0.1771
     13  C         -5.5880    9.7220   -4.0090 C.2    37  PHE37       0.2619
     14  O         -6.6530    9.1520   -3.7610 O.2    37  PHE37      -0.2715
     15  CB        -4.6910   11.3530   -2.3230 C.3    37  PHE37       0.0574
     16  CG        -5.3400   10.5910   -1.1960 C.ar   37  PHE37      -0.0200
     17  CD1       -4.9140    9.3070   -0.8730 C.ar   37  PHE37      -0.0042
     18  CD2       -6.3340   11.1760   -0.4180 C.ar   37  PHE37      -0.0042
     19  CE1       -5.4890    8.6050    0.1740 C.ar   37  PHE37      -0.0003
     20  CE2       -6.9170   10.4790    0.6390 C.ar   37  PHE37      -0.0003
     21  CZ        -6.4970    9.1920    0.9360 C.ar   37  PHE37      -0.0000
     22  N         -4.5340    9.1040   -4.5390 N.am   38  ARG38      -0.1977
     23  CA        -4.5610    7.6960   -4.8940 C.3    38  ARG38       0.1597
     24  C         -3.1610    7.1270   -4.7760 C.2    38  ARG38       0.2287
     25  O         -2.1970    7.7360   -5.2550 O.2    38  ARG38      -0.2864
     26  CB        -5.0880    7.5110   -6.3280 C.3    38  ARG38       0.0334
     27  CG        -4.7740    6.1710   -6.9690 C.3    38  ARG38       0.0492
     28  CD        -5.1700    6.1950   -8.4700 C.3    38  ARG38       0.2205
     29  NE        -6.6200    6.1870   -8.6570 N.pl3  38  ARG38      -0.0865
     30  CZ        -7.2480    6.6860   -9.7290 C.cat  38  ARG38       0.5346
     31  NH1       -6.5640    7.2550  -10.7190 N.pl3  38  ARG38       0.1354
     32  NH2       -8.5740    6.6290   -9.8070 N.pl3  38  ARG38       0.1354
     33  N         -0.8560    3.8760   -5.9080 N.3    40  THR40      -0.1218
     34  CA        -0.7530    2.7520   -6.8310 C.3    40  THR40       0.1862
     35  C          0.5080    1.9510   -6.5460 C.2    40  THR40       0.2287
     36  O          1.5050    2.4780   -6.0290 O.2    40  THR40      -0.2866
     37  CB        -0.7150    3.1910   -8.3400 C.3    40  THR40       0.1770
     38  OG1        0.4480    3.9870   -8.5960 O.3    40  THR40      -0.2211
     39  CG2       -1.9460    3.9820   -8.7290 C.3    40  THR40       0.0375
     40  N         -0.0570   -4.1120  -11.8090 N.3    47  PHE47      -0.1241
     41  CA        -0.5490   -2.8070  -11.4060 C.3    47  PHE47       0.1605
     42  C         -1.7030   -3.0130  -10.4480 C.2    47  PHE47       0.2264
     43  O         -2.5250   -3.9110  -10.6520 O.2    47  PHE47      -0.2867
     44  CB        -1.0400   -1.9790  -12.6020 C.3    47  PHE47       0.0534
     45  CG        -1.8300   -0.7560  -12.2040 C.ar   47  PHE47      -0.0203
     46  CD1       -1.1830    0.4470  -11.9560 C.ar   47  PHE47      -0.0042
     47  CD2       -3.2110   -0.8070  -12.0940 C.ar   47  PHE47      -0.0042
     48  CE1       -1.8820    1.5760  -11.5960 C.ar   47  PHE47      -0.0003
     49  CE2       -3.9250    0.3210  -11.7260 C.ar   47  PHE47      -0.0003
     50  CZ        -3.2570    1.5180  -11.4790 C.ar   47  PHE47      -0.0000
     51  N         -4.4360   -0.4340   -7.8010 N.3    49  ILE49      -0.1245
     52  CA        -4.7840    0.7090   -6.9780 C.3    49  ILE49       0.1561
     53  C         -4.8370    0.2080   -5.5410 C.2    49  ILE49       0.2260
     54  O         -5.5990   -0.7110   -5.2210 O.2    49  ILE49      -0.2867
     55  CB        -6.1140    1.3390   -7.3970 C.3    49  ILE49       0.0252
     56  CG1       -6.0000    1.9400   -8.7990 C.3    49  ILE49       0.0019
     57  CG2       -6.5270    2.4000   -6.3790 C.3    49  ILE49       0.0019
     58  CD1       -7.3260    2.4290   -9.3380 C.3    49  ILE49       0.0001
     59  N         -7.5360    4.8330   -2.2150 N.3    52  GLU52      -0.1231
     60  CA        -7.9960    6.0880   -2.7900 C.3    52  GLU52       0.1699
     61  C         -8.7640    6.8550   -1.7370 C.2    52  GLU52       0.2593
     62  O         -9.3250    6.2610   -0.8110 O.2    52  GLU52      -0.2718
     63  CB        -8.9490    5.8870   -3.9890 C.3    52  GLU52       0.0402
     64  CG        -8.2770    5.5040   -5.2650 C.3    52  GLU52       0.1161
     65  CD        -9.2460    5.4680   -6.4370 C.2    52  GLU52       0.3649
     66  OE1      -10.4740    5.4300   -6.2070 O.co2  52  GLU52      -0.2457
     67  OE2       -8.7760    5.4650   -7.5900 O.co2  52  GLU52      -0.2457
     68  N         -8.8280    8.1690   -1.9110 N.am   53  GLY53      -0.1942
     69  CA        -9.6420    8.9670   -1.0200 C.3    53  GLY53       0.2014
     70  C         -9.6260   10.4350   -1.3840 C.2    53  GLY53       0.2639
     71  O         -9.0950   10.8490   -2.4190 O.2    53  GLY53      -0.2714
     72  N        -10.2390   11.2150   -0.4960 N.am   54  THR54      -0.1950
     73  CA       -10.3610   12.6560   -0.6310 C.3    54  THR54       0.1897
     74  C        -10.0680   13.3000    0.7180 C.2    54  THR54       0.2313
     75  O        -10.2300   12.6730    1.7670 O.2    54  THR54      -0.2863
     76  CB       -11.7720   13.0690   -1.1120 C.3    54  THR54       0.1794
     77  OG1      -12.7310   12.7260   -0.1120 O.3    54  THR54      -0.2208
     78  CG2      -12.1480   12.3630   -2.4020 C.3    54  THR54       0.0378
     79  N        -11.9530    6.3330    0.4700 N.3    65  THR65      -0.1218
     80  CA       -13.1500    5.9250   -0.2520 C.3    65  THR65       0.1862
     81  C        -13.0500    4.5580   -0.9040 C.2    65  THR65       0.2287
     82  O        -14.0840    3.9880   -1.2530 O.2    65  THR65      -0.2866
     83  CB       -13.5110    6.9490   -1.3330 C.3    65  THR65       0.1770
     84  OG1      -12.4870    6.9590   -2.3330 O.3    65  THR65      -0.2211
     85  CG2      -13.6570    8.3360   -0.7310 C.3    65  THR65       0.0375
     86  N         -0.3870    9.7440   -5.7570 N.3    96  HIS96      -0.1226
     87  CA        -0.8510   10.7850   -6.6660 C.3    96  HIS96       0.1752
     88  C         -1.8220   11.7080   -5.9480 C.2    96  HIS96       0.2596
     89  O         -2.7430   11.2320   -5.2840 O.2    96  HIS96      -0.2718
     90  CB        -1.5700   10.1760   -7.8700 C.3    96  HIS96       0.0759
     91  CG        -0.6890    9.3630   -8.7570 C.ar   96  HIS96       0.0818
     92  ND1       -0.6930    7.9860   -8.7530 N.ar   96  HIS96      -0.2268
     93  CD2        0.2210    9.7380   -9.6860 C.ar   96  HIS96       0.1154
     94  CE1        0.1800    7.5440   -9.6430 C.ar   96  HIS96       0.1986
     95  NE2        0.7510    8.5870  -10.2170 N.ar   96  HIS96      -0.2212
     96  N         -1.6530   13.0210   -6.1360 N.am   97  VAL97      -0.1966
     97  CA        -2.4660   14.0350   -5.4700 C.3    97  VAL97       0.1727
     98  C         -2.9630   15.0360   -6.5060 C.2    97  VAL97       0.2616
     99  O         -2.1720   15.5340   -7.3140 O.2    97  VAL97      -0.2715
    100  CB        -1.6610   14.7530   -4.3720 C.3    97  VAL97       0.0290
    101  CG1       -2.5030   15.8030   -3.7090 C.3    97  VAL97       0.0023
    102  CG2       -1.1630   13.7510   -3.3770 C.3    97  VAL97       0.0023
    103  N         -4.2670   15.3520   -6.4680 N.am   98  LYS98      -0.1977
    104  CA        -4.9060   16.2150   -7.4630 C.3    98  LYS98       0.1596
    105  C         -5.6680   17.3530   -6.7860 C.2    98  LYS98       0.2287
    106  O         -6.4000   17.1250   -5.8170 O.2    98  LYS98      -0.2864
    107  CB        -5.8490   15.3990   -8.3590 C.3    98  LYS98       0.0298
    108  CG        -6.6910   16.2270   -9.3130 C.3    98  LYS98       0.0038
    109  CD        -7.2690   15.3740  -10.4330 C.3    98  LYS98       0.0206
    110  CE        -8.4110   14.4960   -9.9410 C.3    98  LYS98       0.1093
    111  NZ        -9.2580   14.0240  -11.0730 N.3    98  LYS98      -0.1314
    112  N         -1.6620   17.8220  -11.1540 N.3   102  GLN102     -0.1245
    113  CA        -1.3840   16.6870  -10.2860 C.3   102  GLN102      0.1566
    114  C          0.0560   16.6920   -9.7910 C.2   102  GLN102      0.2260
    115  O          0.9610   17.2210  -10.4410 O.2   102  GLN102     -0.2867
    116  CB        -1.6590   15.3600  -11.0020 C.3   102  GLN102      0.0367
    117  CG        -2.8960   15.3570  -11.8800 C.3   102  GLN102      0.0905
    118  CD        -3.1920   13.9900  -12.4760 C.2   102  GLN102      0.2608
    119  OE1       -4.2610   13.7740  -13.0540 O.2   102  GLN102     -0.2717
    120  NE2       -2.2510   13.0590  -12.3390 N.am  102  GLN102     -0.0878
@<TRIPOS>BOND
     1   119   118    2
     2    44    45    1
     3    44    41    1
     4   118   120   am
     5   118   117    1
     6    45    47   ar
     7    45    46   ar
     8    47    49   ar
     9    46    48   ar
    10   117   116    1
    11    40    41    1
    12    49    50   ar
    13    48    50   ar
    14    41    42    1
    15   112   113    1
    16   111   110    1
    17   116   113    1
    18    31    30    1
    19    43    42    2
    20   115   114    2
    21   109   110    1
    22   109   108    1
    23   113   114    1
    24    95    93   ar
    25    95    94   ar
    26    32    30    1
    27    30    29    2
    28    93    91   ar
    29    94    92   ar
    30    58    56    1
    31   108   107    1
    32    56    55    1
    33    91    92   ar
    34    91    90    1
    35    39    37    1
    36    29    28    1
    37    38    37    1
    38    28    27    1
    39   107   104    1
    40    37    34    1
    41    90    87    1
    42    51    52    1
    43    67    65   ar
    44   104   105    1
    45   104   103    1
    46    55    52    1
    47    55    57    1
    48    99    98    2
    49     8    10   ar
    50     8     6   ar
    51    52    53    1
    52    27    26    1
    53    34    35    1
    54    34    33    1
    55   105   106    2
    56    87    88    1
    57    87    86    1
    58    10     9   ar
    59    35    36    2
    60    98   103   am
    61    98    97    1
    62    65    66   ar
    63    65    64    1
    64    26    23    1
    65    96    88   am
    66    96    97    1
    67     6     5    1
    68     6     7   ar
    69    88    89    2
    70     5     2    1
    71    53    54    2
    72    97   100    1
    73     9     7   ar
    74    64    63    1
    75    25    24    2
    76     4     3    2
    77    23    24    1
    78    23    22    1
    79    22    13   am
    80     2     3    1
    81     2     1    1
    82     3    11   am
    83   100   101    1
    84   100   102    1
    85    13    14    2
    86    13    12    1
    87    63    60    1
    88    11    12    1
    89    12    15    1
    90    60    59    1
    91    60    61    1
    92    71    70    2
    93    78    76    1
    94    84    83    1
    95    15    16    1
    96    68    61   am
    97    68    69    1
    98    61    62    2
    99    70    69    1
   100    70    72   am
   101    83    85    1
   102    83    80    1
   103    82    81    2
   104    16    17   ar
   105    16    18   ar
   106    76    73    1
   107    76    77    1
   108    81    80    1
   109    17    19   ar
   110    73    72    1
   111    73    74    1
   112    18    20   ar
   113    80    79    1
   114    19    21   ar
   115    20    21   ar
   116    74    75    2
