@<TRIPOS>MOLECULE
tmp/5xawA01.pdb
 103 96 0 0 0
SMALL
GASTEIGER

@<TRIPOS>ATOM
      1  N          0.4430    0.6710   -6.8780 N.3    41  TYR41      -0.1241
      2  CA         1.5920   -0.2150   -6.9250 C.3    41  TYR41       0.1605
      3  C          1.9090   -0.5320   -8.3840 C.2    41  TYR41       0.2264
      4  O          0.9910   -0.7520   -9.1800 O.2    41  TYR41      -0.2867
      5  CB         1.3000   -1.5080   -6.1610 C.3    41  TYR41       0.0534
      6  CG         2.3250   -2.5950   -6.3690 C.ar   41  TYR41      -0.0201
      7  CD1        3.4550   -2.6760   -5.5620 C.ar   41  TYR41      -0.0009
      8  CD2        2.1610   -3.5470   -7.3740 C.ar   41  TYR41      -0.0009
      9  CE1        4.4030   -3.6640   -5.7660 C.ar   41  TYR41       0.0417
     10  CE2        3.0990   -4.5320   -7.5900 C.ar   41  TYR41       0.0417
     11  CZ         4.2240   -4.5940   -6.7840 C.ar   41  TYR41       0.1957
     12  OH         5.1510   -5.6010   -6.9980 O.3    41  TYR41      -0.2866
     13  N          2.7130   -5.9590  -13.1300 N.3    46  ALA46      -0.1245
     14  CA         1.5330   -5.8460  -12.2890 C.3    46  ALA46       0.1562
     15  C          1.2280   -4.3860  -11.9880 C.2    46  ALA46       0.2260
     16  O          2.1240   -3.5430  -11.9200 O.2    46  ALA46      -0.2867
     17  CB         1.7100   -6.6340  -10.9820 C.3    46  ALA46       0.0290
     18  N         -1.7800   -2.1590   -9.4280 N.3    48  LYS48      -0.1245
     19  CA        -2.8980   -2.1620   -8.4970 C.3    48  LYS48       0.1561
     20  C         -3.1660   -0.7460   -8.0230 C.2    48  LYS48       0.2260
     21  O         -2.2370    0.0440   -7.8330 O.2    48  LYS48      -0.2867
     22  CB        -2.6210   -3.0220   -7.2620 C.3    48  LYS48       0.0271
     23  CG        -2.6060   -4.5000   -7.4940 C.3    48  LYS48       0.0035
     24  CD        -2.7170   -5.2030   -6.1490 C.3    48  LYS48       0.0206
     25  CE        -1.3940   -5.7760   -5.7090 C.3    48  LYS48       0.1093
     26  NZ        -1.5890   -6.7160   -4.5580 N.3    48  LYS48      -0.1314
     27  N         -4.0000    0.7810   -4.6890 N.3    50  LEU50      -0.1245
     28  CA        -3.9060    0.3060   -3.3090 C.3    50  LEU50       0.1561
     29  C         -4.9530    0.9660   -2.4320 C.2    50  LEU50       0.2260
     30  O         -5.6320    0.2860   -1.6580 O.2    50  LEU50      -0.2867
     31  CB        -2.5010    0.5760   -2.7540 C.3    50  LEU50       0.0270
     32  CG        -1.4130   -0.1190   -3.5720 C.3    50  LEU50       0.0019
     33  CD1       -0.0250    0.4460   -3.3010 C.3    50  LEU50       0.0001
     34  CD2       -1.4730   -1.5950   -3.2760 C.3    50  LEU50       0.0001
     35  N         -7.9660   -1.5930   -1.5720 N.3    68  ASP68      -0.1225
     36  CA        -7.8410   -2.8890   -2.2350 C.3    68  ASP68       0.1805
     37  C         -7.8840   -4.0350   -1.2300 C.2    68  ASP68       0.2597
     38  O         -8.5990   -5.0250   -1.4260 O.2    68  ASP68      -0.2718
     39  CB        -6.5350   -2.9250   -3.0380 C.3    68  ASP68       0.1424
     40  CG        -6.3420   -4.2290   -3.7950 C.2    68  ASP68       0.3668
     41  OD1       -6.9930   -4.4010   -4.8540 O.co2  68  ASP68      -0.2456
     42  OD2       -5.5310   -5.0720   -3.3360 O.co2  68  ASP68      -0.2456
     43  N         -7.1270   -3.9150   -0.1440 N.am   69  ASP69      -0.1974
     44  CA        -6.9160   -5.0290    0.7680 C.3    69  ASP69       0.1709
     45  C         -6.6950   -4.4720    2.1640 C.2    69  ASP69       0.2293
     46  O         -6.2210   -3.3450    2.3220 O.2    69  ASP69      -0.2864
     47  CB        -5.7140   -5.8740    0.3220 C.3    69  ASP69       0.1436
     48  CG        -5.6270   -7.2030    1.0450 C.2    69  ASP69       0.3671
     49  OD1       -5.2560   -7.2280    2.2440 O.co2  69  ASP69      -0.2456
     50  OD2       -5.9320   -8.2330    0.4060 O.co2  69  ASP69      -0.2456
     51  N         -4.4670   -5.4610    4.1900 N.3    71  ARG71      -0.1231
     52  CA        -3.0590   -5.3270    4.5500 C.3    71  ARG71       0.1694
     53  C         -2.5870   -3.8780    4.4650 C.2    71  ARG71       0.2591
     54  O         -1.5570   -3.5330    5.0590 O.2    71  ARG71      -0.2718
     55  CB        -2.1890   -6.2110    3.6640 C.3    71  ARG71       0.0321
     56  CG        -2.2660   -7.6720    4.0160 C.3    71  ARG71       0.0489
     57  CD        -0.9870   -8.4080    3.6400 C.3    71  ARG71       0.2205
     58  NE        -0.7180   -8.3750    2.2060 N.pl3  71  ARG71      -0.0865
     59  CZ         0.4430   -8.0040    1.6690 C.cat  71  ARG71       0.5346
     60  NH1        1.4500   -7.6250    2.4480 N.pl3  71  ARG71       0.1354
     61  NH2        0.6070   -8.0110    0.3520 N.pl3  71  ARG71       0.1354
     62  N         -3.3330   -3.0260    3.7690 N.am   72  ILE72      -0.1980
     63  CA        -3.0160   -1.6120    3.6180 C.3    72  ILE72       0.1595
     64  C         -3.8740   -0.8150    4.5890 C.2    72  ILE72       0.2287
     65  O         -5.0560   -1.1230    4.7780 O.2    72  ILE72      -0.2864
     66  CB        -3.2700   -1.1580    2.1660 C.3    72  ILE72       0.0276
     67  CG1       -2.3450   -1.9060    1.2010 C.3    72  ILE72       0.0022
     68  CG2       -3.1720    0.3610    2.0300 C.3    72  ILE72       0.0022
     69  CD1       -1.0660   -1.1500    0.8390 C.3    72  ILE72       0.0001
     70  N          1.9360   -0.7400    5.1010 N.3    82  LEU82      -0.1245
     71  CA         1.7000   -2.0520    4.5230 C.3    82  LEU82       0.1561
     72  C          2.1140   -3.1090    5.5420 C.2    82  LEU82       0.2260
     73  O          3.2730   -3.1430    5.9690 O.2    82  LEU82      -0.2867
     74  CB         2.4730   -2.2020    3.2050 C.3    82  LEU82       0.0270
     75  CG         2.3210   -3.4910    2.4100 C.3    82  LEU82       0.0019
     76  CD1        0.8490   -3.7950    2.1510 C.3    82  LEU82       0.0001
     77  CD2        3.1020   -3.3960    1.0860 C.3    82  LEU82       0.0001
     78  N          6.9110  -10.5530   -2.5260 N.3    88  SER88      -0.1202
     79  CA         6.2630  -10.0340   -3.7300 C.3    88  SER88       0.2020
     80  C          5.7910   -8.5880   -3.5800 C.2    88  SER88       0.2618
     81  O          5.3880   -7.9860   -4.5820 O.2    88  SER88      -0.2717
     82  CB         5.0750  -10.9220   -4.1230 C.3    88  SER88       0.2103
     83  OG         4.2310  -11.1620   -3.0080 O.3    88  SER88      -0.2182
     84  N          5.8310   -8.0120   -2.3660 N.am   89  ASP89      -0.1973
     85  CA         5.4520   -6.6090   -2.1710 C.3    89  ASP89       0.1709
     86  C          6.4860   -5.6440   -2.7400 C.2    89  ASP89       0.2293
     87  O          6.2060   -4.4390   -2.8510 O.2    89  ASP89      -0.2864
     88  CB         5.2350   -6.3060   -0.6790 C.3    89  ASP89       0.1436
     89  CG         4.0050   -7.0020   -0.1030 C.2    89  ASP89       0.3671
     90  OD1        3.0390   -7.2770   -0.8520 O.co2  89  ASP89      -0.2456
     91  OD2        3.9930   -7.2570    1.1250 O.co2  89  ASP89      -0.2456
     92  N          5.7370    2.2110   -5.3630 N.3    93  TYR93      -0.1241
     93  CA         4.5320    2.6980   -4.7030 C.3    93  TYR93       0.1605
     94  C          4.4560    4.1980   -4.9290 C.2    93  TYR93       0.2264
     95  O          5.3300    4.9400   -4.4590 O.2    93  TYR93      -0.2867
     96  CB         4.5560    2.3870   -3.1990 C.3    93  TYR93       0.0534
     97  CG         4.4690    0.9170   -2.9120 C.ar   93  TYR93      -0.0201
     98  CD1        5.5400    0.0630   -3.1750 C.ar   93  TYR93      -0.0009
     99  CD2        3.3050    0.3740   -2.4280 C.ar   93  TYR93      -0.0009
    100  CE1        5.4300   -1.2910   -2.9270 C.ar   93  TYR93       0.0417
    101  CE2        3.1920   -0.9610   -2.1780 C.ar   93  TYR93       0.0417
    102  CZ         4.2380   -1.7960   -2.4260 C.ar   93  TYR93       0.1957
    103  OH         4.0640   -3.1530   -2.1710 O.3    93  TYR93      -0.2866
@<TRIPOS>BOND
     1    13    14    1
     2    14    15    1
     3    14    17    1
     4    15    16    2
     5    18    19    1
     6     4     3    2
     7    19    20    1
     8    19    22    1
     9     3     2    1
    10    20    21    2
    11    10     8   ar
    12    10    11   ar
    13    23    22    1
    14    23    24    1
    15     8     6   ar
    16    12    11    1
    17     2     1    1
    18     2     5    1
    19    11     9   ar
    20     6     5    1
    21     6     7   ar
    22    24    25    1
    23     9     7   ar
    24    25    26    1
    25    92    93    1
    26    94    93    1
    27    94    95    2
    28    41    40   ar
    29    93    96    1
    30    27    28    1
    31    81    80    2
    32    82    79    1
    33    82    83    1
    34    40    42   ar
    35    40    39    1
    36    79    80    1
    37    79    78    1
    38    80    84   am
    39    32    33    1
    40    32    34    1
    41    32    31    1
    42    28    31    1
    43    28    29    1
    44    96    97    1
    45    98   100   ar
    46    98    97   ar
    47    39    36    1
    48   100   102   ar
    49    97    99   ar
    50    87    86    2
    51    86    85    1
    52    29    30    2
    53    99   101   ar
    54   102   101   ar
    55   102   103    1
    56    84    85    1
    57    36    35    1
    58    36    37    1
    59    85    88    1
    60    38    37    2
    61    37    43   am
    62    90    89   ar
    63    88    89    1
    64    43    44    1
    65    89    91   ar
    66    47    44    1
    67    47    48    1
    68    61    59    1
    69    50    48   ar
    70    44    45    1
    71    69    67    1
    72    48    49   ar
    73    77    75    1
    74    67    66    1
    75    59    58    2
    76    59    60    1
    77    68    66    1
    78    76    75    1
    79    45    46    2
    80    66    63    1
    81    58    57    1
    82    75    74    1
    83    74    71    1
    84    63    62    1
    85    63    64    1
    86    57    56    1
    87    55    56    1
    88    55    52    1
    89    62    53   am
    90    51    52    1
    91    53    52    1
    92    53    54    2
    93    71    70    1
    94    71    72    1
    95    64    65    2
    96    72    73    2
