@<TRIPOS>MOLECULE
tmp/5xb0A00.pdb
 100 100 0 0 0
SMALL
GASTEIGER

@<TRIPOS>ATOM
      1  N         -6.8730  -13.2150  -15.9070 N.3    56  TYR56      -0.1241
      2  CA        -5.5910  -12.6680  -16.3220 C.3    56  TYR56       0.1605
      3  C         -5.5730  -12.2740  -17.7900 C.2    56  TYR56       0.2264
      4  O         -6.3220  -12.7940  -18.6080 O.2    56  TYR56      -0.2867
      5  CB        -4.4530  -13.6600  -16.0460 C.3    56  TYR56       0.0534
      6  CG        -4.4790  -14.8930  -16.9210 C.ar   56  TYR56      -0.0201
      7  CD1       -5.2750  -15.9830  -16.5870 C.ar   56  TYR56      -0.0009
      8  CD2       -3.7160  -14.9690  -18.0840 C.ar   56  TYR56      -0.0009
      9  CE1       -5.3250  -17.1210  -17.3970 C.ar   56  TYR56       0.0417
     10  CE2       -3.7610  -16.1050  -18.9040 C.ar   56  TYR56       0.0417
     11  CZ        -4.5550  -17.1810  -18.5420 C.ar   56  TYR56       0.1957
     12  OH        -4.6090  -18.3070  -19.3380 O.3    56  TYR56      -0.2866
     13  N         -0.9650  -12.6280  -25.6880 N.3    66  PHE66      -0.1227
     14  CA        -0.6260  -13.9830  -26.1140 C.3    66  PHE66       0.1736
     15  C         -1.5100  -15.0390  -25.4510 C.2    66  PHE66       0.2595
     16  O         -1.6230  -16.1540  -25.9580 O.2    66  PHE66      -0.2718
     17  CB         0.8470  -14.2930  -25.8520 C.3    66  PHE66       0.0547
     18  CG         1.2310  -14.2640  -24.4070 C.ar   66  PHE66      -0.0202
     19  CD1        1.0450  -15.3820  -23.5990 C.ar   66  PHE66      -0.0042
     20  CD2        1.7830  -13.1250  -23.8510 C.ar   66  PHE66      -0.0042
     21  CE1        1.4030  -15.3580  -22.2590 C.ar   66  PHE66      -0.0003
     22  CE2        2.1500  -13.1060  -22.5190 C.ar   66  PHE66      -0.0003
     23  CZ         1.9530  -14.2230  -21.7260 C.ar   66  PHE66      -0.0000
     24  N         -2.1370  -14.6840  -24.3300 N.am   67  ASP67      -0.1974
     25  CA        -3.0830  -15.5720  -23.6550 C.3    67  ASP67       0.1709
     26  C         -3.8990  -14.7450  -22.6690 C.2    67  ASP67       0.2293
     27  O         -3.3950  -13.7600  -22.1230 O.2    67  ASP67      -0.2864
     28  CB        -2.3600  -16.7130  -22.9310 C.3    67  ASP67       0.1436
     29  CG        -3.3170  -17.7850  -22.3980 C.2    67  ASP67       0.3671
     30  OD1       -4.4040  -17.9650  -22.9780 O.co2  67  ASP67      -0.2456
     31  OD2       -2.9740  -18.4540  -21.3940 O.co2  67  ASP67      -0.2456
     32  N         -5.2950  -22.5660  -11.2130 N.3    75  PHE75      -0.1241
     33  CA        -3.9460  -23.0460  -11.5510 C.3    75  PHE75       0.1605
     34  C         -3.2110  -23.5070  -10.2970 C.2    75  PHE75       0.2264
     35  O         -3.3490  -22.9020   -9.2390 O.2    75  PHE75      -0.2867
     36  CB        -3.1160  -21.9480  -12.2150 C.3    75  PHE75       0.0534
     37  CG        -3.6410  -21.4930  -13.5320 C.ar   75  PHE75      -0.0203
     38  CD1       -3.4890  -22.2830  -14.6640 C.ar   75  PHE75      -0.0042
     39  CD2       -4.2730  -20.2690  -13.6530 C.ar   75  PHE75      -0.0042
     40  CE1       -3.9630  -21.8520  -15.8880 C.ar   75  PHE75      -0.0003
     41  CE2       -4.7490  -19.8360  -14.8770 C.ar   75  PHE75      -0.0003
     42  CZ        -4.5930  -20.6310  -15.9960 C.ar   75  PHE75      -0.0000
     43  N          2.9810  -25.4380  -10.8390 N.3    79  SER79      -0.1202
     44  CA         2.9050  -25.9680  -12.1910 C.3    79  SER79       0.2020
     45  C          2.7730  -24.8920  -13.2570 C.2    79  SER79       0.2619
     46  O          2.4710  -25.1910  -14.4150 O.2    79  SER79      -0.2717
     47  CB         1.7310  -26.9400  -12.3050 C.3    79  SER79       0.2103
     48  OG         1.9490  -28.0730  -11.4940 O.3    79  SER79      -0.2182
     49  N          3.0080  -23.6450  -12.8700 N.am   80  VAL80      -0.1965
     50  CA         2.9700  -22.5150  -13.7910 C.3    80  VAL80       0.1727
     51  C          4.3770  -21.9280  -13.9440 C.2    80  VAL80       0.2616
     52  O          5.3270  -22.4090  -13.3120 O.2    80  VAL80      -0.2715
     53  CB         1.9970  -21.4100  -13.3100 C.3    80  VAL80       0.0290
     54  CG1        0.5580  -21.9150  -13.3610 C.3    80  VAL80       0.0023
     55  CG2        2.3640  -20.9500  -11.9110 C.3    80  VAL80       0.0023
     56  N          4.5210  -20.9010  -14.7780 N.am   81  ILE81      -0.1977
     57  CA         5.8400  -20.2860  -14.9370 C.3    81  ILE81       0.1596
     58  C          6.3240  -19.8000  -13.5770 C.2    81  ILE81       0.2287
     59  O          5.5260  -19.3940  -12.7240 O.2    81  ILE81      -0.2864
     60  CB         5.8550  -19.1180  -15.9550 C.3    81  ILE81       0.0276
     61  CG1        4.7760  -18.0940  -15.6370 C.3    81  ILE81       0.0022
     62  CG2        5.6840  -19.6430  -17.3890 C.3    81  ILE81       0.0022
     63  CD1        4.9130  -16.8080  -16.4250 C.3    81  ILE81       0.0001
     64  N          5.1340  -16.6140  -11.7640 N.3    84  TRP84      -0.1241
     65  CA         3.8470  -16.6630  -11.0530 C.3    84  TRP84       0.1605
     66  C          4.0070  -17.3360   -9.6890 C.2    84  TRP84       0.2264
     67  O          3.4560  -16.8820   -8.6830 O.2    84  TRP84      -0.2867
     68  CB         2.7890  -17.4220  -11.8620 C.3    84  TRP84       0.0550
     69  CG         2.0690  -16.6240  -12.9180 C.ar   84  TRP84       0.0003
     70  CD1        2.5820  -15.6260  -13.6930 C.ar   84  TRP84       0.0946
     71  CD2        0.7020  -16.7770  -13.3070 C.ar   84  TRP84       0.0152
     72  NE1        1.6130  -15.1440  -14.5450 N.ar   84  TRP84      -0.2442
     73  CE2        0.4520  -15.8400  -14.3290 C.ar   84  TRP84       0.0810
     74  CE3       -0.3350  -17.6230  -12.8910 C.ar   84  TRP84       0.0012
     75  CZ2       -0.7970  -15.7160  -14.9370 C.ar   84  TRP84       0.0191
     76  CZ3       -1.5830  -17.4990  -13.4980 C.ar   84  TRP84       0.0001
     77  CH2       -1.7970  -16.5560  -14.5120 C.ar   84  TRP84       0.0015
     78  N          9.4220  -17.9470  -20.1830 N.3   107  TYR107     -0.1241
     79  CA         9.7770  -19.0040  -21.1430 C.3   107  TYR107      0.1605
     80  C         11.2400  -18.9650  -21.5990 C.2   107  TYR107      0.2264
     81  O         11.6630  -19.8050  -22.3960 O.2   107  TYR107     -0.2867
     82  CB         8.8430  -18.9580  -22.3610 C.3   107  TYR107      0.0534
     83  CG         7.4050  -19.2480  -21.9770 C.ar  107  TYR107     -0.0201
     84  CD1        6.9740  -20.5520  -21.7690 C.ar  107  TYR107     -0.0009
     85  CD2        6.5020  -18.2180  -21.7590 C.ar  107  TYR107     -0.0009
     86  CE1        5.6710  -20.8210  -21.3880 C.ar  107  TYR107      0.0417
     87  CE2        5.1880  -18.4830  -21.3740 C.ar  107  TYR107      0.0417
     88  CZ         4.7900  -19.7820  -21.1900 C.ar  107  TYR107      0.1957
     89  OH         3.4950  -20.0580  -20.8080 O.3   107  TYR107     -0.2866
     90  N          1.7470   -9.2150  -17.3000 N.3   124  PHE124     -0.1241
     91  CA         0.4480   -9.7680  -16.9160 C.3   124  PHE124      0.1605
     92  C         -0.3880   -8.7670  -16.1550 C.2   124  PHE124      0.2264
     93  O          0.1300   -8.0070  -15.3470 O.2   124  PHE124     -0.2867
     94  CB         0.6230  -11.0000  -16.0320 C.3   124  PHE124      0.0534
     95  CG         1.1150  -12.2030  -16.7560 C.ar  124  PHE124     -0.0203
     96  CD1        0.2190  -13.0900  -17.3260 C.ar  124  PHE124     -0.0042
     97  CD2        2.4710  -12.4710  -16.8410 C.ar  124  PHE124     -0.0042
     98  CE1        0.6760  -14.2240  -17.9920 C.ar  124  PHE124     -0.0003
     99  CE2        2.9310  -13.6000  -17.5150 C.ar  124  PHE124     -0.0003
    100  CZ         2.0270  -14.4760  -18.0820 C.ar  124  PHE124     -0.0000
@<TRIPOS>BOND
     1    14    17    1
     2    14    13    1
     3    14    15    1
     4    16    15    2
     5    17    18    1
     6    15    24   am
     7    18    20   ar
     8    18    19   ar
     9    24    25    1
    10    20    22   ar
    11    25    28    1
    12    25    26    1
    13    19    21   ar
    14    30    29   ar
    15    28    29    1
    16    26    27    2
    17    22    23   ar
    18    29    31   ar
    19    81    80    2
    20    82    83    1
    21    82    79    1
    22    21    23   ar
    23    83    84   ar
    24    83    85   ar
    25    84    86   ar
    26    85    87   ar
    27    80    79    1
    28    86    88   ar
    29    87    88   ar
    30    88    89    1
    31    79    78    1
    32    12    11    1
    33    10    11   ar
    34    10     8   ar
    35     4     3    2
    36    11     9   ar
    37     8     6   ar
    38   100    98   ar
    39   100    99   ar
    40    98    96   ar
    41     3     2    1
    42    99    97   ar
    43     9     7   ar
    44    62    60    1
    45    96    95   ar
    46    90    91    1
    47     6     7   ar
    48     6     5    1
    49    91    92    1
    50    91    94    1
    51    97    95   ar
    52    95    94    1
    53    63    61    1
    54     2     5    1
    55     2     1    1
    56    92    93    2
    57    42    40   ar
    58    42    41   ar
    59    60    61    1
    60    60    57    1
    61    40    38   ar
    62    75    77   ar
    63    75    73   ar
    64    57    56    1
    65    57    58    1
    66    41    39   ar
    67    56    51   am
    68    38    37   ar
    69    72    73   ar
    70    72    70   ar
    71    77    76   ar
    72    46    45    2
    73    73    71   ar
    74    51    50    1
    75    51    52    2
    76    50    53    1
    77    50    49    1
    78    70    69   ar
    79    39    37   ar
    80    58    59    2
    81    37    36    1
    82    76    74   ar
    83    54    53    1
    84    53    55    1
    85    71    69   ar
    86    71    74   ar
    87    45    49   am
    88    45    44    1
    89    69    68    1
    90    47    44    1
    91    47    48    1
    92    36    33    1
    93    44    43    1
    94    68    65    1
    95    64    65    1
    96    33    32    1
    97    33    34    1
    98    65    66    1
    99    34    35    2
   100    66    67    2
