@<TRIPOS>MOLECULE
tmp/5xb2A01.pdb
 165 156 0 0 0
SMALL
GASTEIGER

@<TRIPOS>ATOM
      1  N         15.5860   18.0670  -24.4350 N.3     9  ASP9       -0.1239
      2  CA        15.6500   16.9640  -23.4890 C.3     9  ASP9        0.1674
      3  C         15.5690   15.6350  -24.2300 C.2     9  ASP9        0.2266
      4  O         14.8330   15.5010  -25.2090 O.2     9  ASP9       -0.2867
      5  CB        14.4940   17.0640  -22.4980 C.3     9  ASP9        0.1410
      6  CG        14.4490   18.4030  -21.7750 C.2     9  ASP9        0.3668
      7  OD1       14.0460   19.4050  -22.3940 O.co2   9  ASP9       -0.2456
      8  OD2       14.8070   18.4470  -20.5780 O.co2   9  ASP9       -0.2456
      9  N         22.5000   14.4900  -24.8790 N.3    13  LYS13      -0.1231
     10  CA        23.6250   15.3880  -24.6440 C.3    13  LYS13       0.1693
     11  C         24.4890   14.8960  -23.4920 C.2    13  LYS13       0.2592
     12  O         25.7230   14.8590  -23.5940 O.2    13  LYS13      -0.2718
     13  CB        23.1050   16.7980  -24.3980 C.3    13  LYS13       0.0285
     14  CG        22.2130   17.3190  -25.5140 C.3    13  LYS13       0.0035
     15  CD        21.6730   18.7160  -25.2170 C.3    13  LYS13       0.0206
     16  CE        20.8770   18.7570  -23.9110 C.3    13  LYS13       0.1093
     17  NZ        19.5610   18.0540  -24.0350 N.3    13  LYS13      -0.1314
     18  N         23.8610   14.4920  -22.3880 N.am   14  THR14      -0.1953
     19  CA        24.6370   13.9660  -21.2710 C.3    14  THR14       0.1897
     20  C         25.4550   12.7570  -21.7030 C.2    14  THR14       0.2313
     21  O         26.6360   12.6290  -21.3480 O.2    14  THR14      -0.2863
     22  CB        23.7100   13.6040  -20.1140 C.3    14  THR14       0.1794
     23  OG1       22.8040   14.6890  -19.8830 O.3    14  THR14      -0.2208
     24  CG2       24.5190   13.3310  -18.8430 C.3    14  THR14       0.0378
     25  N         28.0590   20.8840  -16.7600 N.3    35  ARG35      -0.1231
     26  CA        26.6620   20.9260  -17.1500 C.3    35  ARG35       0.1694
     27  C         26.0640   22.2850  -16.8090 C.2    35  ARG35       0.2592
     28  O         26.5400   23.0000  -15.9140 O.2    35  ARG35      -0.2718
     29  CB        25.8630   19.8190  -16.4610 C.3    35  ARG35       0.0321
     30  CG        25.5570   20.0720  -15.0120 C.3    35  ARG35       0.0489
     31  CD        24.7650   18.9280  -14.4780 C.3    35  ARG35       0.2205
     32  NE        24.5680   18.9940  -13.0410 N.pl3  35  ARG35      -0.0865
     33  CZ        23.7870   18.1510  -12.3710 C.cat  35  ARG35       0.5346
     34  NH1       23.1230   17.1920  -13.0210 N.pl3  35  ARG35       0.1354
     35  NH2       23.6490   18.2820  -11.0590 N.pl3  35  ARG35       0.1354
     36  N         25.0120   22.6270  -17.5490 N.am   36  GLU36      -0.1966
     37  CA        24.3060   23.8900  -17.4140 C.3    36  GLU36       0.1718
     38  C         22.8160   23.6220  -17.3270 C.2    36  GLU36       0.2458
     39  O         22.2540   22.9900  -18.2150 O.2    36  GLU36      -0.2730
     40  CB        24.6030   24.8070  -18.5990 C.3    36  GLU36       0.0428
     41  CG        25.9650   25.5240  -18.5550 C.3    36  GLU36       0.1163
     42  CD        25.8150   27.0130  -18.8430 C.2    36  GLU36       0.3649
     43  OE1       25.5480   27.7890  -17.8880 O.co2  36  GLU36      -0.2457
     44  OE2       25.9220   27.4010  -20.0300 O.co2  36  GLU36      -0.2457
     45  N         22.1660   24.0950  -16.2550 N.am   37  PRO37      -0.2727
     46  CA        22.8030   24.8430  -15.1670 C.3    37  PRO37       0.1402
     47  C         23.4450   23.9160  -14.1270 C.2    37  PRO37       0.2269
     48  O         23.1960   22.7100  -14.1160 O.2    37  PRO37      -0.2865
     49  CB        21.6400   25.6400  -14.5760 C.3    37  PRO37       0.0296
     50  CG        20.4360   24.7700  -14.8010 C.3    37  PRO37       0.0237
     51  CD        20.7100   23.9570  -16.0620 C.3    37  PRO37       0.0939
     52  N         20.5690   25.3740   -9.8830 N.3    47  ARG47      -0.1245
     53  CA        19.9910   24.2600  -10.6340 C.3    47  ARG47       0.1563
     54  C         18.8930   23.5660   -9.8380 C.2    47  ARG47       0.2260
     55  O         17.8250   23.2550  -10.3790 O.2    47  ARG47      -0.2867
     56  CB        21.0870   23.2510  -11.0050 C.3    47  ARG47       0.0307
     57  CG        20.5710   21.9680  -11.6680 C.3    47  ARG47       0.0489
     58  CD        21.6740   20.9300  -11.9610 C.3    47  ARG47       0.2205
     59  NE        21.1140   19.8070  -12.7050 N.pl3  47  ARG47      -0.0865
     60  CZ        21.1120   19.7230  -14.0330 C.cat  47  ARG47       0.5346
     61  NH1       21.6720   20.6820  -14.7520 N.pl3  47  ARG47       0.1354
     62  NH2       20.5570   18.6760  -14.6440 N.pl3  47  ARG47       0.1354
     63  N         14.9340   23.3560  -10.9650 N.3    51  LEU51      -0.1245
     64  CA        14.2730   22.0840  -11.2320 C.3    51  LEU51       0.1561
     65  C         13.2240   21.7170  -10.1920 C.2    51  LEU51       0.2260
     66  O         12.4960   20.7430  -10.3930 O.2    51  LEU51      -0.2867
     67  CB        15.3020   20.9510  -11.3190 C.3    51  LEU51       0.0270
     68  CG        16.3300   21.0910  -12.4400 C.3    51  LEU51       0.0019
     69  CD1       17.0630   19.7600  -12.6900 C.3    51  LEU51       0.0001
     70  CD2       15.6850   21.6190  -13.7210 C.3    51  LEU51       0.0001
     71  N         19.1810   30.9970  -14.7740 N.3    64  PHE64      -0.1241
     72  CA        20.0020   30.3050  -15.7710 C.3    64  PHE64       0.1605
     73  C         21.2290   31.1380  -16.1000 C.2    64  PHE64       0.2264
     74  O         22.3410   30.6090  -16.2250 O.2    64  PHE64      -0.2867
     75  CB        19.2220   30.0340  -17.0630 C.3    64  PHE64       0.0534
     76  CG        18.2630   28.8620  -16.9910 C.ar   64  PHE64      -0.0203
     77  CD1       18.7310   27.5620  -16.7930 C.ar   64  PHE64      -0.0042
     78  CD2       16.8980   29.0580  -17.1730 C.ar   64  PHE64      -0.0042
     79  CE1       17.8540   26.4940  -16.7450 C.ar   64  PHE64      -0.0003
     80  CE2       16.0090   27.9950  -17.1320 C.ar   64  PHE64      -0.0003
     81  CZ        16.4850   26.7080  -16.9130 C.ar   64  PHE64      -0.0000
     82  N         25.2810   30.5490  -15.3700 N.3    68  ARG68      -0.1245
     83  CA        26.2680   30.6420  -16.4400 C.3    68  ARG68       0.1563
     84  C         27.3920   31.6030  -16.0620 C.2    68  ARG68       0.2260
     85  O         28.5760   31.2740  -16.2030 O.2    68  ARG68      -0.2867
     86  CB        25.5760   31.0780  -17.7310 C.3    68  ARG68       0.0307
     87  CG        26.4940   31.2310  -18.9490 C.3    68  ARG68       0.0489
     88  CD        25.6390   31.2690  -20.2010 C.3    68  ARG68       0.2205
     89  NE        24.8560   30.0340  -20.3230 N.pl3  68  ARG68      -0.0865
     90  CZ        23.6030   29.9730  -20.7630 C.cat  68  ARG68       0.5346
     91  NH1       22.9510   31.0840  -21.1100 N.pl3  68  ARG68       0.1354
     92  NH2       22.9910   28.7990  -20.8260 N.pl3  68  ARG68       0.1354
     93  N         27.6410   20.6250  -21.4010 N.3    89  ASP89      -0.1225
     94  CA        26.3460   19.9720  -21.5570 C.3    89  ASP89       0.1805
     95  C         25.3030   21.0810  -21.4300 C.2    89  ASP89       0.2597
     96  O         24.8220   21.3820  -20.3340 O.2    89  ASP89      -0.2718
     97  CB        26.1870   18.8680  -20.5130 C.3    89  ASP89       0.1424
     98  CG        24.7890   18.2370  -20.4970 C.2    89  ASP89       0.3668
     99  OD1       23.9440   18.5540  -21.3560 O.co2  89  ASP89      -0.2456
    100  OD2       24.5290   17.4220  -19.5920 O.co2  89  ASP89      -0.2456
    101  N         24.9730   21.6940  -22.5780 N.am   90  ARG90      -0.1979
    102  CA        24.1370   22.8880  -22.7620 C.3    90  ARG90       0.1597
    103  C         24.9290   24.1900  -22.6040 C.2    90  ARG90       0.2287
    104  O         25.8650   24.2740  -21.7920 O.2    90  ARG90      -0.2864
    105  CB        22.9330   22.9160  -21.8130 C.3    90  ARG90       0.0334
    106  CG        21.9220   21.8050  -22.0140 C.3    90  ARG90       0.0492
    107  CD        20.6420   22.1040  -21.2310 C.3    90  ARG90       0.2205
    108  NE        19.6070   21.0900  -21.4480 N.pl3  90  ARG90      -0.0865
    109  CZ        18.8180   21.0270  -22.5210 C.cat  90  ARG90       0.5346
    110  NH1       18.9410   21.9210  -23.5040 N.pl3  90  ARG90       0.1354
    111  NH2       17.8910   20.0700  -22.6100 N.pl3  90  ARG90       0.1354
    112  N         20.7360   26.9030  -25.6640 N.3    94  SER94      -0.1202
    113  CA        19.6100   26.3800  -24.8910 C.3    94  SER94       0.2020
    114  C         18.7300   27.5140  -24.3660 C.2    94  SER94       0.2619
    115  O         17.5010   27.4270  -24.4310 O.2    94  SER94      -0.2717
    116  CB        20.0880   25.5190  -23.7190 C.3    94  SER94       0.2103
    117  OG        20.5840   24.2690  -24.1310 O.3    94  SER94      -0.2182
    118  N         19.3430   28.5900  -23.8470 N.am   95  THR95      -0.1952
    119  CA        18.5560   29.6860  -23.2780 C.3    95  THR95       0.1897
    120  C         17.6760   30.3530  -24.3360 C.2    95  THR95       0.2313
    121  O         16.4980   30.6290  -24.0890 O.2    95  THR95      -0.2863
    122  CB        19.4700   30.7320  -22.6130 C.3    95  THR95       0.1794
    123  OG1       20.3980   30.0840  -21.7330 O.3    95  THR95      -0.2208
    124  CG2       18.6200   31.7280  -21.8060 C.3    95  THR95       0.0378
    125  N         14.8730   27.7800  -25.3510 N.3    98  TYR98      -0.1227
    126  CA        13.8800   27.4480  -24.3260 C.3    98  TYR98       0.1736
    127  C         13.1090   28.6810  -23.8600 C.2    98  TYR98       0.2595
    128  O         11.8720   28.6810  -23.8310 O.2    98  TYR98      -0.2718
    129  CB        14.5580   26.7650  -23.1340 C.3    98  TYR98       0.0548
    130  CG        14.7730   25.2690  -23.3070 C.ar   98  TYR98      -0.0200
    131  CD1       15.8070   24.7840  -24.1050 C.ar   98  TYR98      -0.0009
    132  CD2       13.9670   24.3490  -22.6480 C.ar   98  TYR98      -0.0009
    133  CE1       16.0200   23.4140  -24.2700 C.ar   98  TYR98       0.0417
    134  CE2       14.1660   22.9730  -22.8060 C.ar   98  TYR98       0.0417
    135  CZ        15.1930   22.5180  -23.6210 C.ar   98  TYR98       0.1957
    136  OH        15.4140   21.1790  -23.7610 O.3    98  TYR98      -0.2866
    137  N         13.8230   29.7430  -23.4840 N.am   99  GLN99      -0.1979
    138  CA        13.1700   30.9450  -22.9810 C.3    99  GLN99       0.1601
    139  C         12.6570   31.8580  -24.0950 C.2    99  GLN99       0.2287
    140  O         11.6810   32.5870  -23.8830 O.2    99  GLN99      -0.2864
    141  CB        14.1340   31.7040  -22.0750 C.3    99  GLN99       0.0394
    142  CG        14.2030   31.1510  -20.6690 C.3    99  GLN99       0.0908
    143  CD        14.7970   29.7630  -20.5900 C.2    99  GLN99       0.2608
    144  OE1       15.8350   29.4690  -21.2020 O.2    99  GLN99      -0.2717
    145  NE2       14.1390   28.8920  -19.8280 N.am   99  GLN99      -0.0878
    146  N         10.9440   10.0240  -17.0210 N.3   145  ARG145     -0.1245
    147  CA        11.0000   11.4690  -17.1580 C.3   145  ARG145      0.1563
    148  C          9.9540   11.9170  -18.1650 C.2   145  ARG145      0.2260
    149  O          9.9070   11.4260  -19.2970 O.2   145  ARG145     -0.2867
    150  CB        12.3920   11.9600  -17.5680 C.3   145  ARG145      0.0307
    151  CG        12.5270   13.4800  -17.4320 C.3   145  ARG145      0.0489
    152  CD        13.9630   13.9640  -17.5190 C.3   145  ARG145      0.2205
    153  NE        14.0370   15.3820  -17.8510 N.pl3 145  ARG145     -0.0865
    154  CZ        15.1380   15.9950  -18.2840 C.cat 145  ARG145      0.5346
    155  NH1       15.1190   17.2910  -18.5670 N.pl3 145  ARG145      0.1354
    156  NH2       16.2640   15.3130  -18.4430 N.pl3 145  ARG145      0.1354
    157  N          8.2140   15.1580  -20.2090 N.3   147  GLU147     -0.1245
    158  CA         8.3740   16.5260  -20.6680 C.3   147  GLU147      0.1567
    159  C          7.2440   16.8280  -21.6410 C.2   147  GLU147      0.2260
    160  O          6.5160   15.9340  -22.0740 O.2   147  GLU147     -0.2867
    161  CB         9.7560   16.7660  -21.3020 C.3   147  GLU147      0.0388
    162  CG        10.9620   16.3870  -20.4220 C.3   147  GLU147      0.1160
    163  CD        11.1740   17.3310  -19.2380 C.2   147  GLU147      0.3649
    164  OE1       10.2460   18.0970  -18.8990 O.co2 147  GLU147     -0.2457
    165  OE2       12.2780   17.3070  -18.6400 O.co2 147  GLU147     -0.2457
@<TRIPOS>BOND
     1   112   113    1
     2    14    15    1
     3    14    13    1
     4   125   126    1
     5    15    16    1
     6     4     3    2
     7   113   114    1
     8   113   116    1
     9     9    10    1
    10    10    13    1
    11    10    11    1
    12     1     2    1
    13   115   114    2
    14   114   118   am
    15   120   121    2
    16   120   119    1
    17   126   127    1
    18   126   129    1
    19   133   131   ar
    20   133   135   ar
    21     3     2    1
    22   117   116    1
    23   131   130   ar
    24   139   140    2
    25   139   138    1
    26    17    16    1
    27   127   128    2
    28   127   137   am
    29   118   119    1
    30   136   135    1
    31   135   134   ar
    32    12    11    2
    33   110   109    1
    34    11    18   am
    35     2     5    1
    36   137   138    1
    37   130   129    1
    38   130   132   ar
    39   119   122    1
    40   138   141    1
    41   134   132   ar
    42   102   103    1
    43   102   101    1
    44   102   105    1
    45   122   124    1
    46   122   123    1
    47   111   109    1
    48   103   104    2
    49   101    95   am
    50   109   108    2
    51     5     6    1
    52     7     6   ar
    53    18    19    1
    54   141   142    1
    55   160   159    2
    56   106   105    1
    57   106   107    1
    58     6     8   ar
    59    20    21    2
    60    20    19    1
    61   159   158    1
    62    94    95    1
    63    94    93    1
    64    94    97    1
    65   108   107    1
    66    95    96    2
    67    99    98   ar
    68   161   158    1
    69   161   162    1
    70    19    22    1
    71   144   143    2
    72    91    90    1
    73    92    90    1
    74    90    89    2
    75   142   143    1
    76   158   157    1
    77   143   145   am
    78    97    98    1
    79    98   100   ar
    80   162   163    1
    81    89    88    1
    82    88    87    1
    83    22    23    1
    84    22    24    1
    85    44    42   ar
    86   149   148    2
    87   163   164   ar
    88   163   165   ar
    89    87    86    1
    90    42    41    1
    91    42    43   ar
    92    40    41    1
    93    40    37    1
    94   155   154    1
    95   156   154    1
    96   154   153    2
    97    39    38    2
    98   148   147    1
    99   153   152    1
   100    86    83    1
   101   150   151    1
   102   150   147    1
   103    36    37    1
   104    36    27   am
   105   152   151    1
   106    37    38    1
   107    38    45   am
   108    78    80   ar
   109    78    76   ar
   110   147   146    1
   111    26    27    1
   112    26    25    1
   113    26    29    1
   114    80    81   ar
   115    75    76    1
   116    75    72    1
   117    76    77   ar
   118    81    79   ar
   119    27    28    2
   120    77    79   ar
   121    29    30    1
   122    83    84    1
   123    83    82    1
   124    45    51    1
   125    45    46    1
   126    74    73    2
   127    85    84    2
   128    73    72    1
   129    51    50    1
   130    72    71    1
   131    46    49    1
   132    46    47    1
   133    30    31    1
   134    50    49    1
   135    61    60    1
   136    62    60    1
   137    31    32    1
   138    47    48    2
   139    60    59    2
   140    70    68    1
   141    32    33    2
   142    34    33    1
   143    59    58    1
   144    69    68    1
   145    68    67    1
   146    33    35    1
   147    58    57    1
   148    57    56    1
   149    67    64    1
   150    64    63    1
   151    64    65    1
   152    56    53    1
   153    53    52    1
   154    53    54    1
   155    66    65    2
   156    55    54    2
