@<TRIPOS>MOLECULE
tmp/5xbiA00.pdb
 119 116 0 0 0
SMALL
GASTEIGER

@<TRIPOS>ATOM
      1  N         23.0250   15.5280    9.1190 N.3    24  ILE24      -0.1231
      2  CA        22.1140   16.4140    9.8390 C.3    24  ILE24       0.1692
      3  C         22.6150   16.6560   11.2590 C.2    24  ILE24       0.2592
      4  O         22.5140   17.7690   11.7930 O.2    24  ILE24      -0.2718
      5  CB        20.6740   15.8640    9.7980 C.3    24  ILE24       0.0266
      6  CG1       20.1450   15.8870    8.3640 C.3    24  ILE24       0.0019
      7  CG2       19.7620   16.6410   10.7410 C.3    24  ILE24       0.0020
      8  CD1       18.8040   15.1820    8.1770 C.3    24  ILE24       0.0001
      9  N         23.1650   15.6240   11.8930 N.am   25  GLY25      -0.1957
     10  CA        23.7090   15.8010   13.2260 C.3    25  GLY25       0.1869
     11  C         24.8730   16.7700   13.2550 C.2    25  GLY25       0.2309
     12  O         24.9940   17.5790   14.1770 O.2    25  GLY25      -0.2863
     13  N         23.4400   20.4260   12.9810 N.3    28  TRP28      -0.1241
     14  CA        23.0130   20.9880   14.2570 C.3    28  TRP28       0.1605
     15  C         24.2040   21.3480   15.1360 C.2    28  TRP28       0.2264
     16  O         24.2000   22.3940   15.7910 O.2    28  TRP28      -0.2867
     17  CB        22.0680   20.0290   14.9790 C.3    28  TRP28       0.0550
     18  CG        20.6630   20.0740   14.4640 C.ar   28  TRP28       0.0003
     19  CD1       20.0380   19.1330   13.6970 C.ar   28  TRP28       0.0946
     20  CD2       19.7030   21.1150   14.6800 C.ar   28  TRP28       0.0152
     21  NE1       18.7550   19.5290   13.4130 N.ar   28  TRP28      -0.2442
     22  CE2       18.5190   20.7360   14.0150 C.ar   28  TRP28       0.0810
     23  CE3       19.7260   22.3280   15.3750 C.ar   28  TRP28       0.0012
     24  CZ2       17.3730   21.5250   14.0190 C.ar   28  TRP28       0.0191
     25  CZ3       18.5840   23.1100   15.3850 C.ar   28  TRP28       0.0001
     26  CH2       17.4220   22.7090   14.7070 C.ar   28  TRP28       0.0015
     27  N         12.2240   19.7030    6.6110 N.3    51  CYS51      -0.1235
     28  CA        12.4770   18.6190    5.6650 C.3    51  CYS51       0.1677
     29  C         11.7780   19.0010    4.3670 C.2    51  CYS51       0.2270
     30  O         10.5500   18.9130    4.2550 O.2    51  CYS51      -0.2867
     31  CB        11.9540   17.2890    6.1990 C.3    51  CYS51       0.0956
     32  SG        12.8090   16.7260    7.6720 S.3    51  CYS51      -0.0801
     33  N         16.7910   15.5370   -1.1490 N.3    59  PHE59      -0.1241
     34  CA        16.4090   15.8970    0.2090 C.3    59  PHE59       0.1605
     35  C         17.1550   17.1620    0.6360 C.2    59  PHE59       0.2264
     36  O         18.3570   17.2970    0.3980 O.2    59  PHE59      -0.2867
     37  CB        16.7590   14.7120    1.1130 C.3    59  PHE59       0.0534
     38  CG        16.4320   14.9100    2.5620 C.ar   59  PHE59      -0.0203
     39  CD1       15.1740   14.5950    3.0570 C.ar   59  PHE59      -0.0042
     40  CD2       17.3980   15.3720    3.4390 C.ar   59  PHE59      -0.0042
     41  CE1       14.8830   14.7670    4.4010 C.ar   59  PHE59      -0.0003
     42  CE2       17.1150   15.5460    4.7730 C.ar   59  PHE59      -0.0003
     43  CZ        15.8560   15.2360    5.2590 C.ar   59  PHE59      -0.0000
     44  N         17.4390   19.9760    3.9680 N.3    61  TYR61      -0.1241
     45  CA        17.1110   20.1680    5.3730 C.3    61  TYR61       0.1605
     46  C         17.6320   21.5220    5.8400 C.2    61  TYR61       0.2264
     47  O         18.7350   21.9340    5.4690 O.2    61  TYR61      -0.2867
     48  CB        17.7260   19.0310    6.2030 C.3    61  TYR61       0.0534
     49  CG        17.3680   18.9770    7.6750 C.ar   61  TYR61      -0.0201
     50  CD1       18.0600   19.7470    8.6120 C.ar   61  TYR61      -0.0009
     51  CD2       16.3800   18.1180    8.1380 C.ar   61  TYR61      -0.0009
     52  CE1       17.7600   19.6720    9.9570 C.ar   61  TYR61       0.0417
     53  CE2       16.0800   18.0350    9.4790 C.ar   61  TYR61       0.0417
     54  CZ        16.7800   18.8030   10.3860 C.ar   61  TYR61       0.1957
     55  OH        16.4920   18.7190   11.7260 O.3    61  TYR61      -0.2866
     56  N         16.8260   12.4220   18.7190 N.3    96  ALA96      -0.1231
     57  CA        16.7910   13.1000   17.4280 C.3    96  ALA96       0.1679
     58  C         17.0870   12.1670   16.2610 C.2    96  ALA96       0.2434
     59  O         16.3420   12.2210   15.2660 O.2    96  ALA96      -0.2733
     60  CB        17.6870   14.3490   17.4390 C.3    96  ALA96       0.0304
     61  N         18.1020   11.2960   16.3030 N.am   97  PRO97      -0.2729
     62  CA        18.2750   10.3600   15.1850 C.3    97  PRO97       0.1401
     63  C         17.0830    9.4430   14.9690 C.2    97  PRO97       0.2269
     64  O         16.8620    9.0040   13.8350 O.2    97  PRO97      -0.2865
     65  CB        19.5430    9.5830   15.5640 C.3    97  PRO97       0.0296
     66  CG        20.2860   10.4940   16.4510 C.3    97  PRO97       0.0237
     67  CD        19.2350   11.2150   17.2450 C.3    97  PRO97       0.0939
     68  N         14.0620   10.3860   14.9710 N.3    99  ILE99      -0.1231
     69  CA        13.0250   11.1050   14.2340 C.3    99  ILE99       0.1692
     70  C         12.7980   10.4640   12.8760 C.2    99  ILE99       0.2591
     71  O         11.6600   10.3450   12.4060 O.2    99  ILE99      -0.2718
     72  CB        13.4010   12.5900   14.0940 C.3    99  ILE99       0.0266
     73  CG1       13.3050   13.2900   15.4530 C.3    99  ILE99       0.0019
     74  CG2       12.5240   13.2420   13.0300 C.3    99  ILE99       0.0020
     75  CD1       13.9320   14.6830   15.4730 C.3    99  ILE99       0.0001
     76  N         13.8850   10.0330   12.2330 N.am  100  ALA100     -0.1980
     77  CA        13.8000    9.4080   10.9200 C.3   100  ALA100      0.1597
     78  C         12.9210    8.1640   10.9480 C.2   100  ALA100      0.2287
     79  O         12.1710    7.8940    9.9990 O.2   100  ALA100     -0.2864
     80  CB        15.2030    9.0110   10.4970 C.3   100  ALA100      0.0319
     81  N          9.2910    9.3390   11.0910 N.3   103  PHE103     -0.1241
     82  CA         8.8270    9.7300    9.7590 C.3   103  PHE103      0.1605
     83  C          8.4520    8.5070    8.9260 C.2   103  PHE103      0.2264
     84  O          7.4270    8.5100    8.2350 O.2   103  PHE103     -0.2867
     85  CB         9.8880   10.5530    9.0230 C.3   103  PHE103      0.0534
     86  CG         9.7650   12.0420    9.2190 C.ar  103  PHE103     -0.0203
     87  CD1        8.7160   12.7570    8.6630 C.ar  103  PHE103     -0.0042
     88  CD2       10.7360   12.7340    9.9170 C.ar  103  PHE103     -0.0042
     89  CE1        8.6280   14.1240    8.8310 C.ar  103  PHE103     -0.0003
     90  CE2       10.6440   14.1010   10.0850 C.ar  103  PHE103     -0.0003
     91  CZ         9.5860   14.7870    9.5430 C.ar  103  PHE103     -0.0000
     92  N         10.2380   19.3260   11.7110 N.3   125  GLU125     -0.1245
     93  CA        10.3970   18.9900   13.1110 C.3   125  GLU125      0.1567
     94  C         10.3070   20.2720   13.9260 C.2   125  GLU125      0.2260
     95  O         10.9010   21.2920   13.5640 O.2   125  GLU125     -0.2867
     96  CB        11.7750   18.3600   13.3210 C.3   125  GLU125      0.0388
     97  CG        11.9800   17.0830   12.5210 C.3   125  GLU125      0.1160
     98  CD        13.4060   16.8980   12.0530 C.2   125  GLU125      0.3649
     99  OE1       13.6110   16.0450   11.1660 O.co2 125  GLU125     -0.2457
    100  OE2       14.3240   17.5870   12.5580 O.co2 125  GLU125     -0.2457
    101  N         10.9630   21.7470   17.6520 N.3   127  TYR127     -0.1241
    102  CA        11.7100   21.5010   18.8810 C.3   127  TYR127      0.1605
    103  C         11.3850   22.6150   19.8700 C.2   127  TYR127      0.2264
    104  O         11.7420   23.7720   19.6420 O.2   127  TYR127     -0.2867
    105  CB        13.2170   21.5020   18.6090 C.3   127  TYR127      0.0534
    106  CG        13.7420   20.4680   17.6300 C.ar  127  TYR127     -0.0201
    107  CD1       13.7680   20.7140   16.2620 C.ar  127  TYR127     -0.0009
    108  CD2       14.2540   19.2550   18.0820 C.ar  127  TYR127     -0.0009
    109  CE1       14.2690   19.7680   15.3660 C.ar  127  TYR127      0.0417
    110  CE2       14.7580   18.3170   17.2030 C.ar  127  TYR127      0.0417
    111  CZ        14.7630   18.5660   15.8480 C.ar  127  TYR127      0.1957
    112  OH        15.2720   17.6030   14.9920 O.3   127  TYR127     -0.2866
    113  N         19.7750   15.8570   21.9180 N.3   134  PRO134     -0.2116
    114  CA        19.6010   14.9780   20.7500 C.3   134  PRO134      0.1372
    115  C         19.5970   13.4930   21.0650 C.2   134  PRO134      0.2244
    116  O         19.0050   12.7220   20.3030 O.2   134  PRO134     -0.2868
    117  CB        20.7660   15.3720   19.8310 C.3   134  PRO134      0.0268
    118  CG        21.7650   16.0280   20.7360 C.3   134  PRO134      0.0207
    119  CD        20.9660   16.7150   21.7980 C.3   134  PRO134      0.0892
@<TRIPOS>BOND
     1    33    34    1
     2    34    35    1
     3    34    37    1
     4    36    35    2
     5    37    38    1
     6    38    39   ar
     7    38    40   ar
     8    39    41   ar
     9    40    42   ar
    10    44    45    1
    11    30    29    2
    12    29    28    1
    13    41    43   ar
    14    42    43   ar
    15    45    46    1
    16    45    48    1
    17    47    46    2
    18    28    31    1
    19    28    27    1
    20    31    32    1
    21    48    49    1
    22    49    51   ar
    23    49    50   ar
    24    51    53   ar
    25     8     6    1
    26    84    83    2
    27     6     5    1
    28    50    52   ar
    29    87    89   ar
    30    87    86   ar
    31    89    91   ar
    32    83    82    1
    33    85    86    1
    34    85    82    1
    35     1     2    1
    36    86    88   ar
    37    53    54   ar
    38    91    90   ar
    39    82    81    1
    40     5     2    1
    41     5     7    1
    42     2     3    1
    43    88    90   ar
    44    52    54   ar
    45    79    78    2
    46    54    55    1
    47    80    77    1
    48    77    78    1
    49    77    76    1
    50    99    98   ar
    51     3     4    2
    52     3     9   am
    53    92    93    1
    54     9    10    1
    55    98    97    1
    56    98   100   ar
    57    76    70   am
    58    71    70    2
    59    97    96    1
    60    70    69    1
    61    13    14    1
    62    74    72    1
    63    93    96    1
    64    93    94    1
    65    10    11    1
    66    11    12    2
    67    21    19   ar
    68    21    22   ar
    69    95    94    2
    70    19    18   ar
    71    64    63    2
    72    22    24   ar
    73    22    20   ar
    74    24    26   ar
    75    72    69    1
    76    72    73    1
    77    69    68    1
    78    14    17    1
    79    14    15    1
    80    18    20   ar
    81    18    17    1
    82    20    23   ar
    83    26    25   ar
    84    63    62    1
    85   112   111    1
    86    15    16    2
    87    62    65    1
    88    62    61    1
    89    59    58    2
    90   109   111   ar
    91   109   107   ar
    92    23    25   ar
    93    73    75    1
    94    65    66    1
    95   111   110   ar
    96    58    61   am
    97    58    57    1
    98   107   106   ar
    99    61    67    1
   100    66    67    1
   101   110   108   ar
   102    57    60    1
   103    57    56    1
   104   106   108   ar
   105   106   105    1
   106   101   102    1
   107   105   102    1
   108   102   103    1
   109   104   103    2
   110   117   118    1
   111   117   114    1
   112   116   115    2
   113   118   119    1
   114   114   115    1
   115   114   113    1
   116   119   113    1
