@<TRIPOS>MOLECULE
tmp/5xbiA01.pdb
 91 89 0 0 0
SMALL
GASTEIGER

@<TRIPOS>ATOM
      1  N         23.0250   15.5280    9.1190 N.3    24  ILE24      -0.1231
      2  CA        22.1140   16.4140    9.8390 C.3    24  ILE24       0.1692
      3  C         22.6150   16.6560   11.2590 C.2    24  ILE24       0.2592
      4  O         22.5140   17.7690   11.7930 O.2    24  ILE24      -0.2718
      5  CB        20.6740   15.8640    9.7980 C.3    24  ILE24       0.0266
      6  CG1       20.1450   15.8870    8.3640 C.3    24  ILE24       0.0019
      7  CG2       19.7620   16.6410   10.7410 C.3    24  ILE24       0.0020
      8  CD1       18.8040   15.1820    8.1770 C.3    24  ILE24       0.0001
      9  N         23.1650   15.6240   11.8930 N.am   25  GLY25      -0.1957
     10  CA        23.7090   15.8010   13.2260 C.3    25  GLY25       0.1869
     11  C         24.8730   16.7700   13.2550 C.2    25  GLY25       0.2309
     12  O         24.9940   17.5790   14.1770 O.2    25  GLY25      -0.2863
     13  N         23.4400   20.4260   12.9810 N.3    28  TRP28      -0.1227
     14  CA        23.0130   20.9880   14.2570 C.3    28  TRP28       0.1737
     15  C         24.2040   21.3480   15.1360 C.2    28  TRP28       0.2595
     16  O         24.2000   22.3940   15.7910 O.2    28  TRP28      -0.2718
     17  CB        22.0680   20.0290   14.9790 C.3    28  TRP28       0.0564
     18  CG        20.6630   20.0740   14.4640 C.ar   28  TRP28       0.0003
     19  CD1       20.0380   19.1330   13.6970 C.ar   28  TRP28       0.0946
     20  CD2       19.7030   21.1150   14.6800 C.ar   28  TRP28       0.0152
     21  NE1       18.7550   19.5290   13.4130 N.ar   28  TRP28      -0.2442
     22  CE2       18.5190   20.7360   14.0150 C.ar   28  TRP28       0.0810
     23  CE3       19.7260   22.3280   15.3750 C.ar   28  TRP28       0.0012
     24  CZ2       17.3730   21.5250   14.0190 C.ar   28  TRP28       0.0191
     25  CZ3       18.5840   23.1100   15.3850 C.ar   28  TRP28       0.0001
     26  CH2       17.4220   22.7090   14.7070 C.ar   28  TRP28       0.0015
     27  N         25.2450   20.5090   15.1470 N.am   29  GLU29      -0.1979
     28  CA        26.3910   20.7940   16.0030 C.3    29  GLU29       0.1602
     29  C         27.0940   22.0840   15.5990 C.2    29  GLU29       0.2287
     30  O         27.5620   22.8330   16.4640 O.2    29  GLU29      -0.2864
     31  CB        27.3580   19.6120   16.0220 C.3    29  GLU29       0.0415
     32  CG        26.8100   18.4420   16.8170 C.3    29  GLU29       0.1163
     33  CD        27.7130   17.2300   16.7850 C.2    29  GLU29       0.3649
     34  OE1       28.8570   17.3500   16.3040 O.co2  29  GLU29      -0.2457
     35  OE2       27.2770   16.1580   17.2490 O.co2  29  GLU29      -0.2457
     36  N         24.4060   25.2250   16.5030 N.3    32  ILE32      -0.1245
     37  CA        24.1510   25.5880   17.9070 C.3    32  ILE32       0.1561
     38  C         24.9370   26.8120   18.3780 C.2    32  ILE32       0.2260
     39  O         24.3180   27.7520   18.8970 O.2    32  ILE32      -0.2867
     40  CB        24.3190   24.3530   18.8170 C.3    32  ILE32       0.0252
     41  CG1       23.1420   23.4000   18.6330 C.3    32  ILE32       0.0019
     42  CG2       24.4480   24.7760   20.2760 C.3    32  ILE32       0.0019
     43  CD1       23.3080   22.0940   19.3670 C.3    32  ILE32       0.0001
     44  N         12.8640   25.7840   17.8120 N.3    47  SER47      -0.1217
     45  CA        13.6380   25.6700   16.5880 C.3    47  SER47       0.1889
     46  C         13.0000   24.6340   15.6680 C.2    47  SER47       0.2288
     47  O         12.1660   23.8190   16.0860 O.2    47  SER47      -0.2866
     48  CB        15.1130   25.3740   16.8660 C.3    47  SER47       0.2089
     49  OG        15.2780   24.1770   17.5930 O.3    47  SER47      -0.2183
     50  N         16.8260   12.4220   18.7190 N.3    96  ALA96      -0.1231
     51  CA        16.7910   13.1000   17.4280 C.3    96  ALA96       0.1679
     52  C         17.0870   12.1670   16.2610 C.2    96  ALA96       0.2434
     53  O         16.3420   12.2210   15.2660 O.2    96  ALA96      -0.2733
     54  CB        17.6870   14.3490   17.4390 C.3    96  ALA96       0.0304
     55  N         18.1020   11.2960   16.3030 N.am   97  PRO97      -0.2729
     56  CA        18.2750   10.3600   15.1850 C.3    97  PRO97       0.1401
     57  C         17.0830    9.4430   14.9690 C.2    97  PRO97       0.2269
     58  O         16.8620    9.0040   13.8350 O.2    97  PRO97      -0.2865
     59  CB        19.5430    9.5830   15.5640 C.3    97  PRO97       0.0296
     60  CG        20.2860   10.4940   16.4510 C.3    97  PRO97       0.0237
     61  CD        19.2350   11.2150   17.2450 C.3    97  PRO97       0.0939
     62  N         10.9630   21.7470   17.6520 N.3   127  TYR127     -0.1241
     63  CA        11.7100   21.5010   18.8810 C.3   127  TYR127      0.1605
     64  C         11.3850   22.6150   19.8700 C.2   127  TYR127      0.2264
     65  O         11.7420   23.7720   19.6420 O.2   127  TYR127     -0.2867
     66  CB        13.2170   21.5020   18.6090 C.3   127  TYR127      0.0534
     67  CG        13.7420   20.4680   17.6300 C.ar  127  TYR127     -0.0201
     68  CD1       13.7680   20.7140   16.2620 C.ar  127  TYR127     -0.0009
     69  CD2       14.2540   19.2550   18.0820 C.ar  127  TYR127     -0.0009
     70  CE1       14.2690   19.7680   15.3660 C.ar  127  TYR127      0.0417
     71  CE2       14.7580   18.3170   17.2030 C.ar  127  TYR127      0.0417
     72  CZ        14.7630   18.5660   15.8480 C.ar  127  TYR127      0.1957
     73  OH        15.2720   17.6030   14.9920 O.3   127  TYR127     -0.2866
     74  N         12.1960   19.2350   24.1800 N.3   131  PHE131     -0.1241
     75  CA        13.4020   18.6340   23.6270 C.3   131  PHE131      0.1605
     76  C         14.5480   18.8680   24.6050 C.2   131  PHE131      0.2264
     77  O         14.9200   20.0170   24.8690 O.2   131  PHE131     -0.2867
     78  CB        13.7210   19.2390   22.2600 C.3   131  PHE131      0.0534
     79  CG        14.9530   18.6660   21.6160 C.ar  131  PHE131     -0.0203
     80  CD1       14.9530   17.3770   21.1010 C.ar  131  PHE131     -0.0042
     81  CD2       16.1170   19.4140   21.5300 C.ar  131  PHE131     -0.0042
     82  CE1       16.0910   16.8570   20.5110 C.ar  131  PHE131     -0.0003
     83  CE2       17.2510   18.8970   20.9430 C.ar  131  PHE131     -0.0003
     84  CZ        17.2370   17.6210   20.4300 C.ar  131  PHE131     -0.0000
     85  N         19.7750   15.8570   21.9180 N.3   134  PRO134     -0.2116
     86  CA        19.6010   14.9780   20.7500 C.3   134  PRO134      0.1372
     87  C         19.5970   13.4930   21.0650 C.2   134  PRO134      0.2244
     88  O         19.0050   12.7220   20.3030 O.2   134  PRO134     -0.2868
     89  CB        20.7660   15.3720   19.8310 C.3   134  PRO134      0.0268
     90  CG        21.7650   16.0280   20.7360 C.3   134  PRO134      0.0207
     91  CD        20.9660   16.7150   21.7980 C.3   134  PRO134      0.0892
@<TRIPOS>BOND
     1     8     6    1
     2     6     5    1
     3     1     2    1
     4     5     2    1
     5     5     7    1
     6     2     3    1
     7     3     4    2
     8     3     9   am
     9     9    10    1
    10    13    14    1
    11    10    11    1
    12    11    12    2
    13    21    19   ar
    14    21    22   ar
    15    19    18   ar
    16    58    57    2
    17    22    24   ar
    18    22    20   ar
    19    24    26   ar
    20    14    17    1
    21    14    15    1
    22    18    20   ar
    23    18    17    1
    24    20    23   ar
    25    26    25   ar
    26    57    56    1
    27    73    72    1
    28    15    27   am
    29    15    16    2
    30    27    28    1
    31    56    59    1
    32    56    55    1
    33    53    52    2
    34    70    72   ar
    35    70    68   ar
    36    23    25   ar
    37    59    60    1
    38    29    28    1
    39    29    30    2
    40    46    47    2
    41    46    45    1
    42    72    71   ar
    43    28    31    1
    44    31    32    1
    45    52    55   am
    46    52    51    1
    47    68    67   ar
    48    55    61    1
    49    34    33   ar
    50    60    61    1
    51    36    37    1
    52    45    48    1
    53    45    44    1
    54    33    32    1
    55    33    35   ar
    56    48    49    1
    57    71    69   ar
    58    51    54    1
    59    51    50    1
    60    67    69   ar
    61    67    66    1
    62    62    63    1
    63    37    38    1
    64    37    40    1
    65    38    39    2
    66    66    63    1
    67    41    40    1
    68    41    43    1
    69    40    42    1
    70    63    64    1
    71    65    64    2
    72    89    90    1
    73    89    86    1
    74    88    87    2
    75    84    82   ar
    76    84    83   ar
    77    82    80   ar
    78    90    91    1
    79    86    87    1
    80    86    85    1
    81    83    81   ar
    82    80    79   ar
    83    81    79   ar
    84    79    78    1
    85    91    85    1
    86    78    75    1
    87    75    74    1
    88    75    76    1
    89    76    77    2
