@<TRIPOS>MOLECULE
tmp/5xbmC01.pdb
 89 88 0 0 0
SMALL
GASTEIGER

@<TRIPOS>ATOM
      1  N        261.4530  -33.7510   50.5960 N.3    55  TYR55      -0.1241
      2  CA       260.8670  -33.9930   51.9090 C.3    55  TYR55       0.1605
      3  C        261.2360  -35.4000   52.3490 C.2    55  TYR55       0.2264
      4  O        260.9410  -36.3670   51.6370 O.2    55  TYR55      -0.2867
      5  CB       259.3440  -33.8400   51.8760 C.3    55  TYR55       0.0534
      6  CG       258.8400  -32.4170   51.8780 C.ar   55  TYR55      -0.0201
      7  CD1      258.6500  -31.7250   50.6910 C.ar   55  TYR55      -0.0009
      8  CD2      258.5280  -31.7750   53.0680 C.ar   55  TYR55      -0.0009
      9  CE1      258.1760  -30.4260   50.6900 C.ar   55  TYR55       0.0417
     10  CE2      258.0540  -30.4790   53.0770 C.ar   55  TYR55       0.0417
     11  CZ       257.8800  -29.8090   51.8870 C.ar   55  TYR55       0.1957
     12  OH       257.4070  -28.5160   51.8950 O.3    55  TYR55      -0.2866
     13  N        259.0490  -40.1090   57.2620 N.3    58  LEU58      -0.1245
     14  CA       259.2140  -40.8830   58.4890 C.3    58  LEU58       0.1561
     15  C        258.1600  -41.9810   58.4820 C.2    58  LEU58       0.2260
     16  O        256.9570  -41.6960   58.5210 O.2    58  LEU58      -0.2867
     17  CB       259.0850  -40.0040   59.7320 C.3    58  LEU58       0.0270
     18  CG       260.1150  -38.8840   59.8770 C.3    58  LEU58       0.0019
     19  CD1      260.0080  -38.2200   61.2440 C.3    58  LEU58       0.0001
     20  CD2      261.5150  -39.4240   59.6420 C.3    58  LEU58       0.0001
     21  N        255.2290  -39.0730   57.6770 N.3    80  ALA80      -0.1231
     22  CA       255.4700  -37.7140   58.1400 C.3    80  ALA80       0.1694
     23  C        256.5650  -37.1160   57.2710 C.2    80  ALA80       0.2592
     24  O        257.6710  -37.6610   57.1990 O.2    80  ALA80      -0.2718
     25  CB       255.8670  -37.6980   59.6160 C.3    80  ALA80       0.0304
     26  N        256.2580  -36.0100   56.6050 N.am   81  TYR81      -0.1962
     27  CA       257.1650  -35.4100   55.6300 C.3    81  TYR81       0.1771
     28  C        257.9340  -34.2820   56.3080 C.2    81  TYR81       0.2619
     29  O        257.3850  -33.2070   56.5610 O.2    81  TYR81      -0.2715
     30  CB       256.3950  -34.8990   54.4170 C.3    81  TYR81       0.0574
     31  CG       255.7530  -35.9900   53.5870 C.ar   81  TYR81      -0.0198
     32  CD1      254.6100  -36.6410   54.0270 C.ar   81  TYR81      -0.0009
     33  CD2      256.2840  -36.3600   52.3580 C.ar   81  TYR81      -0.0009
     34  CE1      254.0180  -37.6360   53.2740 C.ar   81  TYR81       0.0417
     35  CE2      255.6990  -37.3520   51.5950 C.ar   81  TYR81       0.0417
     36  CZ       254.5660  -37.9880   52.0580 C.ar   81  TYR81       0.1957
     37  OH       253.9830  -38.9780   51.3000 O.3    81  TYR81      -0.2866
     38  N        259.2080  -34.5250   56.6010 N.am   82  VAL82      -0.1963
     39  CA       260.0850  -33.4990   57.1530 C.3    82  VAL82       0.1727
     40  C        260.8350  -32.8400   56.0040 C.2    82  VAL82       0.2616
     41  O        261.4370  -33.5250   55.1690 O.2    82  VAL82      -0.2715
     42  CB       261.0610  -34.0940   58.1820 C.3    82  VAL82       0.0290
     43  CG1      262.0080  -33.0220   58.6890 C.3    82  VAL82       0.0023
     44  CG2      260.3020  -34.7280   59.3350 C.3    82  VAL82       0.0023
     45  N        260.7940  -31.5110   55.9530 N.am   83  PHE83      -0.1974
     46  CA       261.4460  -30.7890   54.8700 C.3    83  PHE83       0.1639
     47  C        262.9590  -30.7880   55.0670 C.2    83  PHE83       0.2290
     48  O        263.4630  -30.7390   56.1930 O.2    83  PHE83      -0.2864
     49  CB       260.9330  -29.3510   54.7920 C.3    83  PHE83       0.0560
     50  CG       261.5570  -28.5450   53.6840 C.ar   83  PHE83      -0.0200
     51  CD1      261.3140  -28.8580   52.3560 C.ar   83  PHE83      -0.0042
     52  CD2      262.3800  -27.4700   53.9710 C.ar   83  PHE83      -0.0042
     53  CE1      261.8850  -28.1160   51.3340 C.ar   83  PHE83      -0.0003
     54  CE2      262.9520  -26.7230   52.9540 C.ar   83  PHE83      -0.0003
     55  CZ       262.7070  -27.0480   51.6340 C.ar   83  PHE83      -0.0000
     56  N        254.3670  -24.1390   49.3360 N.3   138  ASP138     -0.1239
     57  CA       253.8680  -24.8340   50.5160 C.3   138  ASP138      0.1674
     58  C        252.3450  -24.7910   50.5950 C.2   138  ASP138      0.2266
     59  O        251.7290  -25.7090   51.1480 O.2   138  ASP138     -0.2867
     60  CB       254.4840  -24.2280   51.7740 C.3   138  ASP138      0.1410
     61  CG       254.1930  -25.0410   53.0110 C.2   138  ASP138      0.3668
     62  OD1      255.0500  -25.8640   53.3940 O.co2 138  ASP138     -0.2456
     63  OD2      253.1020  -24.8680   53.5950 O.co2 138  ASP138     -0.2456
     64  N        249.9980  -28.3560   50.9620 N.3   142  TRP142     -0.1241
     65  CA       249.6840  -28.4570   52.3830 C.3   142  TRP142      0.1605
     66  C        248.4240  -27.6930   52.7760 C.2   142  TRP142      0.2264
     67  O        248.1360  -27.5730   53.9720 O.2   142  TRP142     -0.2867
     68  CB       250.8710  -27.9930   53.2360 C.3   142  TRP142      0.0550
     69  CG       252.1530  -28.7350   52.9450 C.ar  142  TRP142      0.0003
     70  CD1      253.3610  -28.1840   52.6300 C.ar  142  TRP142      0.0946
     71  CD2      252.3490  -30.1590   52.9300 C.ar  142  TRP142      0.0152
     72  NE1      254.2970  -29.1690   52.4250 N.ar  142  TRP142     -0.2442
     73  CE2      253.7010  -30.3910   52.6010 C.ar  142  TRP142      0.0810
     74  CE3      251.5160  -31.2570   53.1650 C.ar  142  TRP142      0.0012
     75  CZ2      254.2360  -31.6750   52.5000 C.ar  142  TRP142      0.0191
     76  CZ3      252.0500  -32.5310   53.0630 C.ar  142  TRP142      0.0001
     77  CH2      253.3950  -32.7290   52.7340 C.ar  142  TRP142      0.0015
     78  N        249.9630  -35.6290   56.7260 N.3   170  ASN170     -0.1225
     79  CA       251.1350  -35.7140   57.5880 C.3   170  ASN170      0.1785
     80  C        250.7160  -36.3400   58.9140 C.2   170  ASN170      0.2597
     81  O        249.9650  -35.7330   59.6840 O.2   170  ASN170     -0.2718
     82  CB       251.7430  -34.3270   57.7930 C.3   170  ASN170      0.1169
     83  CG       253.0340  -34.3540   58.5950 C.2   170  ASN170      0.2627
     84  OD1      253.4430  -35.3900   59.1220 O.2   170  ASN170     -0.2716
     85  ND2      253.6810  -33.1980   58.6970 N.am  170  ASN170     -0.0877
     86  N        251.2080  -37.5490   59.1820 N.am  171  GLY171     -0.1957
     87  CA       250.9490  -38.2350   60.4300 C.3   171  GLY171      0.1869
     88  C        249.7770  -39.1930   60.4040 C.2   171  GLY171      0.2309
     89  O        249.6200  -39.9790   61.3470 O.2   171  GLY171     -0.2863
@<TRIPOS>BOND
     1    56    57    1
     2    57    58    1
     3    57    60    1
     4    58    59    2
     5     1     2    1
     6     9     7   ar
     7     9    11   ar
     8     7     6   ar
     9    64    65    1
    10    37    36    1
    11    53    55   ar
    12    53    51   ar
    13    35    36   ar
    14    35    33   ar
    15    55    54   ar
    16     4     3    2
    17    60    61    1
    18     5     6    1
    19     5     2    1
    20     6     8   ar
    21    11    12    1
    22    11    10   ar
    23     2     3    1
    24    36    34   ar
    25    51    50   ar
    26    33    31   ar
    27    65    66    1
    28    65    68    1
    29    72    73   ar
    30    72    70   ar
    31    75    73   ar
    32    75    77   ar
    33    73    71   ar
    34    70    69   ar
    35    77    76   ar
    36    66    67    2
    37    71    69   ar
    38    71    74   ar
    39    69    68    1
    40    54    52   ar
    41    61    62   ar
    42    61    63   ar
    43    76    74   ar
    44     8    10   ar
    45    34    32   ar
    46    31    32   ar
    47    31    30    1
    48    50    52   ar
    49    50    49    1
    50    30    27    1
    51    49    46    1
    52    46    47    1
    53    46    45    1
    54    47    48    2
    55    41    40    2
    56    27    28    1
    57    27    26    1
    58    45    40   am
    59    40    39    1
    60    28    29    2
    61    28    38   am
    62    38    39    1
    63    26    23   am
    64    78    79    1
    65    39    42    1
    66    24    23    2
    67    13    14    1
    68    23    22    1
    69    79    82    1
    70    79    80    1
    71    21    22    1
    72    82    83    1
    73    22    25    1
    74    42    43    1
    75    42    44    1
    76    15    14    1
    77    15    16    2
    78    14    17    1
    79    83    85   am
    80    83    84    2
    81    80    86   am
    82    80    81    2
    83    86    87    1
    84    20    18    1
    85    17    18    1
    86    18    19    1
    87    88    87    1
    88    88    89    2
