@<TRIPOS>MOLECULE
tmp/5xbmC06.pdb
 89 83 0 0 0
SMALL
GASTEIGER

@<TRIPOS>ATOM
      1  N        232.7210  -29.4690   38.2240 N.3   109  GLU109     -0.1245
      2  CA       232.4400  -30.8850   38.0320 C.3   109  GLU109      0.1567
      3  C        231.2900  -31.3330   38.9240 C.2   109  GLU109      0.2260
      4  O        230.3960  -32.0620   38.4780 O.2   109  GLU109     -0.2867
      5  CB       233.7030  -31.7020   38.3030 C.3   109  GLU109      0.0388
      6  CG       233.8710  -32.8980   37.3860 C.3   109  GLU109      0.1160
      7  CD       233.5440  -32.5700   35.9390 C.2   109  GLU109      0.3649
      8  OE1      232.6890  -33.2670   35.3510 O.co2 109  GLU109     -0.2457
      9  OE2      234.1350  -31.6120   35.3940 O.co2 109  GLU109     -0.2457
     10  N        235.8460  -45.6310   32.9320 N.3   277  ILE277     -0.1231
     11  CA       234.6490  -45.2850   33.7000 C.3   277  ILE277      0.1678
     12  C        233.6770  -44.4710   32.8470 C.2   277  ILE277      0.2434
     13  O        232.4560  -44.6010   33.0280 O.2   277  ILE277     -0.2733
     14  CB       235.0300  -44.5600   35.0040 C.3   277  ILE277      0.0265
     15  CG1      235.5090  -45.5880   36.0330 C.3   277  ILE277      0.0019
     16  CG2      233.8690  -43.7480   35.5560 C.3   277  ILE277      0.0020
     17  CD1      235.6150  -45.0550   37.4270 C.3   277  ILE277      0.0001
     18  N        234.1410  -43.6490   31.8790 N.am  278  PRO278     -0.2729
     19  CA       233.1920  -43.0910   30.9030 C.3   278  PRO278      0.1401
     20  C        232.6100  -44.1280   29.9430 C.2   278  PRO278      0.2269
     21  O        232.0910  -43.7750   28.8800 O.2   278  PRO278     -0.2865
     22  CB       234.0370  -42.0570   30.1470 C.3   278  PRO278      0.0296
     23  CG       235.4560  -42.4590   30.3990 C.3   278  PRO278      0.0237
     24  CD       235.4330  -42.9420   31.8090 C.3   278  PRO278      0.0939
     25  N        234.8680  -44.7730   26.8720 N.3   281  ASN281     -0.1240
     26  CA       235.3580  -43.4970   26.3720 C.3   281  ASN281      0.1653
     27  C        236.7010  -43.1800   27.0110 C.2   281  ASN281      0.2266
     28  O        236.9100  -42.0760   27.5230 O.2   281  ASN281     -0.2867
     29  CB       234.3510  -42.3790   26.6420 C.3   281  ASN281      0.1155
     30  CG       233.3400  -42.2130   25.5160 C.2   281  ASN281      0.2627
     31  OD1      233.6710  -42.3660   24.3410 O.2   281  ASN281     -0.2716
     32  ND2      232.1060  -41.8860   25.8700 N.am  281  ASN281     -0.0877
     33  N        240.5730  -42.1620   27.3940 N.3   283  LEU283     -0.1245
     34  CA       241.4250  -41.1830   26.7380 C.3   283  LEU283      0.1561
     35  C        242.5780  -41.9250   26.0630 C.2   283  LEU283      0.2260
     36  O        242.5710  -43.1550   25.9470 O.2   283  LEU283     -0.2867
     37  CB       241.8970  -40.1400   27.7460 C.3   283  LEU283      0.0270
     38  CG       240.7830  -39.5030   28.5790 C.3   283  LEU283      0.0019
     39  CD1      241.3500  -38.4860   29.5570 C.3   283  LEU283      0.0001
     40  CD2      239.7450  -38.8620   27.6730 C.3   283  LEU283      0.0001
     41  N        242.0430  -42.1720   34.5270 N.3   289  ASN289     -0.1240
     42  CA       241.0270  -41.2550   35.0360 C.3   289  ASN289      0.1653
     43  C        240.7180  -41.6630   36.4710 C.2   289  ASN289      0.2266
     44  O        239.8300  -42.4750   36.7350 O.2   289  ASN289     -0.2867
     45  CB       239.7910  -41.2700   34.1450 C.3   289  ASN289      0.1155
     46  CG       238.7170  -40.3160   34.6210 C.2   289  ASN289      0.2627
     47  OD1      238.9370  -39.5150   35.5260 O.2   289  ASN289     -0.2716
     48  ND2      237.5450  -40.3940   34.0080 N.am  289  ASN289     -0.0877
     49  N        239.3500  -39.9530   38.8310 N.3   291  SER291     -0.1202
     50  CA       238.4650  -38.9250   39.3730 C.3   291  SER291      0.2020
     51  C        237.6180  -39.4690   40.5160 C.2   291  SER291      0.2618
     52  O        237.5460  -38.8590   41.5890 O.2   291  SER291     -0.2717
     53  CB       237.5690  -38.3580   38.2680 C.3   291  SER291      0.2103
     54  OG       236.6440  -37.4140   38.7860 O.3   291  SER291     -0.2182
     55  N        236.9740  -40.6200   40.3060 N.am  292  ILE292     -0.1979
     56  CA       236.1580  -41.2080   41.3620 C.3   292  ILE292      0.1595
     57  C        237.0230  -41.6260   42.5460 C.2   292  ILE292      0.2287
     58  O        236.5400  -41.6950   43.6830 O.2   292  ILE292     -0.2864
     59  CB       235.3470  -42.3900   40.8030 C.3   292  ILE292      0.0276
     60  CG1      234.2440  -42.7910   41.7810 C.3   292  ILE292      0.0022
     61  CG2      236.2550  -43.5730   40.5270 C.3   292  ILE292      0.0022
     62  CD1      233.2190  -43.7040   41.1680 C.3   292  ILE292      0.0001
     63  N        238.5390  -33.8210   38.4300 N.3   298  PRO298     -0.2116
     64  CA       238.8240  -34.4860   37.1640 C.3   298  PRO298      0.1372
     65  C        240.3080  -34.7030   37.0450 C.2   298  PRO298      0.2244
     66  O        240.9250  -34.4180   36.0470 O.2   298  PRO298     -0.2868
     67  CB       238.3790  -33.4650   36.1450 C.3   298  PRO298      0.0268
     68  CG       238.7000  -32.1640   36.7580 C.3   298  PRO298      0.0207
     69  CD       238.8400  -32.3410   38.2250 C.3   298  PRO298      0.0892
     70  N        243.5600  -36.4580   36.4540 N.3   300  ILE300     -0.1245
     71  CA       244.0530  -37.4800   35.5380 C.3   300  ILE300      0.1561
     72  C        245.4530  -37.8850   35.9770 C.2   300  ILE300      0.2260
     73  O        246.3300  -37.0300   36.1480 O.2   300  ILE300     -0.2867
     74  CB       244.0600  -36.9680   34.0860 C.3   300  ILE300      0.0252
     75  CG1      242.6300  -36.7640   33.5760 C.3   300  ILE300      0.0019
     76  CG2      244.8180  -37.9230   33.1800 C.3   300  ILE300      0.0019
     77  CD1      241.8400  -38.0430   33.4390 C.3   300  ILE300      0.0001
     78  N        241.8270  -32.2980   34.1220 N.3   352  TYR352     -0.1241
     79  CA       241.1260  -32.1820   32.8520 C.3   352  TYR352      0.1605
     80  C        240.5350  -30.7880   32.7280 C.2   352  TYR352      0.2264
     81  O        239.7110  -30.3810   33.5530 O.2   352  TYR352     -0.2867
     82  CB       240.0270  -33.2280   32.7360 C.3   352  TYR352      0.0534
     83  CG       239.5850  -33.4320   31.3120 C.ar  352  TYR352     -0.0201
     84  CD1      240.4330  -33.1230   30.2590 C.ar  352  TYR352     -0.0009
     85  CD2      238.3230  -33.9200   31.0180 C.ar  352  TYR352     -0.0009
     86  CE1      240.0420  -33.3070   28.9500 C.ar  352  TYR352      0.0417
     87  CE2      237.9200  -34.1060   29.7120 C.ar  352  TYR352      0.0417
     88  CZ       238.7820  -33.7990   28.6820 C.ar  352  TYR352      0.1957
     89  OH       238.3730  -33.9890   27.3830 O.3   352  TYR352     -0.2866
@<TRIPOS>BOND
     1    31    30    2
     2    30    32   am
     3    30    29    1
     4    36    35    2
     5    35    34    1
     6    26    29    1
     7    26    25    1
     8    26    27    1
     9    34    33    1
    10    34    37    1
    11    27    28    2
    12    89    88    1
    13    40    38    1
    14    37    38    1
    15    38    39    1
    16    88    86   ar
    17    88    87   ar
    18    21    20    2
    19    86    84   ar
    20    87    85   ar
    21    20    19    1
    22    22    23    1
    23    22    19    1
    24    84    83   ar
    25    23    24    1
    26    19    18    1
    27    85    83   ar
    28    83    82    1
    29    24    18    1
    30    18    12   am
    31    80    79    1
    32    80    81    2
    33    82    79    1
    34    12    13    2
    35    12    11    1
    36    79    78    1
    37    10    11    1
    38    76    74    1
    39    77    75    1
    40    75    74    1
    41    11    14    1
    42    48    46   am
    43    74    71    1
    44    45    46    1
    45    45    42    1
    46    41    42    1
    47    46    47    2
    48    14    16    1
    49    14    15    1
    50    42    43    1
    51     8     7   ar
    52     9     7   ar
    53    71    72    1
    54    71    70    1
    55     7     6    1
    56    72    73    2
    57    15    17    1
    58    66    65    2
    59    67    68    1
    60    67    64    1
    61    43    44    2
    62    68    69    1
    63    65    64    1
    64    64    63    1
    65     6     5    1
    66     2     1    1
    67     2     5    1
    68     2     3    1
    69    69    63    1
    70    53    54    1
    71    53    50    1
    72     4     3    2
    73    49    50    1
    74    50    51    1
    75    55    51   am
    76    55    56    1
    77    51    52    2
    78    61    59    1
    79    59    56    1
    80    59    60    1
    81    62    60    1
    82    56    57    1
    83    57    58    2
