@<TRIPOS>MOLECULE
tmp/5xbmC03.pdb
 91 86 0 0 0
SMALL
GASTEIGER

@<TRIPOS>ATOM
      1  N        237.9290  -57.6620   37.1150 N.3   208  LYS208     -0.1231
      2  CA       239.3840  -57.7720   37.0850 C.3   208  LYS208      0.1693
      3  C        240.0460  -56.4650   37.5010 C.2   208  LYS208      0.2592
      4  O        241.0040  -56.4650   38.2830 O.2   208  LYS208     -0.2718
      5  CB       239.8510  -58.1950   35.6910 C.3   208  LYS208      0.0285
      6  CG       240.1950  -59.6710   35.5870 C.3   208  LYS208      0.0035
      7  CD       239.0720  -60.5300   36.1510 C.3   208  LYS208      0.0206
      8  CE       239.4720  -61.9920   36.2400 C.3   208  LYS208      0.1093
      9  NZ       238.4170  -62.8240   36.8870 N.3   208  LYS208     -0.1314
     10  N        239.5490  -55.3380   36.9880 N.am  209  CYS209     -0.1970
     11  CA       240.1500  -54.0520   37.3240 C.3   209  CYS209      0.1712
     12  C        239.9910  -53.7280   38.8030 C.2   209  CYS209      0.2296
     13  O        240.8520  -53.0590   39.3880 O.2   209  CYS209     -0.2864
     14  CB       239.5320  -52.9490   36.4670 C.3   209  CYS209      0.0983
     15  SG       239.5580  -53.3190   34.7010 S.3   209  CYS209     -0.0798
     16  N        240.1420  -55.7780   41.3040 N.3   211  MET211     -0.1245
     17  CA       240.8800  -56.6510   42.1950 C.3   211  MET211      0.1570
     18  C        242.0060  -55.8860   42.8870 C.2   211  MET211      0.2261
     19  O        242.4100  -54.7830   42.4860 O.2   211  MET211     -0.2867
     20  CB       241.4590  -57.8390   41.4290 C.3   211  MET211      0.0387
     21  CG       240.4560  -58.9540   41.1520 C.3   211  MET211      0.0595
     22  SD       241.2100  -60.3380   40.2720 S.3   211  MET211     -0.1393
     23  CE       239.8810  -61.5390   40.2940 C.3   211  MET211      0.0692
     24  N        245.5070  -57.1640   43.6430 N.3   213  ASN213     -0.1240
     25  CA       246.6190  -58.1010   43.5840 C.3   213  ASN213      0.1653
     26  C        247.8430  -57.4370   44.1920 C.2   213  ASN213      0.2266
     27  O        247.9970  -56.2170   44.1120 O.2   213  ASN213     -0.2867
     28  CB       246.9280  -58.5170   42.1450 C.3   213  ASN213      0.1155
     29  CG       245.7090  -58.9620   41.3910 C.2   213  ASN213      0.2627
     30  OD1      244.8710  -59.7020   41.9010 O.2   213  ASN213     -0.2716
     31  ND2      245.6110  -58.5090   40.1450 N.am  213  ASN213     -0.0877
     32  N        253.0110  -58.0960   41.0250 N.3   231  TYR231     -0.1241
     33  CA       251.9520  -57.1170   41.2000 C.3   231  TYR231      0.1605
     34  C        252.2430  -56.2530   42.4250 C.2   231  TYR231      0.2264
     35  O        253.0920  -56.5790   43.2680 O.2   231  TYR231     -0.2867
     36  CB       250.5880  -57.8080   41.3200 C.3   231  TYR231      0.0534
     37  CG       250.1320  -58.4620   40.0280 C.ar  231  TYR231     -0.0201
     38  CD1      250.3160  -59.8210   39.8100 C.ar  231  TYR231     -0.0009
     39  CD2      249.5320  -57.7140   39.0210 C.ar  231  TYR231     -0.0009
     40  CE1      249.9150  -60.4170   38.6290 C.ar  231  TYR231      0.0417
     41  CE2      249.1290  -58.3030   37.8330 C.ar  231  TYR231      0.0417
     42  CZ       249.3240  -59.6530   37.6430 C.ar  231  TYR231      0.1957
     43  OH       248.9210  -60.2400   36.4660 O.3   231  TYR231     -0.2866
     44  N        244.5290  -48.5610   41.6180 N.3   239  ARG239     -0.1231
     45  CA       244.4280  -49.7970   40.8530 C.3   239  ARG239      0.1694
     46  C        245.6010  -50.6990   41.2080 C.2   239  ARG239      0.2592
     47  O        246.5510  -50.2890   41.8810 O.2   239  ARG239     -0.2718
     48  CB       244.4100  -49.5370   39.3440 C.3   239  ARG239      0.0321
     49  CG       245.7230  -49.0040   38.7940 C.3   239  ARG239      0.0489
     50  CD       245.7380  -49.0090   37.2730 C.3   239  ARG239      0.2205
     51  NE       245.8480  -50.3620   36.7350 N.pl3 239  ARG239     -0.0865
     52  CZ       245.7960  -50.6630   35.4400 C.cat 239  ARG239      0.5346
     53  NH1      245.9070  -51.9250   35.0500 N.pl3 239  ARG239      0.1354
     54  NH2      245.6260  -49.7070   34.5360 N.pl3 239  ARG239      0.1354
     55  N        245.5270  -51.9420   40.7420 N.am  240  SER240     -0.1952
     56  CA       246.6260  -52.8850   40.8870 C.3   240  SER240      0.1924
     57  C        247.5250  -52.7820   39.6610 C.2   240  SER240      0.2314
     58  O        247.0620  -52.9530   38.5260 O.2   240  SER240     -0.2863
     59  CB       246.1090  -54.3120   41.0570 C.3   240  SER240      0.2116
     60  OG       245.2700  -54.4170   42.1930 O.3   240  SER240     -0.2180
     61  N        251.3390  -53.9300   37.8120 N.3   242  TYR242     -0.1241
     62  CA       252.3600  -54.9660   37.8120 C.3   242  TYR242      0.1605
     63  C        253.6500  -54.4430   37.1960 C.2   242  TYR242      0.2264
     64  O        253.6690  -53.4200   36.5040 O.2   242  TYR242     -0.2867
     65  CB       251.9020  -56.2330   37.0730 C.3   242  TYR242      0.0534
     66  CG       251.4120  -56.0320   35.6570 C.ar  242  TYR242     -0.0201
     67  CD1      250.0580  -55.9000   35.3880 C.ar  242  TYR242     -0.0009
     68  CD2      252.2970  -56.0030   34.5880 C.ar  242  TYR242     -0.0009
     69  CE1      249.5990  -55.7310   34.0980 C.ar  242  TYR242      0.0417
     70  CE2      251.8470  -55.8330   33.2930 C.ar  242  TYR242      0.0417
     71  CZ       250.4960  -55.6960   33.0550 C.ar  242  TYR242      0.1957
     72  OH       250.0370  -55.5250   31.7690 O.3   242  TYR242     -0.2866
     73  N        242.4960  -55.1430   28.2680 N.3   271  ASP271     -0.1239
     74  CA       242.7490  -55.4000   29.6820 C.3   271  ASP271      0.1674
     75  C        242.5870  -54.1360   30.5170 C.2   271  ASP271      0.2266
     76  O        242.2650  -54.2180   31.7080 O.2   271  ASP271     -0.2867
     77  CB       244.1490  -55.9870   29.8700 C.3   271  ASP271      0.1410
     78  CG       244.2540  -57.4600   29.6830 C.2   271  ASP271      0.3668
     79  OD1      243.2650  -58.1360   29.4970 O.co2 271  ASP271     -0.2456
     80  OD2      245.4540  -57.9420   29.7930 O.co2 271  ASP271     -0.2456
     81  N        238.7830  -49.7810   33.0900 N.3   275  PHE275     -0.1241
     82  CA       239.0330  -48.5120   33.7620 C.3   275  PHE275      0.1605
     83  C        238.3710  -47.3390   33.0610 C.2   275  PHE275      0.2264
     84  O        238.3080  -46.2500   33.6390 O.2   275  PHE275     -0.2867
     85  CB       240.5410  -48.2620   33.8850 C.3   275  PHE275      0.0534
     86  CG       241.2520  -49.2920   34.7150 C.ar  275  PHE275     -0.0203
     87  CD1      241.3050  -49.1710   36.0920 C.ar  275  PHE275     -0.0042
     88  CD2      241.8630  -50.3810   34.1220 C.ar  275  PHE275     -0.0042
     89  CE1      241.9510  -50.1170   36.8610 C.ar  275  PHE275     -0.0003
     90  CE2      242.5110  -51.3280   34.8890 C.ar  275  PHE275     -0.0003
     91  CZ       242.5540  -51.1930   36.2590 C.ar  275  PHE275     -0.0000
@<TRIPOS>BOND
     1    73    74    1
     2    79    78   ar
     3    74    77    1
     4    74    75    1
     5    78    80   ar
     6    78    77    1
     7    75    76    2
     8    72    71    1
     9    71    70   ar
    10    71    69   ar
    11    83    84    2
    12    83    82    1
    13    81    82    1
    14    70    68   ar
    15    82    85    1
    16    85    86    1
    17    69    67   ar
    18    88    86   ar
    19    88    90   ar
    20    54    52    1
    21    68    66   ar
    22    15    14    1
    23    86    87   ar
    24    90    91   ar
    25    53    52    1
    26    67    66   ar
    27    52    51    2
    28     6     5    1
    29     6     7    1
    30    66    65    1
    31     5     2    1
    32    87    89   ar
    33     7     8    1
    34     8     9    1
    35    91    89   ar
    36    43    42    1
    37    14    11    1
    38    64    63    2
    39    51    50    1
    40    10    11    1
    41    10     3   am
    42    65    62    1
    43     2     1    1
    44     2     3    1
    45    63    62    1
    46    50    49    1
    47    11    12    1
    48     3     4    2
    49    42    41   ar
    50    42    40   ar
    51    62    61    1
    52    41    39   ar
    53    58    57    2
    54    40    38   ar
    55    49    48    1
    56    12    13    2
    57    39    37   ar
    58    48    45    1
    59    57    56    1
    60    38    37   ar
    61    37    36    1
    62    31    29   am
    63    22    23    1
    64    22    21    1
    65    55    56    1
    66    55    46   am
    67    45    46    1
    68    45    44    1
    69    56    59    1
    70    32    33    1
    71    59    60    1
    72    21    20    1
    73    33    36    1
    74    33    34    1
    75    46    47    2
    76    16    17    1
    77    29    30    2
    78    29    28    1
    79    20    17    1
    80    28    25    1
    81    17    18    1
    82    34    35    2
    83    19    18    2
    84    25    24    1
    85    25    26    1
    86    27    26    2
