@<TRIPOS>MOLECULE
tmp/5xbtB00.pdb
 79 74 0 0 0
SMALL
GASTEIGER

@<TRIPOS>ATOM
      1  N        -22.9680  -29.2030    5.1370 N.3     1  SER1       -0.1202
      2  CA       -22.6280  -30.3690    5.9410 C.3     1  SER1        0.2020
      3  C        -22.2800  -31.5820    5.0690 C.2     1  SER1        0.2618
      4  O        -21.8410  -32.6170    5.5810 O.2     1  SER1       -0.2717
      5  CB       -23.7750  -30.7270    6.8810 C.3     1  SER1        0.2103
      6  OG       -24.6950  -31.5610    6.2080 O.3     1  SER1       -0.2182
      7  N        -22.4880  -31.4620    3.7610 N.am    2  MET2       -0.1979
      8  CA       -21.9840  -32.4690    2.8450 C.3     2  MET2        0.1605
      9  C        -20.4800  -32.3440    2.8110 C.2     2  MET2        0.2287
     10  O        -19.9390  -31.2570    2.9910 O.2     2  MET2       -0.2864
     11  CB       -22.5450  -32.2800    1.4420 C.3     2  MET2        0.0413
     12  CG       -24.0160  -32.6250    1.3130 C.3     2  MET2        0.0598
     13  SD       -24.4100  -33.1190   -0.3720 S.3     2  MET2       -0.1393
     14  CE       -23.3350  -34.5530   -0.5640 C.3     2  MET2        0.0692
     15  N        -16.5860  -33.1800    0.9590 N.3     4  THR4       -0.1218
     16  CA       -15.9520  -33.2890   -0.3380 C.3     4  THR4        0.1862
     17  C        -15.1120  -34.5400   -0.3280 C.2     4  THR4        0.2287
     18  O        -14.7960  -35.0700    0.7330 O.2     4  THR4       -0.2866
     19  CB       -15.0060  -32.1080   -0.6000 C.3     4  THR4        0.1770
     20  OG1      -13.9000  -32.1770    0.3140 O.3     4  THR4       -0.2211
     21  CG2      -15.7420  -30.7900   -0.4260 C.3     4  THR4        0.0375
     22  N        -12.2160  -33.9210    2.1350 N.3     7  GLN7       -0.1245
     23  CA       -12.4800  -33.9440    3.5710 C.3     7  GLN7        0.1566
     24  C        -12.6530  -35.3870    4.0150 C.2     7  GLN7        0.2260
     25  O        -12.1440  -35.8070    5.0590 O.2     7  GLN7       -0.2867
     26  CB       -13.7660  -33.1840    3.8960 C.3     7  GLN7        0.0367
     27  CG       -13.9330  -31.8460    3.2020 C.3     7  GLN7        0.0905
     28  CD       -15.3200  -31.2500    3.4320 C.2     7  GLN7        0.2608
     29  OE1      -16.0970  -31.0770    2.4950 O.2     7  GLN7       -0.2717
     30  NE2      -15.6300  -30.9310    4.6850 N.am    7  GLN7       -0.0878
     31  N        -23.9600  -37.3940   -4.6330 N.3    32  ARG32      -0.1245
     32  CA       -24.2050  -36.5630   -5.8090 C.3    32  ARG32       0.1563
     33  C        -22.9060  -36.0420   -6.4170 C.2    32  ARG32       0.2260
     34  O        -21.8120  -36.2800   -5.8880 O.2    32  ARG32      -0.2867
     35  CB       -25.1250  -35.4000   -5.4550 C.3    32  ARG32       0.0307
     36  CG       -24.7540  -34.7330   -4.1570 C.3    32  ARG32       0.0489
     37  CD       -25.5170  -33.4330   -3.9750 C.3    32  ARG32       0.2205
     38  NE       -25.1750  -32.4350   -4.9890 N.pl3  32  ARG32      -0.0865
     39  CZ       -24.2270  -31.5150   -4.8430 C.cat  32  ARG32       0.5346
     40  NH1      -23.5150  -31.4620   -3.7220 N.pl3  32  ARG32       0.1354
     41  NH2      -23.9880  -30.6460   -5.8200 N.pl3  32  ARG32       0.1354
     42  N        -20.9600  -32.5400   -8.0910 N.3    34  GLY34      -0.1210
     43  CA       -20.9650  -31.0930   -8.2280 C.3    34  GLY34       0.1956
     44  C        -21.4400  -30.6570   -9.6000 C.2    34  GLY34       0.2613
     45  O        -20.8260  -30.9940  -10.6130 O.2    34  GLY34      -0.2717
     46  N        -22.5330  -29.9020   -9.6330 N.am   35  SER35      -0.1938
     47  CA       -23.1830  -29.5520  -10.8920 C.3    35  SER35       0.2055
     48  C        -22.5290  -28.3730  -11.6170 C.2    35  SER35       0.2643
     49  O        -22.9220  -28.0280  -12.7290 O.2    35  SER35      -0.2714
     50  CB       -24.6730  -29.2810  -10.6680 C.3    35  SER35       0.2130
     51  OG       -25.3790  -29.2860  -11.8990 O.3    35  SER35      -0.2179
     52  N        -21.5340  -27.7580  -10.9950 N.am   36  ASP36      -0.1957
     53  CA       -20.8220  -26.6740  -11.6500 C.3    36  ASP36       0.1840
     54  C        -19.3190  -26.9380  -11.6820 C.2    36  ASP36       0.2622
     55  O        -18.5440  -26.1280  -12.2180 O.2    36  ASP36      -0.2715
     56  CB       -21.1030  -25.3490  -10.9500 C.3    36  ASP36       0.1450
     57  CG       -20.5440  -25.3100   -9.5480 C.2    36  ASP36       0.3671
     58  OD1      -19.9940  -24.2540   -9.1560 O.co2  36  ASP36      -0.2456
     59  OD2      -20.6530  -26.3410   -8.8480 O.co2  36  ASP36      -0.2456
     60  N        -18.9140  -28.0720  -11.1090 N.am   37  ASN37      -0.1972
     61  CA       -17.4980  -28.4330  -11.0400 C.3    37  ASN37       0.1688
     62  C        -17.2360  -29.9300  -11.2240 C.2    37  ASN37       0.2292
     63  O        -16.0830  -30.3650  -11.2910 O.2    37  ASN37      -0.2864
     64  CB       -16.8500  -27.9110   -9.7450 C.3    37  ASN37       0.1181
     65  CG       -17.5590  -28.3980   -8.4800 C.2    37  ASN37       0.2629
     66  OD1      -18.3280  -29.3720   -8.5000 O.2    37  ASN37      -0.2716
     67  ND2      -17.2840  -27.7230   -7.3650 N.am   37  ASN37      -0.0877
     68  N        -19.6580  -35.3660   -4.0360 N.3    41  TYR41      -0.1241
     69  CA       -20.0360  -34.9410   -2.6950 C.3    41  TYR41       0.1605
     70  C        -20.7000  -36.0640   -1.8920 C.2    41  TYR41       0.2264
     71  O        -21.4940  -36.8480   -2.4220 O.2    41  TYR41      -0.2867
     72  CB       -20.9000  -33.6800   -2.7730 C.3    41  TYR41       0.0534
     73  CG       -20.1350  -32.5160   -3.3770 C.ar   41  TYR41      -0.0201
     74  CD1      -19.1890  -31.8190   -2.6250 C.ar   41  TYR41      -0.0009
     75  CD2      -20.3220  -32.1370   -4.7070 C.ar   41  TYR41      -0.0009
     76  CE1      -18.4660  -30.7650   -3.1670 C.ar   41  TYR41       0.0417
     77  CE2      -19.5990  -31.0770   -5.2600 C.ar   41  TYR41       0.0417
     78  CZ       -18.6740  -30.3960   -4.4810 C.ar   41  TYR41       0.1957
     79  OH       -17.9490  -29.3460   -5.0050 O.3    41  TYR41      -0.2866
@<TRIPOS>BOND
     1    49    48    2
     2    55    54    2
     3    51    50    1
     4    54    53    1
     5    54    60   am
     6    53    52    1
     7    53    56    1
     8    48    52   am
     9    48    47    1
    10    63    62    2
    11    62    61    1
    12    60    61    1
    13    61    64    1
    14    56    57    1
    15    47    50    1
    16    47    46    1
    17    45    44    2
    18    64    65    1
    19    46    44   am
    20    44    43    1
    21    57    58   ar
    22    57    59   ar
    23    66    65    2
    24    65    67   am
    25    43    42    1
    26    33    34    2
    27    33    32    1
    28    41    39    1
    29    32    35    1
    30    32    31    1
    31    35    36    1
    32    77    75   ar
    33    77    78   ar
    34    79    78    1
    35    38    39    2
    36    38    37    1
    37    39    40    1
    38    75    73   ar
    39    78    76   ar
    40    36    37    1
    41    68    69    1
    42    73    72    1
    43    73    74   ar
    44    76    74   ar
    45    72    69    1
    46    69    70    1
    47    71    70    2
    48    19    21    1
    49    19    16    1
    50    19    20    1
    51    14    13    1
    52    13    12    1
    53    16    17    1
    54    16    15    1
    55    17    18    2
    56    12    11    1
    57    11     8    1
    58    22    23    1
    59    29    28    2
    60     9     8    1
    61     9    10    2
    62     8     7    1
    63    27    28    1
    64    27    26    1
    65    28    30   am
    66    23    26    1
    67    23    24    1
    68     7     3   am
    69    24    25    2
    70     3     4    2
    71     3     2    1
    72     1     2    1
    73     2     5    1
    74     6     5    1
