@<TRIPOS>MOLECULE
tmp/5xc2B05.pdb
 84 79 0 0 0
SMALL
GASTEIGER

@<TRIPOS>ATOM
      1  N         86.9320   42.1870  130.1650 N.3   464  PHE464     -0.1241
      2  CA        85.6570   41.6400  130.5940 C.3   464  PHE464      0.1605
      3  C         85.8170   40.4070  131.4870 C.2   464  PHE464      0.2264
      4  O         84.9370   39.5380  131.5460 O.2   464  PHE464     -0.2867
      5  CB        84.7860   41.3490  129.3810 C.3   464  PHE464      0.0534
      6  CG        84.4880   42.5620  128.5640 C.ar  464  PHE464     -0.0203
      7  CD1       83.4710   43.4240  128.9260 C.ar  464  PHE464     -0.0042
      8  CD2       85.2350   42.8510  127.4350 C.ar  464  PHE464     -0.0042
      9  CE1       83.2020   44.5420  128.1730 C.ar  464  PHE464     -0.0003
     10  CE2       84.9630   43.9660  126.6720 C.ar  464  PHE464     -0.0003
     11  CZ        83.9460   44.8140  127.0450 C.ar  464  PHE464     -0.0000
     12  N         85.9720   34.6100  132.4720 N.3   470  SER470     -0.1202
     13  CA        84.6860   35.1810  132.0570 C.3   470  SER470      0.2020
     14  C         84.5930   35.3740  130.5420 C.2   470  SER470      0.2618
     15  O         85.5590   35.7260  129.8900 O.2   470  SER470     -0.2717
     16  CB        84.4270   36.5210  132.7630 C.3   470  SER470      0.2103
     17  OG        84.2250   36.3610  134.1600 O.3   470  SER470     -0.2182
     18  N         83.4260   35.1070  129.9800 N.am  471  ASP471     -0.1973
     19  CA        83.1720   35.4220  128.5820 C.3   471  ASP471      0.1709
     20  C         84.0990   34.7470  127.5500 C.2   471  ASP471      0.2293
     21  O         84.3920   35.3330  126.5000 O.2   471  ASP471     -0.2864
     22  CB        83.2100   36.9260  128.4060 C.3   471  ASP471      0.1436
     23  CG        82.1250   37.6410  129.2250 C.2   471  ASP471      0.3671
     24  OD1       81.2430   37.0140  129.7590 O.co2 471  ASP471     -0.2456
     25  OD2       82.2450   38.9300  129.2670 O.co2 471  ASP471     -0.2456
     26  N         82.1800   34.2330  124.4920 N.3   474  TYR474     -0.1241
     27  CA        81.8560   35.4920  123.8720 C.3   474  TYR474      0.1605
     28  C         83.0190   35.9230  122.9880 C.2   474  TYR474      0.2264
     29  O         82.8510   36.2040  121.8030 O.2   474  TYR474     -0.2867
     30  CB        81.5600   36.5470  124.9340 C.3   474  TYR474      0.0534
     31  CG        80.2640   36.3180  125.7060 C.ar  474  TYR474     -0.0201
     32  CD1       79.2820   35.4540  125.2250 C.ar  474  TYR474     -0.0009
     33  CD2       80.0160   36.9800  126.9170 C.ar  474  TYR474     -0.0009
     34  CE1       78.1050   35.2570  125.9150 C.ar  474  TYR474      0.0417
     35  CE2       78.8360   36.7770  127.6160 C.ar  474  TYR474      0.0417
     36  CZ        77.8940   35.9200  127.1090 C.ar  474  TYR474      0.1957
     37  OH        76.7230   35.7230  127.7900 O.3   474  TYR474     -0.2866
     38  N         78.6870   32.3280  131.2580 N.3   534  ALA534     -0.1231
     39  CA        79.7510   33.2660  130.9430 C.3   534  ALA534      0.1694
     40  C         80.6310   33.5660  132.1700 C.2   534  ALA534      0.2592
     41  O         81.8540   33.5880  132.1030 O.2   534  ALA534     -0.2718
     42  CB        79.1670   34.5390  130.3410 C.3   534  ALA534      0.0304
     43  N         80.0070   33.7850  133.3060 N.am  535  GLY535     -0.1957
     44  CA        80.7660   34.1000  134.4950 C.3   535  GLY535      0.1869
     45  C         81.7830   33.0750  134.9610 C.2   535  GLY535      0.2309
     46  O         81.4550   31.9130  135.2020 O.2   535  GLY535     -0.2863
     47  N         85.0830   34.2140  140.5630 N.3   538  LYS538     -0.1245
     48  CA        84.6500   35.3780  141.3380 C.3   538  LYS538      0.1561
     49  C         85.2110   35.3880  142.7360 C.2   538  LYS538      0.2260
     50  O         84.5860   34.8610  143.6580 O.2   538  LYS538     -0.2867
     51  CB        83.1140   35.4300  141.4510 C.3   538  LYS538      0.0271
     52  CG        82.3570   36.2280  140.3730 C.3   538  LYS538      0.0035
     53  CD        82.9050   36.1210  138.9690 C.3   538  LYS538      0.0206
     54  CE        82.1540   37.0770  138.0620 C.3   538  LYS538      0.1093
     55  NZ        82.7040   37.0930  136.6770 N.3   538  LYS538     -0.1314
     56  N         76.5650   33.4300  135.7590 N.3   547  ASP547     -0.1239
     57  CA        75.6920   34.3510  135.0570 C.3   547  ASP547      0.1674
     58  C         75.8620   34.2430  133.5420 C.2   547  ASP547      0.2266
     59  O         76.9250   33.8570  133.0540 O.2   547  ASP547     -0.2867
     60  CB        75.9520   35.8050  135.4730 C.3   547  ASP547      0.1410
     61  CG        77.1750   36.3980  134.7970 C.2   547  ASP547      0.3668
     62  OD1       78.3060   36.0610  135.1900 O.co2 547  ASP547     -0.2456
     63  OD2       77.0010   37.1770  133.8370 O.co2 547  ASP547     -0.2456
     64  N         74.7040   36.6430  129.9900 N.3   549  GLU549     -0.1245
     65  CA        74.0200   37.7890  129.4260 C.3   549  GLU549      0.1567
     66  C         73.6610   37.5490  127.9610 C.2   549  GLU549      0.2260
     67  O         72.5080   37.2700  127.6580 O.2   549  GLU549     -0.2867
     68  CB        74.8250   39.0840  129.5980 C.3   549  GLU549      0.0388
     69  CG        74.0750   40.2780  129.0740 C.3   549  GLU549      0.1160
     70  CD        74.8220   41.6250  129.1970 C.2   549  GLU549      0.3649
     71  OE1       76.0270   41.7330  128.8790 O.co2 549  GLU549     -0.2457
     72  OE2       74.1740   42.5990  129.6370 O.co2 549  GLU549     -0.2457
     73  N         75.1310   45.1840  131.8180 N.3   624  TYR624     -0.1241
     74  CA        76.3730   45.5470  132.5060 C.3   624  TYR624      0.1605
     75  C         76.9410   46.8760  131.9840 C.2   624  TYR624      0.2264
     76  O         78.0170   47.2930  132.3950 O.2   624  TYR624     -0.2867
     77  CB        77.4350   44.4690  132.2730 C.3   624  TYR624      0.0534
     78  CG        77.1810   43.1820  132.9900 C.ar  624  TYR624     -0.0201
     79  CD1       77.2450   43.1170  134.3720 C.ar  624  TYR624     -0.0009
     80  CD2       76.8790   42.0310  132.2860 C.ar  624  TYR624     -0.0009
     81  CE1       76.9980   41.9540  135.0410 C.ar  624  TYR624      0.0417
     82  CE2       76.6320   40.8430  132.9370 C.ar  624  TYR624      0.0417
     83  CZ        76.6890   40.8150  134.3230 C.ar  624  TYR624      0.1957
     84  OH        76.4590   39.6570  135.0160 O.3   624  TYR624     -0.2866
@<TRIPOS>BOND
     1    29    28    2
     2    28    27    1
     3    27    26    1
     4    27    30    1
     5    30    31    1
     6    32    31   ar
     7    32    34   ar
     8    31    33   ar
     9    34    36   ar
    10    21    20    2
    11    10    11   ar
    12    10     8   ar
    13    33    35   ar
    14    11     9   ar
    15    36    35   ar
    16    36    37    1
    17     8     6   ar
    18    20    19    1
    19    67    66    2
    20    66    65    1
    21     9     7   ar
    22    22    19    1
    23    22    23    1
    24     6     7   ar
    25     6     5    1
    26    19    18    1
    27    71    70   ar
    28    69    70    1
    29    69    68    1
    30    70    72   ar
    31    23    25   ar
    32    23    24   ar
    33     5     2    1
    34    65    68    1
    35    65    64    1
    36    15    14    2
    37    18    14   am
    38     1     2    1
    39    42    39    1
    40    14    13    1
    41     2     3    1
    42    39    38    1
    43    39    40    1
    44     3     4    2
    45    73    74    1
    46    75    76    2
    47    75    74    1
    48    13    12    1
    49    13    16    1
    50    41    40    2
    51    40    43   am
    52    77    74    1
    53    77    78    1
    54    80    82   ar
    55    80    78   ar
    56    16    17    1
    57    82    83   ar
    58    78    79   ar
    59    59    58    2
    60    43    44    1
    61    58    57    1
    62    63    61   ar
    63    83    84    1
    64    83    81   ar
    65    79    81   ar
    66    44    45    1
    67    61    62   ar
    68    61    60    1
    69    45    46    2
    70    57    60    1
    71    57    56    1
    72    55    54    1
    73    54    53    1
    74    53    52    1
    75    52    51    1
    76    47    48    1
    77    48    51    1
    78    48    49    1
    79    49    50    2
