@<TRIPOS>MOLECULE
tmp/5xc2B03.pdb
 118 114 0 0 0
SMALL
GASTEIGER

@<TRIPOS>ATOM
      1  N         87.8400   41.5870  122.4290 N.3   382  TYR382     -0.1227
      2  CA        86.4080   41.5290  122.1980 C.3   382  TYR382      0.1736
      3  C         85.9640   42.3780  121.0020 C.2   382  TYR382      0.2595
      4  O         85.3520   41.8660  120.0580 O.2   382  TYR382     -0.2718
      5  CB        85.6450   41.8940  123.4600 C.3   382  TYR382      0.0548
      6  CG        84.1610   41.9800  123.2370 C.ar  382  TYR382     -0.0200
      7  CD1       83.4090   40.8400  122.9890 C.ar  382  TYR382     -0.0009
      8  CD2       83.5110   43.2020  123.2700 C.ar  382  TYR382     -0.0009
      9  CE1       82.0560   40.9160  122.7780 C.ar  382  TYR382      0.0417
     10  CE2       82.1620   43.2850  123.0630 C.ar  382  TYR382      0.0417
     11  CZ        81.4410   42.1470  122.8200 C.ar  382  TYR382      0.1957
     12  OH        80.0990   42.2570  122.6110 O.3   382  TYR382     -0.2866
     13  N         86.2880   43.6680  121.0340 N.am  383  PHE383     -0.1976
     14  CA        85.8780   44.5920  119.9770 C.3   383  PHE383      0.1639
     15  C         86.6340   44.3510  118.6740 C.2   383  PHE383      0.2290
     16  O         86.1000   44.5230  117.5710 O.2   383  PHE383     -0.2864
     17  CB        86.1310   46.0210  120.4340 C.3   383  PHE383      0.0560
     18  CG        85.1640   46.5070  121.4520 C.ar  383  PHE383     -0.0200
     19  CD1       83.8520   46.7770  121.1000 C.ar  383  PHE383     -0.0042
     20  CD2       85.5590   46.6930  122.7700 C.ar  383  PHE383     -0.0042
     21  CE1       82.9560   47.2200  122.0400 C.ar  383  PHE383     -0.0003
     22  CE2       84.6620   47.1470  123.7060 C.ar  383  PHE383     -0.0003
     23  CZ        83.3650   47.4100  123.3410 C.ar  383  PHE383     -0.0000
     24  N         84.7230   41.5390  117.0120 N.3   386  LYS386     -0.1245
     25  CA        83.4780   41.9730  116.3720 C.3   386  LYS386      0.1561
     26  C         83.7860   42.5390  114.9750 C.2   386  LYS386      0.2260
     27  O         83.0870   42.2390  113.9870 O.2   386  LYS386     -0.2867
     28  CB        82.7740   43.0600  117.1860 C.3   386  LYS386      0.0271
     29  CG        82.3690   42.6860  118.6040 C.3   386  LYS386      0.0035
     30  CD        81.7450   43.8920  119.2980 C.3   386  LYS386      0.0206
     31  CE        80.2510   43.9460  118.9050 C.3   386  LYS386      0.1093
     32  NZ        79.6170   45.2870  119.0160 N.3   386  LYS386     -0.1314
     33  N         86.9320   42.1870  130.1650 N.3   464  PHE464     -0.1241
     34  CA        85.6570   41.6400  130.5940 C.3   464  PHE464      0.1605
     35  C         85.8170   40.4070  131.4870 C.2   464  PHE464      0.2264
     36  O         84.9370   39.5380  131.5460 O.2   464  PHE464     -0.2867
     37  CB        84.7860   41.3490  129.3810 C.3   464  PHE464      0.0534
     38  CG        84.4880   42.5620  128.5640 C.ar  464  PHE464     -0.0203
     39  CD1       83.4710   43.4240  128.9260 C.ar  464  PHE464     -0.0042
     40  CD2       85.2350   42.8510  127.4350 C.ar  464  PHE464     -0.0042
     41  CE1       83.2020   44.5420  128.1730 C.ar  464  PHE464     -0.0003
     42  CE2       84.9630   43.9660  126.6720 C.ar  464  PHE464     -0.0003
     43  CZ        83.9460   44.8140  127.0450 C.ar  464  PHE464     -0.0000
     44  N         74.7040   36.6430  129.9900 N.3   549  GLU549     -0.1245
     45  CA        74.0200   37.7890  129.4260 C.3   549  GLU549      0.1567
     46  C         73.6610   37.5490  127.9610 C.2   549  GLU549      0.2260
     47  O         72.5080   37.2700  127.6580 O.2   549  GLU549     -0.2867
     48  CB        74.8250   39.0840  129.5980 C.3   549  GLU549      0.0388
     49  CG        74.0750   40.2780  129.0740 C.3   549  GLU549      0.1160
     50  CD        74.8220   41.6250  129.1970 C.2   549  GLU549      0.3649
     51  OE1       76.0270   41.7330  128.8790 O.co2 549  GLU549     -0.2457
     52  OE2       74.1740   42.5990  129.6370 O.co2 549  GLU549     -0.2457
     53  N         75.8140   35.7030  121.4510 N.3   553  GLU553     -0.1245
     54  CA        77.2590   35.6350  121.3900 C.3   553  GLU553      0.1567
     55  C         77.7110   34.2600  121.7700 C.2   553  GLU553      0.2260
     56  O         78.7840   33.8420  121.3500 O.2   553  GLU553     -0.2867
     57  CB        77.9090   36.7430  122.2230 C.3   553  GLU553      0.0388
     58  CG        78.2770   37.9700  121.3910 C.3   553  GLU553      0.1160
     59  CD        78.7120   39.1680  122.2240 C.2   553  GLU553      0.3649
     60  OE1       78.7610   39.0590  123.4630 O.co2 553  GLU553     -0.2457
     61  OE2       79.0720   40.2050  121.6280 O.co2 553  GLU553     -0.2457
     62  N         76.2130   47.5520  131.0980 N.3   625  PHE625     -0.1241
     63  CA        76.7480   48.7410  130.4570 C.3   625  PHE625      0.1605
     64  C         75.6950   49.8410  130.1640 C.2   625  PHE625      0.2264
     65  O         75.8920   50.6770  129.2550 O.2   625  PHE625     -0.2867
     66  CB        77.4470   48.3140  129.1660 C.3   625  PHE625      0.0534
     67  CG        76.5520   47.5770  128.2010 C.ar  625  PHE625     -0.0203
     68  CD1       76.3590   46.2070  128.3130 C.ar  625  PHE625     -0.0042
     69  CD2       75.9230   48.2520  127.1620 C.ar  625  PHE625     -0.0042
     70  CE1       75.5530   45.5260  127.4050 C.ar  625  PHE625     -0.0003
     71  CE2       75.1090   47.5850  126.2530 C.ar  625  PHE625     -0.0003
     72  CZ        74.9140   46.2120  126.3790 C.ar  625  PHE625     -0.0000
     73  N         71.4120   43.5500  122.8780 N.3   635  ILE635     -0.1245
     74  CA        72.4720   42.5400  123.0300 C.3   635  ILE635      0.1561
     75  C         71.9280   41.1680  122.7230 C.2   635  ILE635      0.2260
     76  O         72.6820   40.2340  122.4640 O.2   635  ILE635     -0.2867
     77  CB        73.1370   42.4230  124.4150 C.3   635  ILE635      0.0252
     78  CG1       72.1690   42.8140  125.5080 C.3   635  ILE635      0.0019
     79  CG2       74.5050   43.1330  124.4550 C.3   635  ILE635      0.0019
     80  CD1       72.7240   42.5360  126.8430 C.3   635  ILE635      0.0001
     81  N         72.6470   40.7470  118.4760 N.3   638  LEU638     -0.1245
     82  CA        73.8890   40.7900  117.7220 C.3   638  LEU638      0.1561
     83  C         74.8560   39.7420  118.3030 C.2   638  LEU638      0.2260
     84  O         74.8430   39.4610  119.5120 O.2   638  LEU638     -0.2867
     85  CB        74.5190   42.1920  117.7800 C.3   638  LEU638      0.0270
     86  CG        75.0430   42.7100  119.1360 C.3   638  LEU638      0.0019
     87  CD1       76.5090   42.3130  119.3910 C.3   638  LEU638      0.0001
     88  CD2       74.8750   44.2130  119.2830 C.3   638  LEU638      0.0001
     89  N         72.5540   51.4900  118.0340 N.3   673  TRP673     -0.1241
     90  CA        71.5980   50.4700  118.4600 C.3   673  TRP673      0.1605
     91  C         70.4280   50.4170  117.4990 C.2   673  TRP673      0.2264
     92  O         69.6550   49.4510  117.4640 O.2   673  TRP673     -0.2867
     93  CB        71.1820   50.6660  119.9370 C.3   673  TRP673      0.0550
     94  CG        72.3670   50.4480  120.8380 C.ar  673  TRP673      0.0003
     95  CD1       73.1800   51.4040  121.3690 C.ar  673  TRP673      0.0946
     96  CD2       72.9260   49.1830  121.2300 C.ar  673  TRP673      0.0152
     97  NE1       74.1930   50.8140  122.0910 N.ar  673  TRP673     -0.2442
     98  CE2       74.0640   49.4530  122.0110 C.ar  673  TRP673      0.0810
     99  CE3       72.5610   47.8460  121.0060 C.ar  673  TRP673      0.0012
    100  CZ2       74.8320   48.4470  122.5840 C.ar  673  TRP673      0.0191
    101  CZ3       73.3340   46.8380  121.5730 C.ar  673  TRP673      0.0001
    102  CH2       74.4560   47.1490  122.3500 C.ar  673  TRP673      0.0015
    103  N         76.1000   49.1190  114.0220 N.3   699  ASP699     -0.1225
    104  CA        76.8880   48.6620  115.1580 C.3   699  ASP699      0.1805
    105  C         78.3570   48.4340  114.7530 C.2   699  ASP699      0.2597
    106  O         78.6570   48.2290  113.5820 O.2   699  ASP699     -0.2718
    107  CB        76.2100   47.4260  115.7880 C.3   699  ASP699      0.1424
    108  CG        76.9820   46.8560  116.9790 C.2   699  ASP699      0.3668
    109  OD1       77.0000   47.4850  118.0710 O.co2 699  ASP699     -0.2456
    110  OD2       77.5260   45.7400  116.8280 O.co2 699  ASP699     -0.2456
    111  N         79.2770   48.4800  115.7100 N.am  700  ASP700     -0.1974
    112  CA        80.6960   48.2850  115.3950 C.3   700  ASP700      0.1709
    113  C         81.0310   46.8490  114.9530 C.2   700  ASP700      0.2293
    114  O         82.1380   46.5830  114.4590 O.2   700  ASP700     -0.2864
    115  CB        81.5690   48.6890  116.5900 C.3   700  ASP700      0.1436
    116  CG        81.1420   48.0020  117.8860 C.2   700  ASP700      0.3671
    117  OD1       81.7010   46.9200  118.2040 O.co2 700  ASP700     -0.2456
    118  OD2       80.2320   48.5360  118.5730 O.co2 700  ASP700     -0.2456
@<TRIPOS>BOND
     1   106   105    2
     2    27    26    2
     3   103   104    1
     4   114   113    2
     5   105   104    1
     6   105   111   am
     7   113   112    1
     8    26    25    1
     9   104   107    1
    10   112   111    1
    11   112   115    1
    12   107   108    1
    13    25    24    1
    14    25    28    1
    15   115   116    1
    16   110   108   ar
    17   108   109   ar
    18    28    29    1
    19    92    91    2
    20    91    90    1
    21    16    15    2
    22    82    85    1
    23    82    83    1
    24    82    81    1
    25    85    86    1
    26   116   117   ar
    27   116   118   ar
    28    89    90    1
    29    83    84    2
    30    90    93    1
    31    29    30    1
    32    15    14    1
    33    31    32    1
    34    31    30    1
    35    86    88    1
    36    86    87    1
    37    93    94    1
    38    14    17    1
    39    14    13    1
    40     4     3    2
    41    17    18    1
    42    94    96   ar
    43    94    95   ar
    44     3    13   am
    45     3     2    1
    46    99    96   ar
    47    99   101   ar
    48    19    18   ar
    49    19    21   ar
    50    96    98   ar
    51    56    55    2
    52    95    97   ar
    53    54    53    1
    54    54    55    1
    55    54    57    1
    56    58    57    1
    57    58    59    1
    58    18    20   ar
    59   101   102   ar
    60    61    59   ar
    61    98    97   ar
    62    98   100   ar
    63    21    23   ar
    64     2     1    1
    65     2     5    1
    66    59    60   ar
    67   102   100   ar
    68    76    75    2
    69    12    11    1
    70    75    74    1
    71    20    22   ar
    72     9    11   ar
    73     9     7   ar
    74    11    10   ar
    75    73    74    1
    76     7     6   ar
    77    74    77    1
    78    10     8   ar
    79     6     8   ar
    80     6     5    1
    81    23    22   ar
    82    77    79    1
    83    77    78    1
    84    78    80    1
    85    71    72   ar
    86    71    69   ar
    87    72    70   ar
    88    42    43   ar
    89    42    40   ar
    90    43    41   ar
    91    69    67   ar
    92    70    68   ar
    93    40    38   ar
    94    47    46    2
    95    46    45    1
    96    41    39   ar
    97    67    68   ar
    98    67    66    1
    99    38    39   ar
   100    38    37    1
   101    51    50   ar
   102    49    50    1
   103    49    48    1
   104    66    63    1
   105    50    52   ar
   106    65    64    2
   107    37    34    1
   108    45    48    1
   109    45    44    1
   110    64    63    1
   111    33    34    1
   112    63    62    1
   113    34    35    1
   114    35    36    2
