@<TRIPOS>MOLECULE
tmp/5xc2B04.pdb
 119 118 0 0 0
SMALL
GASTEIGER

@<TRIPOS>ATOM
      1  N         87.8400   41.5870  122.4290 N.3   382  TYR382     -0.1227
      2  CA        86.4080   41.5290  122.1980 C.3   382  TYR382      0.1736
      3  C         85.9640   42.3780  121.0020 C.2   382  TYR382      0.2595
      4  O         85.3520   41.8660  120.0580 O.2   382  TYR382     -0.2718
      5  CB        85.6450   41.8940  123.4600 C.3   382  TYR382      0.0548
      6  CG        84.1610   41.9800  123.2370 C.ar  382  TYR382     -0.0200
      7  CD1       83.4090   40.8400  122.9890 C.ar  382  TYR382     -0.0009
      8  CD2       83.5110   43.2020  123.2700 C.ar  382  TYR382     -0.0009
      9  CE1       82.0560   40.9160  122.7780 C.ar  382  TYR382      0.0417
     10  CE2       82.1620   43.2850  123.0630 C.ar  382  TYR382      0.0417
     11  CZ        81.4410   42.1470  122.8200 C.ar  382  TYR382      0.1957
     12  OH        80.0990   42.2570  122.6110 O.3   382  TYR382     -0.2866
     13  N         86.2880   43.6680  121.0340 N.am  383  PHE383     -0.1976
     14  CA        85.8780   44.5920  119.9770 C.3   383  PHE383      0.1639
     15  C         86.6340   44.3510  118.6740 C.2   383  PHE383      0.2290
     16  O         86.1000   44.5230  117.5710 O.2   383  PHE383     -0.2864
     17  CB        86.1310   46.0210  120.4340 C.3   383  PHE383      0.0560
     18  CG        85.1640   46.5070  121.4520 C.ar  383  PHE383     -0.0200
     19  CD1       83.8520   46.7770  121.1000 C.ar  383  PHE383     -0.0042
     20  CD2       85.5590   46.6930  122.7700 C.ar  383  PHE383     -0.0042
     21  CE1       82.9560   47.2200  122.0400 C.ar  383  PHE383     -0.0003
     22  CE2       84.6620   47.1470  123.7060 C.ar  383  PHE383     -0.0003
     23  CZ        83.3650   47.4100  123.3410 C.ar  383  PHE383     -0.0000
     24  N         86.9320   42.1870  130.1650 N.3   464  PHE464     -0.1241
     25  CA        85.6570   41.6400  130.5940 C.3   464  PHE464      0.1605
     26  C         85.8170   40.4070  131.4870 C.2   464  PHE464      0.2264
     27  O         84.9370   39.5380  131.5460 O.2   464  PHE464     -0.2867
     28  CB        84.7860   41.3490  129.3810 C.3   464  PHE464      0.0534
     29  CG        84.4880   42.5620  128.5640 C.ar  464  PHE464     -0.0203
     30  CD1       83.4710   43.4240  128.9260 C.ar  464  PHE464     -0.0042
     31  CD2       85.2350   42.8510  127.4350 C.ar  464  PHE464     -0.0042
     32  CE1       83.2020   44.5420  128.1730 C.ar  464  PHE464     -0.0003
     33  CE2       84.9630   43.9660  126.6720 C.ar  464  PHE464     -0.0003
     34  CZ        83.9460   44.8140  127.0450 C.ar  464  PHE464     -0.0000
     35  N         83.4260   35.1070  129.9800 N.3   471  ASP471     -0.1239
     36  CA        83.1720   35.4220  128.5820 C.3   471  ASP471      0.1674
     37  C         84.0990   34.7470  127.5500 C.2   471  ASP471      0.2266
     38  O         84.3920   35.3330  126.5000 O.2   471  ASP471     -0.2867
     39  CB        83.2100   36.9260  128.4060 C.3   471  ASP471      0.1410
     40  CG        82.1250   37.6410  129.2250 C.2   471  ASP471      0.3668
     41  OD1       81.2430   37.0140  129.7590 O.co2 471  ASP471     -0.2456
     42  OD2       82.2450   38.9300  129.2670 O.co2 471  ASP471     -0.2456
     43  N         82.1800   34.2330  124.4920 N.3   474  TYR474     -0.1227
     44  CA        81.8560   35.4920  123.8720 C.3   474  TYR474      0.1736
     45  C         83.0190   35.9230  122.9880 C.2   474  TYR474      0.2595
     46  O         82.8510   36.2040  121.8030 O.2   474  TYR474     -0.2718
     47  CB        81.5600   36.5470  124.9340 C.3   474  TYR474      0.0548
     48  CG        80.2640   36.3180  125.7060 C.ar  474  TYR474     -0.0200
     49  CD1       79.2820   35.4540  125.2250 C.ar  474  TYR474     -0.0009
     50  CD2       80.0160   36.9800  126.9170 C.ar  474  TYR474     -0.0009
     51  CE1       78.1050   35.2570  125.9150 C.ar  474  TYR474      0.0417
     52  CE2       78.8360   36.7770  127.6160 C.ar  474  TYR474      0.0417
     53  CZ        77.8940   35.9200  127.1090 C.ar  474  TYR474      0.1957
     54  OH        76.7230   35.7230  127.7900 O.3   474  TYR474     -0.2866
     55  N         84.2180   35.9450  123.5550 N.am  475  HIS475     -0.1975
     56  CA        85.3600   36.4510  122.8140 C.3   475  HIS475      0.1656
     57  C         85.8190   35.4780  121.7390 C.2   475  HIS475      0.2291
     58  O         86.0310   35.8420  120.5950 O.2   475  HIS475     -0.2864
     59  CB        86.5430   36.7290  123.7360 C.3   475  HIS475      0.0771
     60  CG        86.2810   37.7760  124.7700 C.ar  475  HIS475      0.0820
     61  ND1       87.2760   38.5840  125.2710 N.ar  475  HIS475     -0.2267
     62  CD2       85.1600   38.0890  125.4620 C.ar  475  HIS475      0.1154
     63  CE1       86.7660   39.3900  126.1840 C.ar  475  HIS475      0.1986
     64  NE2       85.4870   39.1010  126.3280 N.ar  475  HIS475     -0.2212
     65  N         74.7040   36.6430  129.9900 N.3   549  GLU549     -0.1231
     66  CA        74.0200   37.7890  129.4260 C.3   549  GLU549      0.1699
     67  C         73.6610   37.5490  127.9610 C.2   549  GLU549      0.2592
     68  O         72.5080   37.2700  127.6580 O.2   549  GLU549     -0.2718
     69  CB        74.8250   39.0840  129.5980 C.3   549  GLU549      0.0402
     70  CG        74.0750   40.2780  129.0740 C.3   549  GLU549      0.1161
     71  CD        74.8220   41.6250  129.1970 C.2   549  GLU549      0.3649
     72  OE1       76.0270   41.7330  128.8790 O.co2 549  GLU549     -0.2457
     73  OE2       74.1740   42.5990  129.6370 O.co2 549  GLU549     -0.2457
     74  N         74.6350   37.6080  127.0600 N.am  550  SER550     -0.1952
     75  CA        74.3020   37.4770  125.6570 C.3   550  SER550      0.1924
     76  C         74.0210   36.0410  125.2450 C.2   550  SER550      0.2314
     77  O         74.8550   35.1420  125.4060 O.2   550  SER550     -0.2863
     78  CB        75.4000   38.0310  124.7800 C.3   550  SER550      0.2116
     79  OG        75.0100   37.9510  123.4160 O.3   550  SER550     -0.2180
     80  N         75.8140   35.7030  121.4510 N.3   553  GLU553     -0.1245
     81  CA        77.2590   35.6350  121.3900 C.3   553  GLU553      0.1567
     82  C         77.7110   34.2600  121.7700 C.2   553  GLU553      0.2260
     83  O         78.7840   33.8420  121.3500 O.2   553  GLU553     -0.2867
     84  CB        77.9090   36.7430  122.2230 C.3   553  GLU553      0.0388
     85  CG        78.2770   37.9700  121.3910 C.3   553  GLU553      0.1160
     86  CD        78.7120   39.1680  122.2240 C.2   553  GLU553      0.3649
     87  OE1       78.7610   39.0590  123.4630 O.co2 553  GLU553     -0.2457
     88  OE2       79.0720   40.2050  121.6280 O.co2 553  GLU553     -0.2457
     89  N         75.1310   45.1840  131.8180 N.3   624  TYR624     -0.1227
     90  CA        76.3730   45.5470  132.5060 C.3   624  TYR624      0.1736
     91  C         76.9410   46.8760  131.9840 C.2   624  TYR624      0.2595
     92  O         78.0170   47.2930  132.3950 O.2   624  TYR624     -0.2718
     93  CB        77.4350   44.4690  132.2730 C.3   624  TYR624      0.0548
     94  CG        77.1810   43.1820  132.9900 C.ar  624  TYR624     -0.0200
     95  CD1       77.2450   43.1170  134.3720 C.ar  624  TYR624     -0.0009
     96  CD2       76.8790   42.0310  132.2860 C.ar  624  TYR624     -0.0009
     97  CE1       76.9980   41.9540  135.0410 C.ar  624  TYR624      0.0417
     98  CE2       76.6320   40.8430  132.9370 C.ar  624  TYR624      0.0417
     99  CZ        76.6890   40.8150  134.3230 C.ar  624  TYR624      0.1957
    100  OH        76.4590   39.6570  135.0160 O.3   624  TYR624     -0.2866
    101  N         76.2130   47.5520  131.0980 N.am  625  PHE625     -0.1976
    102  CA        76.7480   48.7410  130.4570 C.3   625  PHE625      0.1639
    103  C         75.6950   49.8410  130.1640 C.2   625  PHE625      0.2290
    104  O         75.8920   50.6770  129.2550 O.2   625  PHE625     -0.2864
    105  CB        77.4470   48.3140  129.1660 C.3   625  PHE625      0.0560
    106  CG        76.5520   47.5770  128.2010 C.ar  625  PHE625     -0.0200
    107  CD1       76.3590   46.2070  128.3130 C.ar  625  PHE625     -0.0042
    108  CD2       75.9230   48.2520  127.1620 C.ar  625  PHE625     -0.0042
    109  CE1       75.5530   45.5260  127.4050 C.ar  625  PHE625     -0.0003
    110  CE2       75.1090   47.5850  126.2530 C.ar  625  PHE625     -0.0003
    111  CZ        74.9140   46.2120  126.3790 C.ar  625  PHE625     -0.0000
    112  N         71.4120   43.5500  122.8780 N.3   635  ILE635     -0.1245
    113  CA        72.4720   42.5400  123.0300 C.3   635  ILE635      0.1561
    114  C         71.9280   41.1680  122.7230 C.2   635  ILE635      0.2260
    115  O         72.6820   40.2340  122.4640 O.2   635  ILE635     -0.2867
    116  CB        73.1370   42.4230  124.4150 C.3   635  ILE635      0.0252
    117  CG1       72.1690   42.8140  125.5080 C.3   635  ILE635      0.0019
    118  CG2       74.5050   43.1330  124.4550 C.3   635  ILE635      0.0019
    119  CD1       72.7240   42.5360  126.8430 C.3   635  ILE635      0.0001
@<TRIPOS>BOND
     1    16    15    2
     2    15    14    1
     3    14    17    1
     4    14    13    1
     5     4     3    2
     6    17    18    1
     7    58    57    2
     8     3    13   am
     9     3     2    1
    10    19    18   ar
    11    19    21   ar
    12    83    82    2
    13    81    80    1
    14    81    82    1
    15    81    84    1
    16    85    84    1
    17    85    86    1
    18    18    20   ar
    19    88    86   ar
    20    57    56    1
    21    46    45    2
    22    21    23   ar
    23     2     1    1
    24     2     5    1
    25    86    87   ar
    26   115   114    2
    27    12    11    1
    28   114   113    1
    29    20    22   ar
    30     9    11   ar
    31     9     7   ar
    32    56    55    1
    33    56    59    1
    34    11    10   ar
    35   112   113    1
    36    45    55   am
    37    45    44    1
    38     7     6   ar
    39   113   116    1
    40    10     8   ar
    41     6     8   ar
    42     6     5    1
    43    23    22   ar
    44    79    78    1
    45    59    60    1
    46    44    43    1
    47    44    47    1
    48   116   118    1
    49   116   117    1
    50    60    61   ar
    51    60    62   ar
    52    78    75    1
    53    47    48    1
    54    49    48   ar
    55    49    51   ar
    56    76    77    2
    57    76    75    1
    58    61    63   ar
    59    62    64   ar
    60   117   119    1
    61    75    74    1
    62    48    50   ar
    63    51    53   ar
    64    63    64   ar
    65   110   111   ar
    66   110   108   ar
    67   111   109   ar
    68    38    37    2
    69    33    34   ar
    70    33    31   ar
    71    50    52   ar
    72    34    32   ar
    73    74    67   am
    74    53    52   ar
    75    53    54    1
    76   108   106   ar
    77   109   107   ar
    78    31    29   ar
    79    37    36    1
    80    68    67    2
    81    67    66    1
    82    32    30   ar
    83   106   107   ar
    84   106   105    1
    85    39    36    1
    86    39    40    1
    87    29    30   ar
    88    29    28    1
    89    36    35    1
    90    72    71   ar
    91    70    71    1
    92    70    69    1
    93   105   102    1
    94    71    73   ar
    95    40    42   ar
    96    40    41   ar
    97   104   103    2
    98    28    25    1
    99    66    69    1
   100    66    65    1
   101   103   102    1
   102    24    25    1
   103   102   101    1
   104    25    26    1
   105   101    91   am
   106    26    27    2
   107    89    90    1
   108    91    92    2
   109    91    90    1
   110    93    90    1
   111    93    94    1
   112    96    98   ar
   113    96    94   ar
   114    98    99   ar
   115    94    95   ar
   116    99   100    1
   117    99    97   ar
   118    95    97   ar
