@<TRIPOS>MOLECULE
tmp/5xc3A00.pdb
 131 125 0 0 0
SMALL
GASTEIGER

@<TRIPOS>ATOM
      1  N         -9.2150   -4.6150   10.5830 N.3    10  SER10      -0.1202
      2  CA       -10.1560   -5.1780   11.5430 C.3    10  SER10       0.2020
      3  C        -10.8920   -4.0760   12.2950 C.2    10  SER10       0.2619
      4  O        -10.2910   -3.0790   12.7140 O.2    10  SER10      -0.2717
      5  CB        -9.4150   -6.0390   12.5590 C.3    10  SER10       0.2103
      6  OG        -8.7900   -7.1410   11.9410 O.3    10  SER10      -0.2182
      7  N        -12.1980   -4.2680   12.4680 N.am   11  GLY11      -0.1942
      8  CA       -13.0080   -3.4320   13.3370 C.3    11  GLY11       0.2014
      9  C        -13.4740   -2.1270   12.7340 C.2    11  GLY11       0.2639
     10  O        -14.0610   -1.3060   13.4530 O.2    11  GLY11      -0.2714
     11  N        -13.2480   -1.9100   11.4370 N.am   12  VAL12      -0.1963
     12  CA       -13.6510   -0.6560   10.8020 C.3    12  VAL12       0.1727
     13  C        -15.1400   -0.5990   10.4820 C.2    12  VAL12       0.2617
     14  O        -15.6500    0.4900   10.2120 O.2    12  VAL12      -0.2715
     15  CB       -12.8070   -0.3290    9.5570 C.3    12  VAL12       0.0290
     16  CG1      -11.3360   -0.2360    9.9240 C.3    12  VAL12       0.0023
     17  CG2      -13.0060   -1.3850    8.4780 C.3    12  VAL12       0.0023
     18  N        -15.8400   -1.7250   10.4930 N.am   13  GLY13      -0.1940
     19  CA       -17.2630   -1.7600   10.2410 C.3    13  GLY13       0.2014
     20  C        -17.6900   -2.4540    8.9560 C.2    13  GLY13       0.2639
     21  O        -18.8380   -2.2510    8.5180 O.2    13  GLY13      -0.2714
     22  N        -16.8180   -3.2710    8.3580 N.am   14  LYS14      -0.1963
     23  CA       -17.1550   -3.9530    7.1090 C.3    14  LYS14       0.1728
     24  C        -18.4020   -4.8040    7.2710 C.2    14  LYS14       0.2617
     25  O        -19.3640   -4.6780    6.5030 O.2    14  LYS14      -0.2715
     26  CB       -15.9850   -4.8280    6.6660 C.3    14  LYS14       0.0311
     27  CG       -14.7320   -4.0440    6.3120 C.3    14  LYS14       0.0038
     28  CD       -13.5680   -4.9470    5.8680 C.3    14  LYS14       0.0206
     29  CE       -13.2010   -5.9940    6.9080 C.3    14  LYS14       0.1093
     30  NZ       -12.6120   -5.3960    8.1570 N.3    14  LYS14      -0.1314
     31  N        -18.4050   -5.6880    8.2680 N.am   15  SER15      -0.1936
     32  CA       -19.5570   -6.5650    8.4470 C.3    15  SER15       0.2055
     33  C        -20.8130   -5.7750    8.7920 C.2    15  SER15       0.2643
     34  O        -21.9120   -6.1230    8.3500 O.2    15  SER15      -0.2714
     35  CB       -19.2510   -7.6050    9.5230 C.3    15  SER15       0.2130
     36  OG       -18.1160   -8.3660    9.1440 O.3    15  SER15      -0.2179
     37  N        -20.6690   -4.7090    9.5810 N.am   16  SER16      -0.1949
     38  CA       -21.8470   -3.9460    9.9800 C.3    16  SER16       0.1924
     39  C        -22.4670   -3.2190    8.7940 C.2    16  SER16       0.2314
     40  O        -23.6960   -3.1290    8.6830 O.2    16  SER16      -0.2863
     41  CB       -21.4720   -2.9730   11.0970 C.3    16  SER16       0.2116
     42  OG       -20.9860   -3.6780   12.2310 O.3    16  SER16      -0.2180
     43  N        -28.1840   -5.3700   12.6130 N.3    26  LYS26      -0.1245
     44  CA       -27.0570   -6.2590   12.8360 C.3    26  LYS26       0.1561
     45  C        -27.5900   -7.5870   13.3590 C.2    26  LYS26       0.2260
     46  O        -28.2840   -7.6230   14.3830 O.2    26  LYS26      -0.2867
     47  CB       -26.1030   -5.6400   13.8540 C.3    26  LYS26       0.0271
     48  CG       -24.8020   -6.3830   14.0200 C.3    26  LYS26       0.0035
     49  CD       -23.9880   -6.3290   12.7310 C.3    26  LYS26       0.0206
     50  CE       -22.5640   -6.6890   13.0000 C.3    26  LYS26       0.1093
     51  NZ       -21.9790   -5.7530   13.9960 N.3    26  LYS26      -0.1314
     52  N        -17.5220  -10.9260    2.3980 N.3    57  ASP57      -0.1225
     53  CA       -17.0560  -10.2750    3.6130 C.3    57  ASP57       0.1805
     54  C        -16.0470  -11.1990    4.2820 C.2    57  ASP57       0.2598
     55  O        -16.0800  -12.4200    4.0970 O.2    57  ASP57      -0.2718
     56  CB       -18.2520   -9.9940    4.5400 C.3    57  ASP57       0.1424
     57  CG       -17.8710   -9.1870    5.7840 C.2    57  ASP57       0.3668
     58  OD1      -16.8910   -8.4030    5.7320 O.co2  57  ASP57      -0.2456
     59  OD2      -18.5730   -9.3400    6.8030 O.co2  57  ASP57      -0.2456
     60  N        -15.1080  -10.6080    5.0120 N.am   58  THR58      -0.1953
     61  CA       -14.1080  -11.4350    5.6690 C.3    58  THR58       0.1897
     62  C        -14.6920  -12.1130    6.9040 C.2    58  THR58       0.2313
     63  O        -15.7440  -11.7310    7.4330 O.2    58  THR58      -0.2863
     64  CB       -12.8940  -10.6100    6.1030 C.3    58  THR58       0.1794
     65  OG1      -13.2280   -9.8320    7.2650 O.3    58  THR58      -0.2208
     66  CG2      -12.4090   -9.6850    4.9870 C.3    58  THR58       0.0378
     67  N         -8.4560  -10.5230    8.0280 N.3    62  GLU62      -0.1245
     68  CA        -7.7220   -9.2920    7.7600 C.3    62  GLU62       0.1567
     69  C         -6.8430   -8.8610    8.9300 C.2    62  GLU62       0.2260
     70  O         -5.9140   -8.0760    8.7220 O.2    62  GLU62      -0.2867
     71  CB        -8.6760   -8.1590    7.3600 C.3    62  GLU62       0.0388
     72  CG        -9.5240   -7.6090    8.5060 C.3    62  GLU62       0.1160
     73  CD       -10.8180   -8.3790    8.7250 C.2    62  GLU62       0.3649
     74  OE1      -11.7460   -7.8010    9.3250 O.co2  62  GLU62      -0.2457
     75  OE2      -10.9140   -9.5620    8.3180 O.co2  62  GLU62      -0.2457
     76  N        -15.8760    5.3220    7.3070 N.3   115  ASN115     -0.1225
     77  CA       -16.9640    4.8490    8.1510 C.3   115  ASN115      0.1785
     78  C        -16.8700    5.4090    9.5710 C.2   115  ASN115      0.2597
     79  O        -15.8240    5.9120   10.0080 O.2   115  ASN115     -0.2718
     80  CB       -16.9790    3.3150    8.1970 C.3   115  ASN115      0.1169
     81  CG       -18.3040    2.7560    8.6880 C.2   115  ASN115      0.2627
     82  OD1      -19.3630    3.3280    8.4340 O.2   115  ASN115     -0.2716
     83  ND2      -18.2500    1.6410    9.4030 N.am  115  ASN115     -0.0877
     84  N        -17.9980    5.3030   10.2820 N.am  116  LYS116     -0.1980
     85  CA       -18.1900    5.6920   11.6830 C.3   116  LYS116      0.1596
     86  C        -18.3620    7.1960   11.8640 C.2   116  LYS116      0.2287
     87  O        -17.9950    7.7420   12.9110 O.2   116  LYS116     -0.2864
     88  CB       -17.1130    5.1210   12.6240 C.3   116  LYS116      0.0298
     89  CG       -16.9040    3.6110   12.5010 C.3   116  LYS116      0.0038
     90  CD       -16.2600    3.0040   13.7360 C.3   116  LYS116      0.0206
     91  CE       -15.8920    1.5430   13.4690 C.3   116  LYS116      0.1093
     92  NZ       -15.3120    0.8940   14.6850 N.3   116  LYS116     -0.1314
     93  N        -20.8670    8.7120   12.6670 N.3   118  ASP118     -0.1225
     94  CA       -21.7250    8.9970   13.8160 C.3   118  ASP118      0.1805
     95  C        -20.9340    9.4580   15.0320 C.2   118  ASP118      0.2597
     96  O        -21.5160   10.0630   15.9420 O.2   118  ASP118     -0.2718
     97  CB       -22.5070    7.7490   14.2140 C.3   118  ASP118      0.1424
     98  CG       -21.6070    6.5700   14.4790 C.2   118  ASP118      0.3668
     99  OD1      -21.0710    6.0000   13.5020 O.co2 118  ASP118     -0.2456
    100  OD2      -21.4150    6.2100   15.6570 O.co2 118  ASP118     -0.2456
    101  N        -19.6440    9.1650   15.0860 N.am  119  ILE119     -0.1980
    102  CA       -18.8330    9.5190   16.2420 C.3   119  ILE119      0.1595
    103  C        -18.5180   11.0050   16.1960 C.2   119  ILE119      0.2287
    104  O        -18.3310   11.5800   15.1190 O.2   119  ILE119     -0.2864
    105  CB       -17.5520    8.6720   16.2620 C.3   119  ILE119      0.0276
    106  CG1      -17.9140    7.1890   16.3230 C.3   119  ILE119      0.0022
    107  CG2      -16.6330    9.0800   17.4280 C.3   119  ILE119      0.0022
    108  CD1      -16.7080    6.2710   16.4160 C.3   119  ILE119      0.0001
    109  N        -21.9560    5.7470    7.9510 N.3   146  SER146     -0.1202
    110  CA       -22.0420    5.1010    9.2520 C.3   146  SER146      0.2020
    111  C        -22.9660    3.9060    9.0940 C.2   146  SER146      0.2619
    112  O        -24.0380    4.0270    8.4850 O.2   146  SER146     -0.2717
    113  CB       -22.6220    6.0440   10.3180 C.3   146  SER146      0.2103
    114  OG       -22.9930    5.3130   11.4700 O.3   146  SER146     -0.2182
    115  N        -22.5610    2.7590    9.6430 N.am  147  SER147     -0.1937
    116  CA       -23.4330    1.5920    9.5810 C.3   147  SER147      0.2055
    117  C        -24.7510    1.8290   10.3100 C.2   147  SER147      0.2643
    118  O        -25.7090    1.0770   10.0970 O.2   147  SER147     -0.2714
    119  CB       -22.7460    0.3480   10.1500 C.3   147  SER147      0.2130
    120  OG       -21.3780    0.2610    9.7920 O.3   147  SER147     -0.2179
    121  N        -24.8170    2.8490   11.1680 N.am  148  PHE148     -0.1973
    122  CA       -26.0290    3.1800   11.9080 C.3   148  PHE148      0.1639
    123  C        -26.9110    4.1850   11.1820 C.2   148  PHE148      0.2290
    124  O        -28.0100    4.4900   11.6660 O.2   148  PHE148     -0.2864
    125  CB       -25.6620    3.7330   13.2900 C.3   148  PHE148      0.0560
    126  CG       -24.7930    2.8160   14.1020 C.ar  148  PHE148     -0.0200
    127  CD1      -25.0220    1.4500   14.1240 C.ar  148  PHE148     -0.0042
    128  CD2      -23.7300    3.3220   14.8380 C.ar  148  PHE148     -0.0042
    129  CE1      -24.2100    0.6100   14.8760 C.ar  148  PHE148     -0.0003
    130  CE2      -22.9150    2.4850   15.6010 C.ar  148  PHE148     -0.0003
    131  CZ       -23.1530    1.1310   15.6090 C.ar  148  PHE148     -0.0000
@<TRIPOS>BOND
     1    52    53    1
     2    53    54    1
     3    53    56    1
     4    55    54    2
     5    54    60   am
     6    56    57    1
     7    66    64    1
     8    60    61    1
     9    61    64    1
    10    61    62    1
    11    58    57   ar
    12    57    59   ar
    13    28    27    1
    14    28    29    1
    15    64    65    1
    16    27    26    1
    17    25    24    2
    18    26    23    1
    19    62    63    2
    20    29    30    1
    21    23    24    1
    22    23    22    1
    23    24    31   am
    24    76    77    1
    25    71    68    1
    26    71    72    1
    27    68    67    1
    28    68    69    1
    29   109   110    1
    30    77    80    1
    31    77    78    1
    32    80    81    1
    33    31    32    1
    34    75    73   ar
    35    34    33    2
    36    22    20   am
    37    82    81    2
    38    32    33    1
    39    32    35    1
    40    17    15    1
    41   112   111    2
    42    72    73    1
    43    21    20    2
    44    40    39    2
    45    81    83   am
    46    70    69    2
    47    73    74   ar
    48    33    37   am
    49    39    38    1
    50    20    19    1
    51   111   110    1
    52   111   115   am
    53    36    35    1
    54   110   113    1
    55    15    16    1
    56    15    12    1
    57    78    79    2
    58    78    84   am
    59    37    38    1
    60   116   115    1
    61   116   119    1
    62   116   117    1
    63   120   119    1
    64    38    41    1
    65   118   117    2
    66    14    13    2
    67    19    18    1
    68    84    85    1
    69   117   121   am
    70   113   114    1
    71    13    18   am
    72    13    12    1
    73     1     2    1
    74    12    11    1
    75    41    42    1
    76   121   122    1
    77   123   124    2
    78   123   122    1
    79    11     9   am
    80     2     3    1
    81     2     5    1
    82    85    86    1
    83    85    88    1
    84    86    87    2
    85   122   125    1
    86     6     5    1
    87     3     7   am
    88     3     4    2
    89     7     8    1
    90    89    88    1
    91    89    90    1
    92    43    44    1
    93    93    94    1
    94    49    50    1
    95    49    48    1
    96     9     8    1
    97     9    10    2
    98    44    45    1
    99    44    47    1
   100    50    51    1
   101   125   126    1
   102    45    46    2
   103    91    90    1
   104    91    92    1
   105    99    98   ar
   106    94    97    1
   107    94    95    1
   108    47    48    1
   109   126   127   ar
   110   126   128   ar
   111   127   129   ar
   112    97    98    1
   113    98   100   ar
   114   128   130   ar
   115   129   131   ar
   116    95   101   am
   117    95    96    2
   118   101   102    1
   119   104   103    2
   120   130   131   ar
   121   103   102    1
   122   102   105    1
   123   105   106    1
   124   105   107    1
   125   106   108    1
