@<TRIPOS>MOLECULE
tmp/5xc5A00.pdb
 144 139 0 0 0
SMALL
GASTEIGER

@<TRIPOS>ATOM
      1  N         30.1670   15.2960   21.6490 N.3    10  SER10      -0.1202
      2  CA        30.1120   16.6290   21.0630 C.3    10  SER10       0.2020
      3  C         31.3040   17.4720   21.5050 C.2    10  SER10       0.2619
      4  O         31.7250   17.4220   22.6630 O.2    10  SER10      -0.2717
      5  CB        28.8120   17.3290   21.4530 C.3    10  SER10       0.2103
      6  OG        28.7810   18.6440   20.9190 O.3    10  SER10      -0.2182
      7  N         31.8650   18.2220   20.5620 N.am   11  GLY11      -0.1942
      8  CA        32.9160   19.1650   20.8580 C.3    11  GLY11       0.2014
      9  C         34.3220   18.6190   20.7870 C.2    11  GLY11       0.2639
     10  O         35.2670   19.3870   20.9810 O.2    11  GLY11      -0.2714
     11  N         34.4940   17.3290   20.4850 N.am   12  VAL12      -0.1963
     12  CA        35.8250   16.7190   20.5260 C.3    12  VAL12       0.1727
     13  C         36.6840   17.0830   19.3230 C.2    12  VAL12       0.2617
     14  O         37.9030   16.8530   19.3640 O.2    12  VAL12      -0.2715
     15  CB        35.7710   15.1910   20.7140 C.3    12  VAL12       0.0290
     16  CG1       35.0690   14.8280   22.0190 C.3    12  VAL12       0.0023
     17  CG2       35.0910   14.5180   19.5340 C.3    12  VAL12       0.0023
     18  N         36.0880   17.6230   18.2630 N.am   13  GLY13      -0.1940
     19  CA        36.8040   18.0290   17.0790 C.3    13  GLY13       0.2014
     20  C         36.6500   17.1510   15.8340 C.2    13  GLY13       0.2639
     21  O         37.4760   17.2670   14.9260 O.2    13  GLY13      -0.2714
     22  N         35.6050   16.3130   15.7580 N.am   14  LYS14      -0.1963
     23  CA        35.4000   15.4810   14.5720 C.3    14  LYS14       0.1728
     24  C         35.3150   16.3290   13.3030 C.2    14  LYS14       0.2617
     25  O         35.9970   16.0520   12.3090 O.2    14  LYS14      -0.2715
     26  CB        34.1270   14.6480   14.7350 C.3    14  LYS14       0.0311
     27  CG        34.1640   13.6860   15.9220 C.3    14  LYS14       0.0038
     28  CD        32.8430   12.9230   16.0580 C.3    14  LYS14       0.0206
     29  CE        31.6410   13.8450   16.2740 C.3    14  LYS14       0.1093
     30  NZ        31.6490   14.5730   17.5840 N.3    14  LYS14      -0.1314
     31  N         34.4570   17.3530   13.3060 N.am   15  SER15      -0.1936
     32  CA        34.2750   18.1530   12.0980 C.3    15  SER15       0.2055
     33  C         35.5310   18.9430   11.7580 C.2    15  SER15       0.2643
     34  O         35.8750   19.0960   10.5810 O.2    15  SER15      -0.2714
     35  CB        33.0730   19.0850   12.2420 C.3    15  SER15       0.2130
     36  OG        31.8840   18.3510   12.4640 O.3    15  SER15      -0.2179
     37  N         36.2270   19.4440   12.7760 N.am   16  SER16      -0.1949
     38  CA        37.4790   20.1590   12.5440 C.3    16  SER16       0.1924
     39  C         38.5240   19.2580   11.8960 C.2    16  SER16       0.2314
     40  O         39.2190   19.6720   10.9580 O.2    16  SER16      -0.2863
     41  CB        37.9880   20.7260   13.8650 C.3    16  SER16       0.2116
     42  OG        37.0700   21.6680   14.3810 O.3    16  SER16      -0.2180
     43  N         32.8810   26.0630   11.3940 N.3    30  VAL30      -0.1231
     44  CA        32.4580   24.8650   12.1180 C.3    30  VAL30       0.1692
     45  C         31.4030   25.2120   13.1630 C.2    30  VAL30       0.2593
     46  O         31.6130   26.0980   13.9970 O.2    30  VAL30      -0.2718
     47  CB        33.6410   24.1130   12.7580 C.3    30  VAL30       0.0266
     48  CG1       33.1440   22.8390   13.3910 C.3    30  VAL30       0.0020
     49  CG2       34.6890   23.7810   11.7130 C.3    30  VAL30       0.0020
     50  N         30.2880   24.4910   13.1260 N.am   31  SER31      -0.1939
     51  CA        29.1960   24.5480   14.0880 C.3    31  SER31       0.2040
     52  C         28.8000   23.1180   14.4140 C.2    31  SER31       0.2485
     53  O         29.1610   22.1890   13.6810 O.2    31  SER31      -0.2729
     54  CB        28.0020   25.2990   13.4840 C.3    31  SER31       0.2129
     55  OG        27.6480   24.7530   12.2260 O.3    31  SER31      -0.2179
     56  N         28.0660   22.8940   15.5150 N.am   32  PRO32      -0.2715
     57  CA        27.7450   21.5150   15.9120 C.3    32  PRO32       0.1536
     58  C         27.0120   20.7630   14.8100 C.2    32  PRO32       0.2599
     59  O         26.1270   21.2930   14.1330 O.2    32  PRO32      -0.2715
     60  CB        26.8610   21.6870   17.1550 C.3    32  PRO32       0.0310
     61  CG        27.2290   23.0250   17.6890 C.3    32  PRO32       0.0237
     62  CD        27.5950   23.8740   16.5150 C.3    32  PRO32       0.0939
     63  N         27.4020   19.5140   14.6280 N.am   33  THR33      -0.1951
     64  CA        26.8260   18.6840   13.5870 C.3    33  THR33       0.1897
     65  C         25.5010   18.1000   14.0590 C.2    33  THR33       0.2313
     66  O         25.3500   17.6930   15.2170 O.2    33  THR33      -0.2863
     67  CB        27.8140   17.5730   13.2370 C.3    33  THR33       0.1794
     68  OG1       29.0980   18.1690   12.9690 O.3    33  THR33      -0.2208
     69  CG2       27.3540   16.7730   12.0070 C.3    33  THR33       0.0378
     70  N         29.5570   12.6940   11.8530 N.3    58  THR58      -0.1218
     71  CA        28.2910   12.5080   12.5610 C.3    58  THR58       0.1862
     72  C         28.1980   13.3970   13.7960 C.2    58  THR58       0.2287
     73  O         29.1830   13.9660   14.2650 O.2    58  THR58      -0.2866
     74  CB        28.0810   11.0410   12.9710 C.3    58  THR58       0.1770
     75  OG1       29.0160   10.6890   13.9990 O.3    58  THR58      -0.2211
     76  CG2       28.2640   10.1040   11.8020 C.3    58  THR58       0.0375
     77  N         27.7940   14.3450   17.6800 N.3    60  GLY60      -0.1210
     78  CA        28.1050   13.8840   19.0180 C.3    60  GLY60       0.1956
     79  C         27.1240   14.3130   20.0950 C.2    60  GLY60       0.2611
     80  O         27.1390   13.7450   21.1900 O.2    60  GLY60      -0.2717
     81  N         26.2670   15.2950   19.8100 N.am   61  LEU61      -0.1979
     82  CA        25.2930   15.7370   20.8030 C.3    61  LEU61       0.1596
     83  C         24.3410   14.6040   21.1500 C.2    61  LEU61       0.2287
     84  O         23.8450   13.8910   20.2740 O.2    61  LEU61      -0.2864
     85  CB        24.5030   16.9320   20.2810 C.3    61  LEU61       0.0297
     86  CG        25.2590   18.2650   20.3140 C.3    61  LEU61       0.0022
     87  CD1       24.5090   19.2580   19.4670 C.3    61  LEU61       0.0001
     88  CD2       25.4360   18.7940   21.7270 C.3    61  LEU61       0.0001
     89  N         42.3750   13.6970   20.6010 N.3   115  ASN115     -0.1225
     90  CA        42.4570   14.9900   19.9420 C.3   115  ASN115      0.1785
     91  C         42.6960   16.1120   20.9470 C.2   115  ASN115      0.2597
     92  O         42.5320   15.9610   22.1640 O.2   115  ASN115     -0.2718
     93  CB        41.1810   15.2660   19.1400 C.3   115  ASN115      0.1169
     94  CG        41.3820   16.3010   18.0500 C.2   115  ASN115      0.2627
     95  OD1       42.4690   16.4430   17.5150 O.2   115  ASN115     -0.2716
     96  ND2       40.3240   17.0280   17.7120 N.am  115  ASN115     -0.0877
     97  N         43.0800   17.2630   20.3930 N.am  116  LYS116     -0.1980
     98  CA        43.3720   18.5040   21.1220 C.3   116  LYS116      0.1596
     99  C         44.6960   18.4460   21.8750 C.2   116  LYS116      0.2287
    100  O         44.8660   19.1090   22.9040 O.2   116  LYS116     -0.2864
    101  CB        42.2190   18.9990   22.0090 C.3   116  LYS116      0.0298
    102  CG        40.8760   18.9860   21.2950 C.3   116  LYS116      0.0038
    103  CD        39.8830   19.8900   21.9720 C.3   116  LYS116      0.0206
    104  CE        38.4920   19.7760   21.3310 C.3   116  LYS116      0.1093
    105  NZ        37.5060   20.6840   22.0230 N.3   116  LYS116     -0.1314
    106  N         47.3090   19.8880   21.3390 N.3   118  ASP118     -0.1225
    107  CA        47.9320   21.2020   21.4400 C.3   118  ASP118      0.1805
    108  C         47.7290   21.8220   22.8110 C.2   118  ASP118      0.2597
    109  O         48.5360   22.6600   23.2230 O.2   118  ASP118     -0.2718
    110  CB        47.3570   22.1350   20.3730 C.3   118  ASP118      0.1424
    111  CG        45.8420   22.2370   20.4520 C.2   118  ASP118      0.3668
    112  OD1       45.1680   21.2540   20.0750 O.co2 118  ASP118     -0.2456
    113  OD2       45.3190   23.2850   20.8920 O.co2 118  ASP118     -0.2456
    114  N         46.6710   21.4310   23.5270 N.am  119  ILE119     -0.1980
    115  CA        46.4170   21.9770   24.8530 C.3   119  ILE119      0.1595
    116  C         47.5370   21.5530   25.7940 C.2   119  ILE119      0.2287
    117  O         48.0550   20.4330   25.7070 O.2   119  ILE119     -0.2864
    118  CB        45.0390   21.5000   25.3450 C.3   119  ILE119      0.0276
    119  CG1       43.9410   22.0640   24.4370 C.3   119  ILE119      0.0022
    120  CG2       44.8220   21.8830   26.8150 C.3   119  ILE119      0.0022
    121  CD1       42.5520   21.5660   24.7440 C.3   119  ILE119      0.0001
    122  N         45.8770   16.9860   16.7100 N.3   146  SER146     -0.1202
    123  CA        45.2410   18.2830   16.8860 C.3   146  SER146      0.2020
    124  C         44.6620   18.6820   15.5410 C.2   146  SER146      0.2619
    125  O         45.3680   18.6280   14.5300 O.2   146  SER146     -0.2717
    126  CB        46.2620   19.3380   17.3070 C.3   146  SER146      0.2103
    127  OG        45.6790   20.6370   17.2550 O.3   146  SER146     -0.2182
    128  N         43.3790   19.0700   15.5330 N.am  147  SER147     -0.1937
    129  CA        42.7230   19.4860   14.2960 C.3   147  SER147      0.2055
    130  C         43.4710   20.6140   13.6110 C.2   147  SER147      0.2643
    131  O         43.4030   20.7450   12.3820 O.2   147  SER147     -0.2714
    132  CB        41.3070   19.9810   14.5940 C.3   147  SER147      0.2130
    133  OG        40.5590   19.0600   15.3780 O.3   147  SER147     -0.2179
    134  N         44.1560   21.4510   14.3820 N.am  148  PHE148     -0.1973
    135  CA        44.8290   22.6330   13.8630 C.3   148  PHE148      0.1639
    136  C         46.2100   22.3280   13.3140 C.2   148  PHE148      0.2290
    137  O         46.8490   23.2230   12.7510 O.2   148  PHE148     -0.2864
    138  CB        44.9330   23.7020   14.9610 C.3   148  PHE148      0.0560
    139  CG        43.6220   24.0100   15.6270 C.ar  148  PHE148     -0.0200
    140  CD1       42.4430   23.9750   14.9050 C.ar  148  PHE148     -0.0042
    141  CD2       43.5680   24.3130   16.9820 C.ar  148  PHE148     -0.0042
    142  CE1       41.2260   24.2440   15.5130 C.ar  148  PHE148     -0.0003
    143  CE2       42.3520   24.5940   17.5940 C.ar  148  PHE148     -0.0003
    144  CZ        41.1850   24.5500   16.8560 C.ar  148  PHE148     -0.0000
@<TRIPOS>BOND
     1    34    33    2
     2    40    39    2
     3    43    44    1
     4    49    47    1
     5    33    32    1
     6    33    37   am
     7    76    74    1
     8    70    71    1
     9    39    38    1
    10    69    67    1
    11    32    35    1
    12    32    31    1
    13    44    47    1
    14    44    45    1
    15    55    54    1
    16    35    36    1
    17    25    24    2
    18   131   130    2
    19    38    37    1
    20    38    41    1
    21    71    74    1
    22    71    72    1
    23   137   136    2
    24    47    48    1
    25    68    67    1
    26    74    75    1
    27    50    45   am
    28    50    51    1
    29    45    46    2
    30    67    64    1
    31    24    31   am
    32    24    23    1
    33   136   135    1
    34    54    51    1
    35    64    65    1
    36    64    63    1
    37   130   129    1
    38   130   134   am
    39    53    52    2
    40    72    73    2
    41   135   134    1
    42   135   138    1
    43    41    42    1
    44    65    66    2
    45    51    52    1
    46    59    58    2
    47   129   132    1
    48   129   128    1
    49    52    56   am
    50   125   124    2
    51    23    26    1
    52    23    22    1
    53   132   133    1
    54    63    58   am
    55    26    27    1
    56    58    57    1
    57   140   142   ar
    58   140   139   ar
    59    21    20    2
    60   138   139    1
    61   142   144   ar
    62    56    57    1
    63    56    62    1
    64   128   124   am
    65   124   123    1
    66   139   141   ar
    67    22    20   am
    68    20    19    1
    69    57    60    1
    70    27    28    1
    71    28    29    1
    72    29    30    1
    73    62    61    1
    74   122   123    1
    75   144   143   ar
    76   123   126    1
    77   141   143   ar
    78    19    18    1
    79    60    61    1
    80   127   126    1
    81    95    94    2
    82    77    78    1
    83    96    94   am
    84    94    93    1
    85    18    13   am
    86    78    79    1
    87    93    90    1
    88    13    14    2
    89    13    12    1
    90    87    86    1
    91    17    15    1
    92    81    79   am
    93    81    82    1
    94    90    89    1
    95    90    91    1
    96   112   111   ar
    97    79    80    2
    98    84    83    2
    99    85    86    1
   100    85    82    1
   101    86    88    1
   102   110   111    1
   103   110   107    1
   104    97    91   am
   105    97    98    1
   106   111   113   ar
   107    11    12    1
   108    11     9   am
   109    12    15    1
   110     7     8    1
   111     7     3   am
   112    15    16    1
   113     9     8    1
   114     9    10    2
   115    82    83    1
   116     6     5    1
   117    91    92    2
   118     2     5    1
   119     2     3    1
   120     2     1    1
   121    98    99    1
   122    98   101    1
   123   102   103    1
   124   102   101    1
   125   104   103    1
   126   104   105    1
   127   106   107    1
   128   107   108    1
   129     3     4    2
   130    99   100    2
   131   108   109    2
   132   108   114   am
   133   114   115    1
   134   119   121    1
   135   119   118    1
   136   115   118    1
   137   115   116    1
   138   118   120    1
   139   117   116    2
