@<TRIPOS>MOLECULE
tmp/5xc8A00.pdb
 112 110 0 0 0
SMALL
GASTEIGER

@<TRIPOS>ATOM
      1  N         -3.7340    0.5680  -17.8990 N.3    26  TYR26      -0.1241
      2  CA        -2.6030   -0.2260  -17.4280 C.3    26  TYR26       0.1605
      3  C         -2.7680   -1.6850  -17.8110 C.2    26  TYR26       0.2264
      4  O         -3.8780   -2.1850  -17.9900 O.2    26  TYR26      -0.2867
      5  CB        -2.4330   -0.1280  -15.8990 C.3    26  TYR26       0.0534
      6  CG        -3.3900   -0.9560  -15.0460 C.ar   26  TYR26      -0.0201
      7  CD1       -4.6880   -0.5320  -14.7450 C.ar   26  TYR26      -0.0009
      8  CD2       -2.9350   -2.1140  -14.4480 C.ar   26  TYR26      -0.0009
      9  CE1       -5.5270   -1.2720  -13.8980 C.ar   26  TYR26       0.0417
     10  CE2       -3.7570   -2.8710  -13.5990 C.ar   26  TYR26       0.0417
     11  CZ        -5.0480   -2.4500  -13.3200 C.ar   26  TYR26       0.1957
     12  OH        -5.8160   -3.1900  -12.4420 O.3    26  TYR26      -0.2866
     13  N         -0.8120   -5.2910  -16.2980 N.3    28  ASP28      -0.1239
     14  CA         0.2610   -5.9030  -15.5060 C.3    28  ASP28       0.1674
     15  C          0.0550   -7.3670  -15.1670 C.2    28  ASP28       0.2266
     16  O          1.0070   -8.0000  -14.6930 O.2    28  ASP28      -0.2867
     17  CB         0.6360   -5.0980  -14.2450 C.3    28  ASP28       0.1410
     18  CG        -0.4640   -5.0600  -13.1890 C.2    28  ASP28       0.3668
     19  OD1       -1.3780   -5.9140  -13.1880 O.co2  28  ASP28      -0.2456
     20  OD2       -0.3440   -4.1690  -12.3210 O.co2  28  ASP28      -0.2456
     21  N         -1.4180   -8.8870  -12.7530 N.3    30  HIS30      -0.1226
     22  CA        -1.5050   -9.3040  -11.3610 C.3    30  HIS30       0.1752
     23  C         -2.9510   -9.5810  -10.9580 C.2    30  HIS30       0.2596
     24  O         -3.9030   -9.0060  -11.4940 O.2    30  HIS30      -0.2718
     25  CB        -1.0190   -8.1560  -10.4790 C.3    30  HIS30       0.0759
     26  CG         0.4550   -7.9570  -10.5570 C.ar   30  HIS30       0.0818
     27  ND1        1.3530   -8.9820  -10.3000 N.ar   30  HIS30      -0.2268
     28  CD2        1.1910   -6.8730  -10.8850 C.ar   30  HIS30       0.1154
     29  CE1        2.5860   -8.5210  -10.4460 C.ar   30  HIS30       0.1986
     30  NE2        2.5140   -7.2490  -10.8120 N.ar   30  HIS30      -0.2212
     31  N         -3.0950  -10.4010   -9.9090 N.am   31  LYS31      -0.1966
     32  CA        -4.4040  -10.6120   -9.3150 C.3    31  LYS31       0.1728
     33  C         -4.9880   -9.2960   -8.8190 C.2    31  LYS31       0.2617
     34  O         -6.1580   -8.9990   -9.0670 O.2    31  LYS31      -0.2715
     35  CB        -4.2990  -11.6360   -8.1820 C.3    31  LYS31       0.0311
     36  CG        -5.5900  -11.7630   -7.3580 C.3    31  LYS31       0.0038
     37  CD        -5.5440  -13.0100   -6.4390 C.3    31  LYS31       0.0206
     38  CE        -4.5680  -12.7810   -5.2880 C.3    31  LYS31       0.1093
     39  NZ        -4.6080  -14.0360   -4.4610 N.3    31  LYS31      -0.1314
     40  N         -4.1860   -8.5150   -8.1000 N.am   32  GLY32      -0.1940
     41  CA        -4.5930   -7.1910   -7.6890 C.3    32  GLY32       0.2014
     42  C         -5.0590   -7.1380   -6.2400 C.2    32  GLY32       0.2638
     43  O         -5.2280   -8.1510   -5.5530 O.2    32  GLY32      -0.2714
     44  N         -5.2970   -5.9000   -5.7800 N.am   33  ALA33      -0.1977
     45  CA        -5.3810   -5.5760   -4.3650 C.3    33  ALA33       0.1597
     46  C         -6.7250   -5.8900   -3.7430 C.2    33  ALA33       0.2287
     47  O         -6.8690   -5.7430   -2.5040 O.2    33  ALA33      -0.2864
     48  CB        -5.0290   -4.0930   -4.1740 C.3    33  ALA33       0.0319
     49  N         -0.8960  -15.3320   -7.4210 N.3    42  ASP42      -0.1239
     50  CA        -1.0230  -14.0450   -8.1040 C.3    42  ASP42       0.1674
     51  C         -1.7200  -14.1860   -9.4460 C.2    42  ASP42       0.2266
     52  O         -1.3190  -13.5640  -10.4240 O.2    42  ASP42      -0.2867
     53  CB         0.3520  -13.3970   -8.2760 C.3    42  ASP42       0.1410
     54  CG         0.2620  -11.9420   -8.6800 C.2    42  ASP42       0.3668
     55  OD1       -0.7260  -11.2950   -8.3370 O.co2  42  ASP42      -0.2456
     56  OD2        1.1580  -11.4460   -9.3790 O.co2  42  ASP42      -0.2456
     57  N         -3.2100   -1.4830    1.0950 N.3    68  LEU68      -0.1231
     58  CA        -3.1660   -1.8780   -0.3150 C.3    68  LEU68       0.1693
     59  C         -3.5880   -3.3300   -0.4800 C.2    68  LEU68       0.2592
     60  O         -3.2370   -3.9850   -1.4660 O.2    68  LEU68      -0.2718
     61  CB        -1.7860   -1.6290   -0.9100 C.3    68  LEU68       0.0284
     62  CG        -1.3760   -0.1420   -0.9620 C.3    68  LEU68       0.0019
     63  CD1        0.0710   -0.0210   -1.4090 C.3    68  LEU68       0.0001
     64  CD2       -2.2750    0.5740   -1.9530 C.3    68  LEU68       0.0001
     65  N         -4.3820   -3.8310    0.4580 N.am   69  TRP69      -0.1976
     66  CA        -4.9820   -5.1670    0.3720 C.3    69  TRP69       0.1640
     67  C         -6.3470   -5.0680    1.0260 C.2    69  TRP69       0.2290
     68  O         -6.4540   -4.6300    2.1760 O.2    69  TRP69      -0.2864
     69  CB        -4.1070   -6.2120    1.0720 C.3    69  TRP69       0.0576
     70  CG        -4.7170   -7.5940    1.1430 C.ar   69  TRP69       0.0006
     71  CD1       -5.1870   -8.2180    2.2600 C.ar   69  TRP69       0.0946
     72  CD2       -4.9530   -8.5120    0.0420 C.ar   69  TRP69       0.0152
     73  NE1       -5.6750   -9.4610    1.9440 N.ar   69  TRP69      -0.2442
     74  CE2       -5.5600   -9.6650    0.5940 C.ar   69  TRP69       0.0810
     75  CE3       -4.7070   -8.4710   -1.3380 C.ar   69  TRP69       0.0012
     76  CZ2       -5.8960  -10.7630   -0.1590 C.ar   69  TRP69       0.0191
     77  CZ3       -5.0800   -9.5890   -2.1110 C.ar   69  TRP69       0.0001
     78  CH2       -5.6490  -10.7270   -1.4940 C.ar   69  TRP69       0.0015
     79  N         -8.6490   -3.1520   -7.8850 N.3   106  ASN106     -0.1225
     80  CA        -7.2150   -3.0520   -7.6800 C.3   106  ASN106      0.1785
     81  C         -6.9430   -1.6400   -7.1860 C.2   106  ASN106      0.2597
     82  O         -7.8660   -0.8410   -7.0390 O.2   106  ASN106     -0.2718
     83  CB        -6.4990   -3.4260   -8.9870 C.3   106  ASN106      0.1169
     84  CG        -5.0440   -3.7150   -8.8180 C.2   106  ASN106      0.2627
     85  OD1       -4.5200   -3.8670   -7.7140 O.2   106  ASN106     -0.2716
     86  ND2       -4.3590   -3.8210   -9.9520 N.am  106  ASN106     -0.0877
     87  N         -5.6610   -1.3250   -6.9240 N.am  107  ALA107     -0.1966
     88  CA        -5.2630   -0.0200   -6.4120 C.3   107  ALA107      0.1728
     89  C         -4.1150    0.5330   -7.2390 C.2   107  ALA107      0.2616
     90  O         -3.2460   -0.2110   -7.7090 O.2   107  ALA107     -0.2715
     91  CB        -4.7610   -0.1310   -4.9540 C.3   107  ALA107      0.0334
     92  N         -4.0910    1.8580   -7.3850 N.am  108  CYS108     -0.1954
     93  CA        -2.9710    2.5830   -7.9710 C.3   108  CYS108      0.1828
     94  C         -2.2200    3.2750   -6.8470 C.2   108  CYS108      0.2467
     95  O         -2.6810    4.3180   -6.3370 O.2   108  CYS108     -0.2730
     96  CB        -3.5420    3.6170   -8.9370 C.3   108  CYS108      0.0996
     97  SG        -2.1750    4.5250   -9.8090 S.3   108  CYS108     -0.0797
     98  N         -1.0930    2.7120   -6.4000 N.am  109  PRO109     -0.2726
     99  CA        -0.4220    3.2750   -5.2140 C.3   109  PRO109      0.1402
    100  C          0.2750    4.5910   -5.5360 C.2   109  PRO109      0.2269
    101  O          0.6780    4.8510   -6.6700 O.2   109  PRO109     -0.2865
    102  CB         0.6140    2.2050   -4.8570 C.3   109  PRO109      0.0296
    103  CG         0.8410    1.4690   -6.1560 C.3   109  PRO109      0.0237
    104  CD        -0.4280    1.4990   -6.9230 C.3   109  PRO109      0.0939
    105  N          3.6640    6.0760   -8.8660 N.3   113  ASN113     -0.1240
    106  CA         2.6260    6.6720   -9.7110 C.3   113  ASN113      0.1653
    107  C          2.3260    8.0750   -9.2310 C.2   113  ASN113      0.2266
    108  O          1.1780    8.4720   -9.0670 O.2   113  ASN113     -0.2867
    109  CB         1.3550    5.8220   -9.6750 C.3   113  ASN113      0.1155
    110  CG         1.6070    4.4210  -10.1740 C.2   113  ASN113      0.2627
    111  OD1        1.7280    4.1860  -11.3670 O.2   113  ASN113     -0.2716
    112  ND2        1.6730    3.4880   -9.2600 N.am  113  ASN113     -0.0877
@<TRIPOS>BOND
     1     4     3    2
     2     1     2    1
     3     3     2    1
     4     2     5    1
     5    13    14    1
     6     5     6    1
     7    14    15    1
     8    14    17    1
     9    15    16    2
    10     6     7   ar
    11     6     8   ar
    12     7     9   ar
    13     8    10   ar
    14    17    18    1
    15     9    11   ar
    16    10    11   ar
    17    11    12    1
    18    18    19   ar
    19    18    20   ar
    20    21    22    1
    21    24    23    2
    22   111   110    2
    23    22    23    1
    24    22    25    1
    25    23    31   am
    26    28    30   ar
    27    28    26   ar
    28    30    29   ar
    29    26    25    1
    30    26    27   ar
    31    29    27   ar
    32    52    51    2
    33   110   109    1
    34   110   112   am
    35    86    84   am
    36    31    32    1
    37    97    96    1
    38   106   109    1
    39   106   107    1
    40   106   105    1
    41    51    50    1
    42    56    54   ar
    43    32    33    1
    44    32    35    1
    45   107   108    2
    46    34    33    2
    47    83    84    1
    48    83    80    1
    49    96    93    1
    50    33    40   am
    51    84    85    2
    52    54    55   ar
    53    54    53    1
    54    53    50    1
    55    35    36    1
    56    50    49    1
    57    40    41    1
    58    93    92    1
    59    93    94    1
    60    79    80    1
    61    90    89    2
    62    41    42    1
    63    80    81    1
    64    92    89   am
    65    36    37    1
    66    89    88    1
    67    81    82    2
    68    81    87   am
    69    87    88    1
    70   104    98    1
    71   104   103    1
    72    94    98   am
    73    94    95    2
    74   101   100    2
    75    37    38    1
    76    88    91    1
    77    98    99    1
    78    42    44   am
    79    42    43    2
    80   103   102    1
    81    44    45    1
    82   100    99    1
    83    38    39    1
    84    99   102    1
    85    45    48    1
    86    45    46    1
    87    46    47    2
    88    77    78   ar
    89    77    75   ar
    90    64    62    1
    91    78    76   ar
    92    60    59    2
    93    63    62    1
    94    75    72   ar
    95    62    61    1
    96    61    58    1
    97    59    58    1
    98    59    65   am
    99    58    57    1
   100    76    74   ar
   101    72    74   ar
   102    72    70   ar
   103    66    65    1
   104    66    67    1
   105    66    69    1
   106    74    73   ar
   107    67    68    2
   108    69    70    1
   109    70    71   ar
   110    73    71   ar
