@<TRIPOS>MOLECULE
tmp/5xc8A01.pdb
 125 121 0 0 0
SMALL
GASTEIGER

@<TRIPOS>ATOM
      1  N         -6.1100    6.7640  -16.7950 N.3    24  THR24      -0.1203
      2  CA        -5.0320    6.1880  -17.5820 C.3    24  THR24       0.1994
      3  C         -5.4240    4.7430  -17.8570 C.2    24  THR24       0.2618
      4  O         -6.4960    4.2950  -17.4640 O.2    24  THR24      -0.2717
      5  CB        -3.6690    6.2230  -16.8540 C.3    24  THR24       0.1784
      6  OG1       -3.8020    5.7590  -15.5170 O.3    24  THR24      -0.2211
      7  CG2       -3.0590    7.6480  -16.8190 C.3    24  THR24       0.0376
      8  N         -4.5630    3.9990  -18.5530 N.am   25  ARG25      -0.1965
      9  CA        -4.7820    2.5690  -18.7750 C.3    25  ARG25       0.1729
     10  C         -3.5400    1.8020  -18.3590 C.2    25  ARG25       0.2616
     11  O         -2.4400    2.3280  -18.4030 O.2    25  ARG25      -0.2715
     12  CB        -5.1330    2.2810  -20.2370 C.3    25  ARG25       0.0348
     13  CG        -4.0780    2.7750  -21.1800 C.3    25  ARG25       0.0492
     14  CD        -4.6050    2.7830  -22.6390 C.3    25  ARG25       0.2205
     15  NE        -3.6090    3.2880  -23.5730 N.pl3  25  ARG25      -0.0865
     16  CZ        -3.4160    4.5770  -23.8610 C.cat  25  ARG25       0.5346
     17  NH1       -4.1500    5.5070  -23.2800 N.pl3  25  ARG25       0.1354
     18  NH2       -2.4890    4.9570  -24.7540 N.pl3  25  ARG25       0.1354
     19  N         -3.7340    0.5680  -17.8990 N.am   26  TYR26      -0.1960
     20  CA        -2.6030   -0.2260  -17.4280 C.3    26  TYR26       0.1771
     21  C         -2.7680   -1.6850  -17.8110 C.2    26  TYR26       0.2619
     22  O         -3.8780   -2.1850  -17.9900 O.2    26  TYR26      -0.2715
     23  CB        -2.4330   -0.1280  -15.8990 C.3    26  TYR26       0.0574
     24  CG        -3.3900   -0.9560  -15.0460 C.ar   26  TYR26      -0.0198
     25  CD1       -4.6880   -0.5320  -14.7450 C.ar   26  TYR26      -0.0009
     26  CD2       -2.9350   -2.1140  -14.4480 C.ar   26  TYR26      -0.0009
     27  CE1       -5.5270   -1.2720  -13.8980 C.ar   26  TYR26       0.0417
     28  CE2       -3.7570   -2.8710  -13.5990 C.ar   26  TYR26       0.0417
     29  CZ        -5.0480   -2.4500  -13.3200 C.ar   26  TYR26       0.1957
     30  OH        -5.8160   -3.1900  -12.4420 O.3    26  TYR26      -0.2866
     31  N         -1.6300   -2.3750  -17.9040 N.am   27  VAL27      -0.1977
     32  CA        -1.5900   -3.8200  -18.1070 C.3    27  VAL27       0.1596
     33  C         -0.4900   -4.3460  -17.1900 C.2    27  VAL27       0.2287
     34  O          0.6530   -3.8770  -17.2690 O.2    27  VAL27      -0.2864
     35  CB        -1.2480   -4.1790  -19.5700 C.3    27  VAL27       0.0276
     36  CG1       -1.1120   -5.6600  -19.6910 C.3    27  VAL27       0.0022
     37  CG2       -2.3090   -3.6980  -20.5350 C.3    27  VAL27       0.0022
     38  N         -0.6880   16.3350  -24.5080 N.3    89  GLY89      -0.1210
     39  CA         0.4690   15.4850  -24.5930 C.3    89  GLY89       0.1956
     40  C          0.3110   14.1510  -23.9320 C.2    89  GLY89       0.2611
     41  O          1.1790   13.2800  -24.1050 O.2    89  GLY89      -0.2717
     42  N         -0.7700   13.9470  -23.1840 N.am   90  LYS90      -0.1979
     43  CA        -0.9670   12.7350  -22.4060 C.3    90  LYS90       0.1596
     44  C         -2.3960   12.2440  -22.5550 C.2    90  LYS90       0.2287
     45  O         -2.9930   11.7350  -21.6020 O.2    90  LYS90      -0.2864
     46  CB        -0.6410   12.9830  -20.9300 C.3    90  LYS90       0.0298
     47  CG         0.8290   13.3780  -20.7660 C.3    90  LYS90       0.0038
     48  CD         1.1610   13.7480  -19.3920 C.3    90  LYS90       0.0206
     49  CE         2.6930   13.8210  -19.2580 C.3    90  LYS90       0.1093
     50  NZ         3.1660   14.4500  -18.0230 N.3    90  LYS90      -0.1314
     51  N         -4.0910    1.8580   -7.3850 N.3   108  CYS108     -0.1235
     52  CA        -2.9710    2.5830   -7.9710 C.3   108  CYS108      0.1677
     53  C         -2.2200    3.2750   -6.8470 C.2   108  CYS108      0.2270
     54  O         -2.6810    4.3180   -6.3370 O.2   108  CYS108     -0.2867
     55  CB        -3.5420    3.6170   -8.9370 C.3   108  CYS108      0.0956
     56  SG        -2.1750    4.5250   -9.8090 S.3   108  CYS108     -0.0801
     57  N          5.5130    5.1530   -7.0250 N.3   112  GLY112     -0.1210
     58  CA         5.7080    4.7740   -8.4240 C.3   112  GLY112      0.1956
     59  C          4.6890    5.3740   -9.3780 C.2   112  GLY112      0.2611
     60  O          4.8330    5.1820  -10.6060 O.2   112  GLY112     -0.2717
     61  N          3.6640    6.0760   -8.8660 N.am  113  ASN113     -0.1974
     62  CA         2.6260    6.6720   -9.7110 C.3   113  ASN113      0.1688
     63  C          2.3260    8.0750   -9.2310 C.2   113  ASN113      0.2292
     64  O          1.1780    8.4720   -9.0670 O.2   113  ASN113     -0.2864
     65  CB         1.3550    5.8220   -9.6750 C.3   113  ASN113      0.1181
     66  CG         1.6070    4.4210  -10.1740 C.2   113  ASN113      0.2629
     67  OD1        1.7280    4.1860  -11.3670 O.2   113  ASN113     -0.2716
     68  ND2        1.6730    3.4880   -9.2600 N.am  113  ASN113     -0.0877
     69  N          2.5990   11.1450  -10.4660 N.3   115  GLU115     -0.1231
     70  CA         1.9470   12.1420  -11.3140 C.3   115  GLU115      0.1699
     71  C          0.4350   12.0080  -11.2790 C.2   115  GLU115      0.2592
     72  O         -0.2900   13.0040  -11.1770 O.2   115  GLU115     -0.2718
     73  CB         2.4070   11.9330  -12.7490 C.3   115  GLU115      0.0402
     74  CG         1.6600   12.8240  -13.7410 C.3   115  GLU115      0.1161
     75  CD         2.1730   12.7350  -15.1790 C.2   115  GLU115      0.3649
     76  OE1        1.6470   13.5050  -16.0130 O.co2 115  GLU115     -0.2457
     77  OE2        3.1200   11.9450  -15.4480 O.co2 115  GLU115     -0.2457
     78  N         -0.0710   10.7810  -11.4160 N.am  116  TRP116     -0.1976
     79  CA        -1.5090   10.5910  -11.5120 C.3   116  TRP116      0.1640
     80  C         -2.1470   10.1420  -10.2120 C.2   116  TRP116      0.2290
     81  O         -3.2590   10.5760   -9.8980 O.2   116  TRP116     -0.2864
     82  CB        -1.8020    9.5210  -12.5590 C.3   116  TRP116      0.0576
     83  CG        -1.3510    9.8840  -13.9610 C.ar  116  TRP116      0.0006
     84  CD1       -0.2650    9.3680  -14.6240 C.ar  116  TRP116      0.0946
     85  CD2       -1.9640   10.8260  -14.8670 C.ar  116  TRP116      0.0152
     86  NE1       -0.1760    9.9250  -15.8800 N.ar  116  TRP116     -0.2442
     87  CE2       -1.2070   10.8090  -16.0560 C.ar  116  TRP116      0.0810
     88  CE3       -3.0860   11.6580  -14.7910 C.ar  116  TRP116      0.0012
     89  CZ2       -1.5470   11.5910  -17.1550 C.ar  116  TRP116      0.0191
     90  CZ3       -3.4160   12.4230  -15.8710 C.ar  116  TRP116      0.0001
     91  CH2       -2.6600   12.3720  -17.0470 C.ar  116  TRP116      0.0015
     92  N         -8.0660    9.6180   -9.3120 N.3   136  HIS136     -0.1241
     93  CA        -7.5780    9.0890  -10.5820 C.3   136  HIS136      0.1621
     94  C         -8.0710    7.6580  -10.7300 C.2   136  HIS136      0.2264
     95  O         -8.0350    6.8860   -9.7770 O.2   136  HIS136     -0.2867
     96  CB        -6.0460    9.0810  -10.5880 C.3   136  HIS136      0.0745
     97  CG        -5.4950    8.6500  -11.8980 C.ar  136  HIS136      0.0817
     98  ND1       -5.4480    9.5060  -12.9830 N.ar  136  HIS136     -0.2268
     99  CD2       -5.0450    7.4520  -12.3380 C.ar  136  HIS136      0.1154
    100  CE1       -4.9960    8.8540  -14.0370 C.ar  136  HIS136      0.1986
    101  NE2       -4.7310    7.6030  -13.6740 N.ar  136  HIS136     -0.2212
    102  N         -7.1920    4.2600  -12.9180 N.3   138  ASP138     -0.1239
    103  CA        -6.3410    3.5420  -13.8780 C.3   138  ASP138      0.1674
    104  C         -7.2030    2.3920  -14.3780 C.2   138  ASP138      0.2266
    105  O         -7.7350    1.6170  -13.5830 O.2   138  ASP138     -0.2867
    106  CB        -5.0870    3.0800  -13.1410 C.3   138  ASP138      0.1410
    107  CG        -3.9100    2.7990  -14.0360 C.2   138  ASP138      0.3668
    108  OD1       -3.9450    3.1240  -15.2250 O.co2 138  ASP138     -0.2456
    109  OD2       -2.9190    2.2310  -13.5230 O.co2 138  ASP138     -0.2456
    110  N         -8.3310    7.5020  -24.7880 N.3   152  ASP152     -0.1225
    111  CA        -6.9040    7.7530  -24.5850 C.3   152  ASP152      0.1805
    112  C         -6.8100    8.7600  -23.4410 C.2   152  ASP152      0.2597
    113  O         -6.8250    9.9800  -23.6350 O.2   152  ASP152     -0.2718
    114  CB        -6.2790    8.2820  -25.8630 C.3   152  ASP152      0.1424
    115  CG        -4.7920    8.5030  -25.7480 C.2   152  ASP152      0.3668
    116  OD1       -4.1890    8.0710  -24.7530 O.co2 152  ASP152     -0.2456
    117  OD2       -4.2220    9.1130  -26.6830 O.co2 152  ASP152     -0.2456
    118  N         -6.7370    8.2160  -22.2350 N.am  153  ASN153     -0.1974
    119  CA        -6.6570    8.9970  -21.0050 C.3   153  ASN153      0.1688
    120  C         -7.6560   10.1580  -20.9290 C.2   153  ASN153      0.2292
    121  O         -7.2710   11.2720  -20.5760 O.2   153  ASN153     -0.2864
    122  CB        -5.2530    9.5400  -20.7670 C.3   153  ASN153      0.1181
    123  CG        -4.1660    8.4740  -20.7760 C.2   153  ASN153      0.2629
    124  OD1       -4.3880    7.2930  -20.6510 O.2   153  ASN153     -0.2716
    125  ND2       -2.9400    8.9610  -20.8810 N.am  153  ASN153     -0.0877
@<TRIPOS>BOND
     1   117   115   ar
     2   114   115    1
     3   114   111    1
     4   115   116   ar
     5   110   111    1
     6    18    16    1
     7    39    38    1
     8    39    40    1
     9   111   112    1
    10    41    40    2
    11    40    42   am
    12    16    15    2
    13    16    17    1
    14   113   112    2
    15    15    14    1
    16   112   118   am
    17    42    43    1
    18    14    13    1
    19    44    43    1
    20    44    45    2
    21    43    46    1
    22   118   119    1
    23    13    12    1
    24   119   120    1
    25   119   122    1
    26    46    47    1
    27   120   121    2
    28   125   123   am
    29   123   122    1
    30   123   124    2
    31    47    48    1
    32    37    35    1
    33    12     9    1
    34    36    35    1
    35    35    32    1
    36    48    49    1
    37    49    50    1
    38     9     8    1
    39     9    10    1
    40     8     3   am
    41    11    10    2
    42    10    19   am
    43    32    31    1
    44    32    33    1
    45    22    21    2
    46    31    21   am
    47    19    20    1
    48     3     2    1
    49     3     4    2
    50    21    20    1
    51     2     5    1
    52     2     1    1
    53    20    23    1
    54    34    33    2
    55    89    91   ar
    56    89    87   ar
    57    91    90   ar
    58     5     7    1
    59     5     6    1
    60    87    86   ar
    61    87    85   ar
    62    76    75   ar
    63    23    24    1
    64    86    84   ar
    65    90    88   ar
    66    77    75   ar
    67   108   107   ar
    68    75    74    1
    69    24    25   ar
    70    24    26   ar
    71    85    88   ar
    72    85    83   ar
    73    25    27   ar
    74    84    83   ar
    75    26    28   ar
    76   104   103    1
    77   104   105    2
    78   100   101   ar
    79   100    98   ar
    80   107   109   ar
    81   107   106    1
    82    83    82    1
    83    27    29   ar
    84   103   106    1
    85   103   102    1
    86    74    73    1
    87   101    99   ar
    88    28    29   ar
    89    29    30    1
    90    98    97   ar
    91    73    70    1
    92    82    79    1
    93    99    97   ar
    94    97    96    1
    95    79    78    1
    96    79    80    1
    97    78    71   am
    98    67    66    2
    99    70    71    1
   100    70    69    1
   101    71    72    2
   102    94    93    1
   103    94    95    2
   104    60    59    2
   105    96    93    1
   106    93    92    1
   107    80    81    2
   108    66    65    1
   109    66    68   am
   110    56    55    1
   111    62    65    1
   112    62    63    1
   113    62    61    1
   114    59    61   am
   115    59    58    1
   116    63    64    2
   117    55    52    1
   118    58    57    1
   119    52    51    1
   120    52    53    1
   121    53    54    2
