@<TRIPOS>MOLECULE
tmp/5xczA02.pdb
 111 107 0 0 0
SMALL
GASTEIGER

@<TRIPOS>ATOM
      1  N         10.1350  -11.5690   -9.8890 N.3    48  TRP48      -0.1241
      2  CA        11.1160  -10.6620   -9.2990 C.3    48  TRP48       0.1605
      3  C         10.9840  -10.6050   -7.7770 C.2    48  TRP48       0.2264
      4  O          9.9380  -10.2170   -7.2390 O.2    48  TRP48      -0.2867
      5  CB        10.9740   -9.2670   -9.9110 C.3    48  TRP48       0.0550
      6  CG        11.4190   -9.2200  -11.3490 C.ar   48  TRP48       0.0003
      7  CD1       10.9230   -9.9580  -12.3850 C.ar   48  TRP48       0.0946
      8  CD2       12.4490   -8.3950  -11.9020 C.ar   48  TRP48       0.0152
      9  NE1       11.5810   -9.6400  -13.5490 N.ar   48  TRP48      -0.2442
     10  CE2       12.5210   -8.6820  -13.2800 C.ar   48  TRP48       0.0810
     11  CE3       13.3100   -7.4300  -11.3670 C.ar   48  TRP48       0.0012
     12  CZ2       13.4200   -8.0420  -14.1330 C.ar   48  TRP48       0.0191
     13  CZ3       14.2020   -6.7910  -12.2140 C.ar   48  TRP48       0.0001
     14  CH2       14.2510   -7.1060  -13.5900 C.ar   48  TRP48       0.0015
     15  N         16.8260   -8.8470   -6.8990 N.3    83  TYR83      -0.1241
     16  CA        16.7890   -7.4170   -7.2870 C.3    83  TYR83       0.1605
     17  C         16.3860   -6.5580   -6.0900 C.2    83  TYR83       0.2264
     18  O         15.2910   -5.9990   -6.0220 O.2    83  TYR83      -0.2867
     19  CB        15.8280   -7.1700   -8.4510 C.3    83  TYR83       0.0534
     20  CG        15.8630   -5.7660   -9.0300 C.ar   83  TYR83      -0.0201
     21  CD1       17.0230   -5.2560   -9.6240 C.ar   83  TYR83      -0.0009
     22  CD2       14.7230   -4.9580   -9.0140 C.ar   83  TYR83      -0.0009
     23  CE1       17.0460   -3.9690  -10.1830 C.ar   83  TYR83       0.0417
     24  CE2       14.7320   -3.6850   -9.5600 C.ar   83  TYR83       0.0417
     25  CZ        15.9000   -3.1950  -10.1460 C.ar   83  TYR83       0.1957
     26  OH        15.9140   -1.9310  -10.6880 O.3    83  TYR83      -0.2866
     27  N         19.4940    0.7010   -8.4570 N.3    89  ASP89      -0.1239
     28  CA        19.2760    1.6080   -9.5900 C.3    89  ASP89       0.1674
     29  C         20.0920    2.8950   -9.4190 C.2    89  ASP89       0.2266
     30  O         19.5570    3.9940   -9.3520 O.2    89  ASP89      -0.2867
     31  CB        17.7780    1.9030   -9.7600 C.3    89  ASP89       0.1410
     32  CG        17.3540    2.0820  -11.2400 C.2    89  ASP89       0.3668
     33  OD1       18.0610    1.5960  -12.1550 O.co2  89  ASP89      -0.2456
     34  OD2       16.2920    2.7060  -11.4800 O.co2  89  ASP89      -0.2456
     35  N         13.9590    5.6610  -11.3470 N.3    94  ALA94      -0.1231
     36  CA        12.6430    5.0310  -11.4380 C.3    94  ALA94       0.1694
     37  C         12.5110    3.7980  -10.5470 C.2    94  ALA94       0.2592
     38  O         11.4210    3.5290  -10.0240 O.2    94  ALA94      -0.2718
     39  CB        12.3400    4.6590  -12.8920 C.3    94  ALA94       0.0304
     40  N         13.5830    3.0340  -10.3570 N.am   95  SER95      -0.1952
     41  CA        13.4730    1.7690   -9.6420 C.3    95  SER95       0.1924
     42  C         14.2830    1.7590   -8.3500 C.2    95  SER95       0.2314
     43  O         14.7470    0.7000   -7.9170 O.2    95  SER95      -0.2863
     44  CB        13.8980    0.6090  -10.5370 C.3    95  SER95       0.2116
     45  OG        13.2020   -0.5780  -10.1890 O.3    95  SER95      -0.2180
     46  N         19.7510   -7.1580  -11.7300 N.3   134  PRO134     -0.2102
     47  CA        19.7620   -6.3660  -12.9640 C.3   134  PRO134      0.1504
     48  C         20.3380   -4.9710  -12.7550 C.2   134  PRO134      0.2575
     49  O         20.1000   -4.3260  -11.7300 O.2   134  PRO134     -0.2718
     50  CB        18.2820   -6.3220  -13.3610 C.3   134  PRO134      0.0282
     51  CG        17.7720   -7.6880  -12.9270 C.3   134  PRO134      0.0208
     52  CD        18.5210   -7.9680  -11.5970 C.3   134  PRO134      0.0893
     53  N         21.1700   -4.5600  -13.7200 N.am  135  ASP135     -0.1974
     54  CA        21.7520   -3.2230  -13.8820 C.3   135  ASP135      0.1708
     55  C         22.9880   -2.9660  -13.0260 C.2   135  ASP135      0.2293
     56  O         23.7810   -2.0680  -13.3340 O.2   135  ASP135     -0.2864
     57  CB        20.7070   -2.1460  -13.6100 C.3   135  ASP135      0.1436
     58  CG        19.5460   -2.2220  -14.5740 C.2   135  ASP135      0.3671
     59  OD1       19.7300   -2.7690  -15.6900 O.co2 135  ASP135     -0.2456
     60  OD2       18.4520   -1.7580  -14.2080 O.co2 135  ASP135     -0.2456
     61  N         14.6450   -6.3860  -19.2060 N.3   218  ALA218     -0.1245
     62  CA        13.8100   -5.1950  -19.1410 C.3   218  ALA218      0.1562
     63  C         14.1350   -4.2090  -20.2500 C.2   218  ALA218      0.2260
     64  O         13.7860   -3.0300  -20.1590 O.2   218  ALA218     -0.2867
     65  CB        13.9100   -4.5010  -17.7810 C.3   218  ALA218      0.0290
     66  N         14.7700    3.6650  -22.0740 N.3   279  TRP279     -0.1241
     67  CA        14.4310    2.3510  -21.5540 C.3   279  TRP279      0.1605
     68  C         13.0730    2.2720  -20.8760 C.2   279  TRP279      0.2264
     69  O         12.6460    1.1660  -20.5250 O.2   279  TRP279     -0.2867
     70  CB        15.4980    1.8960  -20.5470 C.3   279  TRP279      0.0550
     71  CG        15.8630    2.9520  -19.5650 C.ar  279  TRP279      0.0003
     72  CD1       16.9140    3.8210  -19.6460 C.ar  279  TRP279      0.0946
     73  CD2       15.1730    3.2640  -18.3370 C.ar  279  TRP279      0.0152
     74  NE1       16.9170    4.6580  -18.5430 N.ar  279  TRP279     -0.2442
     75  CE2       15.8610    4.3310  -17.7290 C.ar  279  TRP279      0.0810
     76  CE3       14.0460    2.7350  -17.6930 C.ar  279  TRP279      0.0012
     77  CZ2       15.4650    4.8750  -16.5030 C.ar  279  TRP279      0.0191
     78  CZ3       13.6540    3.2820  -16.4680 C.ar  279  TRP279      0.0001
     79  CH2       14.3610    4.3400  -15.8960 C.ar  279  TRP279      0.0015
     80  N         11.7400   -9.5450  -17.6210 N.3   307  LYS307     -0.1245
     81  CA        10.8850   -8.4420  -17.1850 C.3   307  LYS307      0.1561
     82  C          9.4530   -8.7930  -17.5460 C.2   307  LYS307      0.2260
     83  O          9.1770   -9.0730  -18.7170 O.2   307  LYS307     -0.2867
     84  CB        11.2940   -7.1110  -17.8330 C.3   307  LYS307      0.0271
     85  CG        10.2690   -5.9660  -17.6860 C.3   307  LYS307      0.0035
     86  CD        10.2380   -5.3700  -16.2610 C.3   307  LYS307      0.0206
     87  CE         9.0720   -4.3860  -16.1200 C.3   307  LYS307      0.1093
     88  NZ         9.2340   -3.4150  -15.0140 N.3   307  LYS307     -0.1314
     89  N          4.9250   -1.8750  -14.7100 N.3   312  CYS312     -0.1221
     90  CA         5.4470   -0.5900  -15.1440 C.3   312  CYS312      0.1808
     91  C          6.9500   -0.4940  -14.9050 C.2   312  CYS312      0.2601
     92  O          7.5040   -1.1370  -14.0120 O.2   312  CYS312     -0.2717
     93  CB         4.7180    0.5530  -14.4330 C.3   312  CYS312      0.0970
     94  SG         5.0370    2.1370  -15.2330 S.3   312  CYS312     -0.0800
     95  N          7.6140    0.3110  -15.7410 N.am  313  ASP313     -0.1973
     96  CA         9.0430    0.5730  -15.6030 C.3   313  ASP313      0.1709
     97  C          9.3370    1.7710  -14.7330 C.2   313  ASP313      0.2293
     98  O         10.4740    1.9170  -14.2850 O.2   313  ASP313     -0.2864
     99  CB         9.7070    0.8400  -16.9580 C.3   313  ASP313      0.1436
    100  CG         9.6230   -0.3310  -17.8890 C.2   313  ASP313      0.3671
    101  OD1        9.5670   -1.4800  -17.3910 O.co2 313  ASP313     -0.2456
    102  OD2        9.6170   -0.0920  -19.1170 O.co2 313  ASP313     -0.2456
    103  N          6.8810    2.2260  -10.8580 N.3   339  ALA339     -0.1231
    104  CA         7.5640    1.0530  -11.3920 C.3   339  ALA339      0.1694
    105  C          7.1800   -0.1820  -10.5930 C.2   339  ALA339      0.2592
    106  O          6.9980   -0.1180   -9.3780 O.2   339  ALA339     -0.2718
    107  CB         9.0790    1.2470  -11.3560 C.3   339  ALA339      0.0304
    108  N          7.0320   -1.3090  -11.2810 N.am  340  GLY340     -0.1957
    109  CA         6.5710   -2.5200  -10.6350 C.3   340  GLY340      0.1869
    110  C          5.0670   -2.6590  -10.5130 C.2   340  GLY340      0.2309
    111  O          4.5840   -3.7690  -10.2670 O.2   340  GLY340     -0.2863
@<TRIPOS>BOND
     1    66    67    1
     2    67    68    1
     3    67    70    1
     4    68    69    2
     5    70    71    1
     6    63    64    2
     7    63    62    1
     8    72    71   ar
     9    72    74   ar
    10    71    73   ar
    11    61    62    1
    12    62    65    1
    13   102   100   ar
    14    83    82    2
    15    74    75   ar
    16    73    75   ar
    17    73    76   ar
    18   100   101   ar
    19   100    99    1
    20    84    85    1
    21    84    81    1
    22    75    77   ar
    23    76    78   ar
    24    85    86    1
    25    80    81    1
    26    82    81    1
    27    99    96    1
    28    77    79   ar
    29    78    79   ar
    30    86    87    1
    31    87    88    1
    32    95    96    1
    33    95    91   am
    34    59    58   ar
    35    96    97    1
    36    94    93    1
    37    90    91    1
    38    90    89    1
    39    90    93    1
    40    91    92    2
    41    97    98    2
    42    58    60   ar
    43    58    57    1
    44    12    14   ar
    45    12    10   ar
    46    54    53    1
    47    54    57    1
    48    54    55    1
    49    53    48   am
    50    14    13   ar
    51     9    10   ar
    52     9     7   ar
    53    50    47    1
    54    50    51    1
    55    56    55    2
    56    10     8   ar
    57    47    48    1
    58    47    46    1
    59    51    52    1
    60    39    36    1
    61    48    49    2
    62     7     6   ar
    63    13    11   ar
    64    33    32   ar
    65     8    11   ar
    66     8     6   ar
    67    46    52    1
    68    34    32   ar
    69    36    35    1
    70    36    37    1
    71   104   107    1
    72   104   103    1
    73   104   105    1
    74     6     5    1
    75   108   109    1
    76   108   105   am
    77    32    31    1
    78    26    25    1
    79   109   110    1
    80   105   106    2
    81    37    40   am
    82    37    38    2
    83    44    45    1
    84    44    41    1
    85   110   111    2
    86    40    41    1
    87    23    25   ar
    88    23    21   ar
    89    25    24   ar
    90     5     2    1
    91     1     2    1
    92    31    28    1
    93    41    42    1
    94    21    20   ar
    95    28    29    1
    96    28    27    1
    97    24    22   ar
    98    29    30    2
    99     2     3    1
   100    20    22   ar
   101    20    19    1
   102    19    16    1
   103    42    43    2
   104     3     4    2
   105    16    15    1
   106    16    17    1
   107    17    18    2
