@<TRIPOS>MOLECULE
tmp/5xczA01.pdb
 118 113 0 0 0
SMALL
GASTEIGER

@<TRIPOS>ATOM
      1  N         16.8260   -8.8470   -6.8990 N.3    83  TYR83      -0.1241
      2  CA        16.7890   -7.4170   -7.2870 C.3    83  TYR83       0.1605
      3  C         16.3860   -6.5580   -6.0900 C.2    83  TYR83       0.2264
      4  O         15.2910   -5.9990   -6.0220 O.2    83  TYR83      -0.2867
      5  CB        15.8280   -7.1700   -8.4510 C.3    83  TYR83       0.0534
      6  CG        15.8630   -5.7660   -9.0300 C.ar   83  TYR83      -0.0201
      7  CD1       17.0230   -5.2560   -9.6240 C.ar   83  TYR83      -0.0009
      8  CD2       14.7230   -4.9580   -9.0140 C.ar   83  TYR83      -0.0009
      9  CE1       17.0460   -3.9690  -10.1830 C.ar   83  TYR83       0.0417
     10  CE2       14.7320   -3.6850   -9.5600 C.ar   83  TYR83       0.0417
     11  CZ        15.9000   -3.1950  -10.1460 C.ar   83  TYR83       0.1957
     12  OH        15.9140   -1.9310  -10.6880 O.3    83  TYR83      -0.2866
     13  N         19.4940    0.7010   -8.4570 N.3    89  ASP89      -0.1239
     14  CA        19.2760    1.6080   -9.5900 C.3    89  ASP89       0.1674
     15  C         20.0920    2.8950   -9.4190 C.2    89  ASP89       0.2266
     16  O         19.5570    3.9940   -9.3520 O.2    89  ASP89      -0.2867
     17  CB        17.7780    1.9030   -9.7600 C.3    89  ASP89       0.1410
     18  CG        17.3540    2.0820  -11.2400 C.2    89  ASP89       0.3668
     19  OD1       18.0610    1.5960  -12.1550 O.co2  89  ASP89      -0.2456
     20  OD2       16.2920    2.7060  -11.4800 O.co2  89  ASP89      -0.2456
     21  N         22.0620    4.6630  -11.3070 N.3    91  ALA91      -0.1231
     22  CA        22.2210    5.6910  -12.3340 C.3    91  ALA91       0.1694
     23  C         20.8880    6.1900  -12.8760 C.2    91  ALA91       0.2591
     24  O         20.8700    6.9530  -13.8430 O.2    91  ALA91      -0.2718
     25  CB        23.1070    5.1840  -13.4700 C.3    91  ALA91       0.0304
     26  N         19.7750    5.7840  -12.2670 N.am   92  ALA92      -0.1980
     27  CA        18.4490    6.2700  -12.6050 C.3    92  ALA92       0.1597
     28  C         17.7020    6.5210  -11.3060 C.2    92  ALA92       0.2287
     29  O         18.2450    6.3300  -10.2180 O.2    92  ALA92      -0.2864
     30  CB        17.6950    5.2730  -13.4860 C.3    92  ALA92       0.0319
     31  N         13.5830    3.0340  -10.3570 N.3    95  SER95      -0.1217
     32  CA        13.4730    1.7690   -9.6420 C.3    95  SER95       0.1889
     33  C         14.2830    1.7590   -8.3500 C.2    95  SER95       0.2288
     34  O         14.7470    0.7000   -7.9170 O.2    95  SER95      -0.2866
     35  CB        13.8980    0.6090  -10.5370 C.3    95  SER95       0.2089
     36  OG        13.2020   -0.5780  -10.1890 O.3    95  SER95      -0.2183
     37  N         21.1700   -4.5600  -13.7200 N.3   135  ASP135     -0.1239
     38  CA        21.7520   -3.2230  -13.8820 C.3   135  ASP135      0.1674
     39  C         22.9880   -2.9660  -13.0260 C.2   135  ASP135      0.2266
     40  O         23.7810   -2.0680  -13.3340 O.2   135  ASP135     -0.2867
     41  CB        20.7070   -2.1460  -13.6100 C.3   135  ASP135      0.1410
     42  CG        19.5460   -2.2220  -14.5740 C.2   135  ASP135      0.3668
     43  OD1       19.7300   -2.7690  -15.6900 O.co2 135  ASP135     -0.2456
     44  OD2       18.4520   -1.7580  -14.2080 O.co2 135  ASP135     -0.2456
     45  N         26.2840   -0.9360  -14.3710 N.3   139  ASN139     -0.1240
     46  CA        26.5530    0.3900  -13.8270 C.3   139  ASN139      0.1653
     47  C         28.0040    0.5190  -13.3750 C.2   139  ASN139      0.2266
     48  O         28.6120    1.5760  -13.5380 O.2   139  ASN139     -0.2867
     49  CB        25.5830    0.6960  -12.6850 C.3   139  ASN139      0.1155
     50  CG        24.2660    1.2410  -13.2000 C.2   139  ASN139      0.2627
     51  OD1       24.2550    2.0380  -14.1390 O.2   139  ASN139     -0.2716
     52  ND2       23.1530    0.7870  -12.6250 N.am  139  ASN139     -0.0877
     53  N         29.3920    3.5560  -15.3630 N.3   143  ASN143     -0.1240
     54  CA        28.7930    4.6300  -14.5770 C.3   143  ASN143      0.1653
     55  C         29.5540    4.8770  -13.2720 C.2   143  ASN143      0.2266
     56  O         28.9620    5.2790  -12.2670 O.2   143  ASN143     -0.2867
     57  CB        27.3170    4.3280  -14.2970 C.3   143  ASN143      0.1155
     58  CG        26.4120    4.6320  -15.5030 C.2   143  ASN143      0.2627
     59  OD1       26.5990    5.6320  -16.1860 O.2   143  ASN143     -0.2716
     60  ND2       25.4140    3.7820  -15.7380 N.am  143  ASN143     -0.0877
     61  N         23.0130   -4.9910  -21.8540 N.3   180  HIS180     -0.1241
     62  CA        22.5000   -5.2900  -23.1910 C.3   180  HIS180      0.1621
     63  C         23.4540   -4.6960  -24.2220 C.2   180  HIS180      0.2264
     64  O         24.4440   -4.0520  -23.8730 O.2   180  HIS180     -0.2867
     65  CB        21.0750   -4.7620  -23.3820 C.3   180  HIS180      0.0745
     66  CG        20.9540   -3.2720  -23.2710 C.ar  180  HIS180      0.0817
     67  ND1       21.1490   -2.4290  -24.3420 N.ar  180  HIS180     -0.2268
     68  CD2       20.6290   -2.4770  -22.2230 C.ar  180  HIS180      0.1154
     69  CE1       20.9630   -1.1780  -23.9580 C.ar  180  HIS180      0.1986
     70  NE2       20.6440   -1.1790  -22.6770 N.ar  180  HIS180     -0.2212
     71  N         24.4800   -1.1360  -24.1380 N.3   183  TRP183     -0.1241
     72  CA        25.1540   -0.7550  -22.9010 C.3   183  TRP183      0.1605
     73  C         26.5790   -1.2790  -22.9440 C.2   183  TRP183      0.2264
     74  O         27.5080   -0.5360  -23.2870 O.2   183  TRP183     -0.2867
     75  CB        24.3990   -1.2970  -21.6710 C.3   183  TRP183      0.0550
     76  CG        24.7340   -0.5910  -20.3660 C.ar  183  TRP183      0.0003
     77  CD1       25.8020    0.2190  -20.1250 C.ar  183  TRP183      0.0946
     78  CD2       23.9880   -0.6430  -19.1350 C.ar  183  TRP183      0.0152
     79  NE1       25.7700    0.6780  -18.8290 N.ar  183  TRP183     -0.2442
     80  CE2       24.6700    0.1640  -18.1990 C.ar  183  TRP183      0.0810
     81  CE3       22.8130   -1.2890  -18.7380 C.ar  183  TRP183      0.0012
     82  CZ2       24.2190    0.3370  -16.8900 C.ar  183  TRP183      0.0191
     83  CZ3       22.3570   -1.1070  -17.4380 C.ar  183  TRP183      0.0001
     84  CH2       23.0620   -0.2960  -16.5300 C.ar  183  TRP183      0.0015
     85  N         17.7110   -7.6660  -20.1580 N.3   217  VAL217     -0.1231
     86  CA        16.6590   -7.7180  -19.1550 C.3   217  VAL217      0.1692
     87  C         15.9670   -6.3680  -19.0780 C.2   217  VAL217      0.2592
     88  O         16.6110   -5.3250  -18.8900 O.2   217  VAL217     -0.2718
     89  CB        17.2340   -8.1190  -17.7880 C.3   217  VAL217      0.0266
     90  CG1       16.1650   -7.9260  -16.7040 C.3   217  VAL217      0.0020
     91  CG2       17.7410   -9.5670  -17.8170 C.3   217  VAL217      0.0020
     92  N         14.6450   -6.3860  -19.2060 N.am  218  ALA218     -0.1966
     93  CA        13.8100   -5.1950  -19.1410 C.3   218  ALA218      0.1728
     94  C         14.1350   -4.2090  -20.2500 C.2   218  ALA218      0.2616
     95  O         13.7860   -3.0300  -20.1590 O.2   218  ALA218     -0.2715
     96  CB        13.9100   -4.5010  -17.7810 C.3   218  ALA218      0.0334
     97  N         14.8210   -4.6590  -21.2930 N.am  219  ASN219     -0.1972
     98  CA        15.0660   -3.7990  -22.4370 C.3   219  ASN219      0.1688
     99  C         14.3210   -4.3770  -23.6410 C.2   219  ASN219      0.2292
    100  O         13.4310   -5.2240  -23.4850 O.2   219  ASN219     -0.2864
    101  CB        16.5770   -3.6310  -22.6910 C.3   219  ASN219      0.1181
    102  CG        16.9080   -2.2880  -23.3460 C.2   219  ASN219      0.2629
    103  OD1       16.6990   -2.1010  -24.5550 O.2   219  ASN219     -0.2716
    104  ND2       17.3840   -1.3360  -22.5430 N.am  219  ASN219     -0.0877
    105  N         14.7700    3.6650  -22.0740 N.3   279  TRP279     -0.1241
    106  CA        14.4310    2.3510  -21.5540 C.3   279  TRP279      0.1605
    107  C         13.0730    2.2720  -20.8760 C.2   279  TRP279      0.2264
    108  O         12.6460    1.1660  -20.5250 O.2   279  TRP279     -0.2867
    109  CB        15.4980    1.8960  -20.5470 C.3   279  TRP279      0.0550
    110  CG        15.8630    2.9520  -19.5650 C.ar  279  TRP279      0.0003
    111  CD1       16.9140    3.8210  -19.6460 C.ar  279  TRP279      0.0946
    112  CD2       15.1730    3.2640  -18.3370 C.ar  279  TRP279      0.0152
    113  NE1       16.9170    4.6580  -18.5430 N.ar  279  TRP279     -0.2442
    114  CE2       15.8610    4.3310  -17.7290 C.ar  279  TRP279      0.0810
    115  CE3       14.0460    2.7350  -17.6930 C.ar  279  TRP279      0.0012
    116  CZ2       15.4650    4.8750  -16.5030 C.ar  279  TRP279      0.0191
    117  CZ3       13.6540    3.2820  -16.4680 C.ar  279  TRP279      0.0001
    118  CH2       14.3610    4.3400  -15.8960 C.ar  279  TRP279      0.0015
@<TRIPOS>BOND
     1   103   102    2
     2    67    69   ar
     3    67    66   ar
     4    63    64    2
     5    63    62    1
     6    71    72    1
     7    69    70   ar
     8    99   100    2
     9    99    98    1
    10    65    66    1
    11    65    62    1
    12   102   101    1
    13   102   104   am
    14    74    73    2
    15    66    68   ar
    16    62    61    1
    17    73    72    1
    18    72    75    1
    19   101    98    1
    20    70    68   ar
    21    98    97    1
    22   105   106    1
    23    75    76    1
    24   106   107    1
    25   106   109    1
    26    97    94   am
    27   107   108    2
    28   109   110    1
    29    76    77   ar
    30    76    78   ar
    31    94    95    2
    32    94    93    1
    33    85    86    1
    34    77    79   ar
    35   111   110   ar
    36   111   113   ar
    37   110   112   ar
    38    92    93    1
    39    92    87   am
    40    86    87    1
    41    86    89    1
    42    93    96    1
    43    78    81   ar
    44    78    80   ar
    45    87    88    2
    46    79    80   ar
    47    81    83   ar
    48   113   114   ar
    49   112   114   ar
    50   112   115   ar
    51    80    82   ar
    52    91    89    1
    53    89    90    1
    54   114   116   ar
    55   115   117   ar
    56    83    84   ar
    57    82    84   ar
    58   116   118   ar
    59   117   118   ar
    60    59    58    2
    61    60    58   am
    62    43    42   ar
    63    58    57    1
    64    53    54    1
    65    54    57    1
    66    54    55    1
    67    42    44   ar
    68    42    41    1
    69    45    46    1
    70    51    50    2
    71    38    37    1
    72    38    41    1
    73    38    39    1
    74    24    23    2
    75    46    47    1
    76    46    49    1
    77    48    47    2
    78    30    27    1
    79    25    22    1
    80    40    39    2
    81    55    56    2
    82    50    49    1
    83    50    52   am
    84    23    22    1
    85    23    26   am
    86    27    26    1
    87    27    28    1
    88    22    21    1
    89    19    18   ar
    90    20    18   ar
    91    28    29    2
    92    18    17    1
    93    12    11    1
    94    35    36    1
    95    35    32    1
    96    31    32    1
    97     9    11   ar
    98     9     7   ar
    99    11    10   ar
   100    17    14    1
   101    32    33    1
   102     7     6   ar
   103    14    15    1
   104    14    13    1
   105    10     8   ar
   106    15    16    2
   107     6     8   ar
   108     6     5    1
   109     5     2    1
   110    33    34    2
   111     2     1    1
   112     2     3    1
   113     3     4    2
