@<TRIPOS>MOLECULE
tmp/5xczA00.pdb
 101 100 0 0 0
SMALL
GASTEIGER

@<TRIPOS>ATOM
      1  N         22.0620    4.6630  -11.3070 N.3    91  ALA91      -0.1231
      2  CA        22.2210    5.6910  -12.3340 C.3    91  ALA91       0.1694
      3  C         20.8880    6.1900  -12.8760 C.2    91  ALA91       0.2591
      4  O         20.8700    6.9530  -13.8430 O.2    91  ALA91      -0.2718
      5  CB        23.1070    5.1840  -13.4700 C.3    91  ALA91       0.0304
      6  N         19.7750    5.7840  -12.2670 N.am   92  ALA92      -0.1980
      7  CA        18.4490    6.2700  -12.6050 C.3    92  ALA92       0.1597
      8  C         17.7020    6.5210  -11.3060 C.2    92  ALA92       0.2287
      9  O         18.2450    6.3300  -10.2180 O.2    92  ALA92      -0.2864
     10  CB        17.6950    5.2730  -13.4860 C.3    92  ALA92       0.0319
     11  N         26.2840   -0.9360  -14.3710 N.3   139  ASN139     -0.1240
     12  CA        26.5530    0.3900  -13.8270 C.3   139  ASN139      0.1653
     13  C         28.0040    0.5190  -13.3750 C.2   139  ASN139      0.2266
     14  O         28.6120    1.5760  -13.5380 O.2   139  ASN139     -0.2867
     15  CB        25.5830    0.6960  -12.6850 C.3   139  ASN139      0.1155
     16  CG        24.2660    1.2410  -13.2000 C.2   139  ASN139      0.2627
     17  OD1       24.2550    2.0380  -14.1390 O.2   139  ASN139     -0.2716
     18  ND2       23.1530    0.7870  -12.6250 N.am  139  ASN139     -0.0877
     19  N         30.2660    1.2860  -16.7200 N.3   142  THR142     -0.1203
     20  CA        30.1700    2.5340  -17.4650 C.3   142  THR142      0.1994
     21  C         29.7710    3.7410  -16.6300 C.2   142  THR142      0.2617
     22  O         29.7700    4.8570  -17.1630 O.2   142  THR142     -0.2717
     23  CB        29.1520    2.3970  -18.5970 C.3   142  THR142      0.1784
     24  OG1       27.8340    2.4040  -18.0320 O.3   142  THR142     -0.2211
     25  CG2       29.3640    1.1170  -19.3430 C.3   142  THR142      0.0376
     26  N         29.3920    3.5560  -15.3630 N.am  143  ASN143     -0.1974
     27  CA        28.7930    4.6300  -14.5770 C.3   143  ASN143      0.1688
     28  C         29.5540    4.8770  -13.2720 C.2   143  ASN143      0.2292
     29  O         28.9620    5.2790  -12.2670 O.2   143  ASN143     -0.2864
     30  CB        27.3170    4.3280  -14.2970 C.3   143  ASN143      0.1181
     31  CG        26.4120    4.6320  -15.5030 C.2   143  ASN143      0.2629
     32  OD1       26.5990    5.6320  -16.1860 O.2   143  ASN143     -0.2716
     33  ND2       25.4140    3.7820  -15.7380 N.am  143  ASN143     -0.0877
     34  N         23.0130   -4.9910  -21.8540 N.3   180  HIS180     -0.1241
     35  CA        22.5000   -5.2900  -23.1910 C.3   180  HIS180      0.1621
     36  C         23.4540   -4.6960  -24.2220 C.2   180  HIS180      0.2264
     37  O         24.4440   -4.0520  -23.8730 O.2   180  HIS180     -0.2867
     38  CB        21.0750   -4.7620  -23.3820 C.3   180  HIS180      0.0745
     39  CG        20.9540   -3.2720  -23.2710 C.ar  180  HIS180      0.0817
     40  ND1       21.1490   -2.4290  -24.3420 N.ar  180  HIS180     -0.2268
     41  CD2       20.6290   -2.4770  -22.2230 C.ar  180  HIS180      0.1154
     42  CE1       20.9630   -1.1780  -23.9580 C.ar  180  HIS180      0.1986
     43  NE2       20.6440   -1.1790  -22.6770 N.ar  180  HIS180     -0.2212
     44  N         23.3830   -2.2310  -26.4240 N.3   182  GLY182     -0.1210
     45  CA        23.6370   -0.7950  -26.4030 C.3   182  GLY182      0.1956
     46  C         24.3220   -0.2820  -25.1500 C.2   182  GLY182      0.2611
     47  O         24.7160    0.8870  -25.1050 O.2   182  GLY182     -0.2717
     48  N         24.4800   -1.1360  -24.1380 N.am  183  TRP183     -0.1976
     49  CA        25.1540   -0.7550  -22.9010 C.3   183  TRP183      0.1640
     50  C         26.5790   -1.2790  -22.9440 C.2   183  TRP183      0.2290
     51  O         27.5080   -0.5360  -23.2870 O.2   183  TRP183     -0.2864
     52  CB        24.3990   -1.2970  -21.6710 C.3   183  TRP183      0.0576
     53  CG        24.7340   -0.5910  -20.3660 C.ar  183  TRP183      0.0006
     54  CD1       25.8020    0.2190  -20.1250 C.ar  183  TRP183      0.0946
     55  CD2       23.9880   -0.6430  -19.1350 C.ar  183  TRP183      0.0152
     56  NE1       25.7700    0.6780  -18.8290 N.ar  183  TRP183     -0.2442
     57  CE2       24.6700    0.1640  -18.1990 C.ar  183  TRP183      0.0810
     58  CE3       22.8130   -1.2890  -18.7380 C.ar  183  TRP183      0.0012
     59  CZ2       24.2190    0.3370  -16.8900 C.ar  183  TRP183      0.0191
     60  CZ3       22.3570   -1.1070  -17.4380 C.ar  183  TRP183      0.0001
     61  CH2       23.0620   -0.2960  -16.5300 C.ar  183  TRP183      0.0015
     62  N         14.8210   -4.6590  -21.2930 N.3   219  ASN219     -0.1240
     63  CA        15.0660   -3.7990  -22.4370 C.3   219  ASN219      0.1653
     64  C         14.3210   -4.3770  -23.6410 C.2   219  ASN219      0.2266
     65  O         13.4310   -5.2240  -23.4850 O.2   219  ASN219     -0.2867
     66  CB        16.5770   -3.6310  -22.6910 C.3   219  ASN219      0.1155
     67  CG        16.9080   -2.2880  -23.3460 C.2   219  ASN219      0.2627
     68  OD1       16.6990   -2.1010  -24.5550 O.2   219  ASN219     -0.2716
     69  ND2       17.3840   -1.3360  -22.5430 N.am  219  ASN219     -0.0877
     70  N         18.8390    4.9960  -28.0680 N.3   276  TRP276     -0.1227
     71  CA        19.0060    3.6620  -27.4930 C.3   276  TRP276      0.1737
     72  C         18.7930    3.6790  -25.9830 C.2   276  TRP276      0.2596
     73  O         18.1540    2.7750  -25.4300 O.2   276  TRP276     -0.2718
     74  CB        20.3910    3.1070  -27.8310 C.3   276  TRP276      0.0564
     75  CG        20.4270    1.6100  -28.0230 C.ar  276  TRP276      0.0003
     76  CD1       19.4930    0.6920  -27.6020 C.ar  276  TRP276      0.0946
     77  CD2       21.4600    0.8560  -28.6740 C.ar  276  TRP276      0.0152
     78  NE1       19.8780   -0.5810  -27.9760 N.ar  276  TRP276     -0.2442
     79  CE2       21.0810   -0.5050  -28.6300 C.ar  276  TRP276      0.0810
     80  CE3       22.6600    1.1980  -29.2990 C.ar  276  TRP276      0.0012
     81  CZ2       21.8690   -1.5120  -29.1790 C.ar  276  TRP276      0.0191
     82  CZ3       23.4350    0.1960  -29.8370 C.ar  276  TRP276      0.0001
     83  CH2       23.0350   -1.1410  -29.7780 C.ar  276  TRP276      0.0015
     84  N         19.2900    4.7100  -25.3050 N.am  277  GLY277     -0.1957
     85  CA        19.1500    4.8180  -23.8600 C.3   277  GLY277      0.1869
     86  C         17.7400    5.0580  -23.3530 C.2   277  GLY277      0.2309
     87  O         17.5540    5.1900  -22.1370 O.2   277  GLY277     -0.2863
     88  N         14.7700    3.6650  -22.0740 N.3   279  TRP279     -0.1241
     89  CA        14.4310    2.3510  -21.5540 C.3   279  TRP279      0.1605
     90  C         13.0730    2.2720  -20.8760 C.2   279  TRP279      0.2264
     91  O         12.6460    1.1660  -20.5250 O.2   279  TRP279     -0.2867
     92  CB        15.4980    1.8960  -20.5470 C.3   279  TRP279      0.0550
     93  CG        15.8630    2.9520  -19.5650 C.ar  279  TRP279      0.0003
     94  CD1       16.9140    3.8210  -19.6460 C.ar  279  TRP279      0.0946
     95  CD2       15.1730    3.2640  -18.3370 C.ar  279  TRP279      0.0152
     96  NE1       16.9170    4.6580  -18.5430 N.ar  279  TRP279     -0.2442
     97  CE2       15.8610    4.3310  -17.7290 C.ar  279  TRP279      0.0810
     98  CE3       14.0460    2.7350  -17.6930 C.ar  279  TRP279      0.0012
     99  CZ2       15.4650    4.8750  -16.5030 C.ar  279  TRP279      0.0191
    100  CZ3       13.6540    3.2820  -16.4680 C.ar  279  TRP279      0.0001
    101  CH2       14.3610    4.3400  -15.8960 C.ar  279  TRP279      0.0015
@<TRIPOS>BOND
     1    82    83   ar
     2    82    80   ar
     3    83    81   ar
     4    80    77   ar
     5    81    79   ar
     6    77    79   ar
     7    77    75   ar
     8    79    78   ar
     9    70    71    1
    10    75    74    1
    11    75    76   ar
    12    78    76   ar
    13    74    71    1
    14    71    72    1
    15    44    45    1
    16    45    46    1
    17    72    73    2
    18    72    84   am
    19    84    85    1
    20    46    47    2
    21    46    48   am
    22    68    67    2
    23    40    42   ar
    24    40    39   ar
    25    36    37    2
    26    36    35    1
    27    48    49    1
    28    42    43   ar
    29    85    86    1
    30    64    65    2
    31    64    63    1
    32    38    39    1
    33    38    35    1
    34    86    87    2
    35    67    66    1
    36    67    69   am
    37    51    50    2
    38    39    41   ar
    39    35    34    1
    40    50    49    1
    41    49    52    1
    42    66    63    1
    43    43    41   ar
    44    63    62    1
    45    88    89    1
    46    52    53    1
    47    89    90    1
    48    89    92    1
    49    90    91    2
    50    92    93    1
    51    53    54   ar
    52    53    55   ar
    53    54    56   ar
    54    94    93   ar
    55    94    96   ar
    56    93    95   ar
    57    25    23    1
    58    55    58   ar
    59    55    57   ar
    60    56    57   ar
    61    58    60   ar
    62    23    24    1
    63    23    20    1
    64    96    97   ar
    65    95    97   ar
    66    95    98   ar
    67    57    59   ar
    68    97    99   ar
    69    98   100   ar
    70    20    19    1
    71    20    21    1
    72    60    61   ar
    73    22    21    2
    74    59    61   ar
    75    21    26   am
    76    99   101   ar
    77   100   101   ar
    78    32    31    2
    79    33    31   am
    80    31    30    1
    81    26    27    1
    82    27    30    1
    83    27    28    1
    84    11    12    1
    85    17    16    2
    86     4     3    2
    87    12    13    1
    88    12    15    1
    89    14    13    2
    90    10     7    1
    91     5     2    1
    92    28    29    2
    93    16    15    1
    94    16    18   am
    95     3     2    1
    96     3     6   am
    97     7     6    1
    98     7     8    1
    99     2     1    1
   100     8     9    2
