@<TRIPOS>MOLECULE
tmp/5xd0A00.pdb
 124 119 0 0 0
SMALL
GASTEIGER

@<TRIPOS>ATOM
      1  N         -8.2900    1.7710   13.7310 N.3    55  TYR55      -0.1241
      2  CA        -8.6620    0.9810   12.5740 C.3    55  TYR55       0.1605
      3  C        -10.0220    0.3370   12.6740 C.2    55  TYR55       0.2264
      4  O        -10.5680   -0.1240   11.6350 O.2    55  TYR55      -0.2867
      5  CB        -7.5910   -0.0440   12.2540 C.3    55  TYR55       0.0534
      6  CG        -7.8210   -1.5030   12.5120 C.ar   55  TYR55      -0.0201
      7  CD1       -7.9310   -1.9980   13.8130 C.ar   55  TYR55      -0.0009
      8  CD2       -7.8930   -2.4220   11.4510 C.ar   55  TYR55      -0.0009
      9  CE1       -8.0550   -3.3600   14.0570 C.ar   55  TYR55       0.0417
     10  CE2       -8.0520   -3.8010   11.6930 C.ar   55  TYR55       0.0417
     11  CZ        -8.1210   -4.2460   12.9870 C.ar   55  TYR55       0.1957
     12  OH        -8.3090   -5.5690   13.2780 O.3    55  TYR55      -0.2866
     13  N         -3.7530   -1.7210   14.0880 N.3    62  VAL62      -0.1231
     14  CA        -2.8300   -2.6340   13.5230 C.3    62  VAL62       0.1692
     15  C         -1.7010   -1.8730   12.8590 C.2    62  VAL62       0.2593
     16  O         -1.8520   -0.7330   12.4760 O.2    62  VAL62      -0.2718
     17  CB        -3.4990   -3.6170   12.5270 C.3    62  VAL62       0.0266
     18  CG1       -4.5060   -4.5720   13.2110 C.3    62  VAL62       0.0020
     19  CG2       -4.2970   -2.8520   11.4890 C.3    62  VAL62       0.0020
     20  N         -0.5680   -2.5270   12.6840 N.am   63  SER63      -0.1938
     21  CA         0.5740   -1.9050   12.0620 C.3    63  SER63       0.2055
     22  C          0.3200   -1.4360   10.5900 C.2    63  SER63       0.2642
     23  O          0.9260   -0.4970   10.1490 O.2    63  SER63      -0.2714
     24  CB         1.7830   -2.7920   12.1270 C.3    63  SER63       0.2130
     25  OG         1.7230   -4.0180   11.3900 O.3    63  SER63      -0.2179
     26  N         -0.5400   -2.1200    9.8700 N.am   64  GLU64      -0.1976
     27  CA        -0.9710   -1.6560    8.5390 C.3    64  GLU64       0.1602
     28  C         -1.5270   -0.2400    8.6180 C.2    64  GLU64       0.2287
     29  O         -1.2010    0.6010    7.8020 O.2    64  GLU64      -0.2864
     30  CB        -2.0070   -2.6370    8.0360 C.3    64  GLU64       0.0415
     31  CG        -2.7480   -2.2030    6.7990 C.3    64  GLU64       0.1163
     32  CD        -4.0740   -2.9070    6.6820 C.2    64  GLU64       0.3649
     33  OE1       -5.0960   -2.3680    7.2150 O.co2  64  GLU64      -0.2457
     34  OE2       -4.0570   -3.9910    6.0400 O.co2  64  GLU64      -0.2457
     35  N          2.1340   -6.2400   15.5080 N.3   108  TRP108     -0.1241
     36  CA         1.1320   -5.9380   14.4910 C.3   108  TRP108      0.1605
     37  C         -0.2170   -5.4490   14.9320 C.2   108  TRP108      0.2264
     38  O         -0.9160   -4.8800   14.1070 O.2   108  TRP108     -0.2867
     39  CB         0.9450   -7.1530   13.5590 C.3   108  TRP108      0.0550
     40  CG         0.0620   -8.1850   14.1210 C.ar  108  TRP108      0.0003
     41  CD1        0.3540   -9.0450   15.1390 C.ar  108  TRP108      0.0946
     42  CD2       -1.2770   -8.4440   13.7340 C.ar  108  TRP108      0.0152
     43  NE1       -0.7290   -9.8660   15.3710 N.ar  108  TRP108     -0.2442
     44  CE2       -1.7430   -9.5180   14.5220 C.ar  108  TRP108      0.0810
     45  CE3       -2.1180   -7.9020   12.7570 C.ar  108  TRP108      0.0012
     46  CZ2       -3.0370  -10.0650   14.3900 C.ar  108  TRP108      0.0191
     47  CZ3       -3.4450   -8.4680   12.6130 C.ar  108  TRP108      0.0001
     48  CH2       -3.8620   -9.5420   13.4260 C.ar  108  TRP108      0.0015
     49  N          3.8700   -7.6580   10.8610 N.3   123  ALA123     -0.1245
     50  CA         3.2210   -7.8800    9.5950 C.3   123  ALA123      0.1562
     51  C          4.0380   -7.1400    8.5650 C.2   123  ALA123      0.2260
     52  O          4.3800   -5.9800    8.7270 O.2   123  ALA123     -0.2867
     53  CB         1.8140   -7.3160    9.6100 C.3   123  ALA123      0.0290
     54  N          3.6400   -5.8500    5.6000 N.3   125  ASP125     -0.1239
     55  CA         3.1600   -4.6250    4.9240 C.3   125  ASP125      0.1674
     56  C          3.2290   -3.3630    5.8060 C.2   125  ASP125      0.2266
     57  O          3.6500   -2.2670    5.3410 O.2   125  ASP125     -0.2867
     58  CB         1.8030   -4.8130    4.2620 C.3   125  ASP125      0.1410
     59  CG         0.6700   -5.1930    5.2130 C.2   125  ASP125      0.3668
     60  OD1        0.8860   -5.7990    6.3210 O.co2 125  ASP125     -0.2456
     61  OD2       -0.5000   -4.9170    4.8090 O.co2 125  ASP125     -0.2456
     62  N          2.2050  -12.4830    0.1620 N.3   188  ARG188     -0.1245
     63  CA         0.9470  -11.7620   -0.0460 C.3   188  ARG188      0.1563
     64  C          1.1260  -10.7120   -1.1650 C.2   188  ARG188      0.2260
     65  O          1.9200   -9.7490   -0.9620 O.2   188  ARG188     -0.2867
     66  CB         0.6410  -11.0640    1.2480 C.3   188  ARG188      0.0307
     67  CG        -0.6280  -10.2500    1.2760 C.3   188  ARG188      0.0489
     68  CD        -1.0790   -9.8050    2.6800 C.3   188  ARG188      0.2205
     69  NE         0.0960   -9.4100    3.4100 N.pl3 188  ARG188     -0.0865
     70  CZ         0.4920   -9.8420    4.6260 C.cat 188  ARG188      0.5346
     71  NH1       -0.2420  -10.6600    5.3650 N.pl3 188  ARG188      0.1354
     72  NH2        1.7090   -9.5010    5.0650 N.pl3 188  ARG188      0.1354
     73  N         -6.6140  -16.7230    6.3810 N.3   254  GLU254     -0.1245
     74  CA        -7.6580  -15.7940    6.8170 C.3   254  GLU254      0.1567
     75  C         -9.0680  -16.2630    6.5380 C.2   254  GLU254      0.2260
     76  O         -9.9320  -15.9460    7.3180 O.2   254  GLU254     -0.2867
     77  CB        -7.4100  -14.4010    6.2130 C.3   254  GLU254      0.0388
     78  CG        -6.2060  -13.7600    6.8740 C.3   254  GLU254      0.1160
     79  CD        -5.8030  -12.3990    6.3540 C.2   254  GLU254      0.3649
     80  OE1       -6.5230  -11.7660    5.5160 O.co2 254  GLU254     -0.2457
     81  OE2       -4.7360  -11.9550    6.8430 O.co2 254  GLU254     -0.2457
     82  N         -9.9860   -8.9670    0.0630 N.3   263  TYR263     -0.1227
     83  CA        -9.6580   -7.7520    0.8420 C.3   263  TYR263      0.1736
     84  C         -8.1720   -7.4910    0.9980 C.2   263  TYR263      0.2595
     85  O         -7.8020   -6.3490    1.3420 O.2   263  TYR263     -0.2718
     86  CB       -10.3400   -7.7270    2.1850 C.3   263  TYR263      0.0548
     87  CG       -11.7120   -7.1040    2.0930 C.ar  263  TYR263     -0.0200
     88  CD1      -12.7900   -7.7830    1.5590 C.ar  263  TYR263     -0.0009
     89  CD2      -11.9130   -5.8020    2.4830 C.ar  263  TYR263     -0.0009
     90  CE1      -14.0310   -7.2420    1.4620 C.ar  263  TYR263      0.0417
     91  CE2      -13.1590   -5.2280    2.3850 C.ar  263  TYR263      0.0417
     92  CZ       -14.2120   -5.9300    1.8860 C.ar  263  TYR263      0.1957
     93  OH       -15.4370   -5.3050    1.7860 O.3   263  TYR263     -0.2866
     94  N         -7.3040   -8.4870    0.7210 N.am  264  ASN264     -0.1974
     95  CA        -5.8580   -8.1310    0.6760 C.3   264  ASN264      0.1688
     96  C         -5.4680   -7.6160   -0.7250 C.2   264  ASN264      0.2292
     97  O         -4.9020   -6.5220   -0.8970 O.2   264  ASN264     -0.2864
     98  CB        -4.9350   -9.2920    1.0370 C.3   264  ASN264      0.1181
     99  CG        -5.0580   -9.7000    2.5000 C.2   264  ASN264      0.2629
    100  OD1       -4.4540   -9.0990    3.3550 O.2   264  ASN264     -0.2716
    101  ND2       -5.8570  -10.7030    2.7760 N.am  264  ASN264     -0.0877
    102  N         -5.6560   -4.0810   -3.0510 N.3   267  ARG267     -0.1245
    103  CA        -4.6300   -3.0600   -3.0590 C.3   267  ARG267      0.1563
    104  C         -3.6170   -3.2340   -4.1780 C.2   267  ARG267      0.2260
    105  O         -2.8760   -2.3260   -4.4470 O.2   267  ARG267     -0.2867
    106  CB        -3.8630   -3.0860   -1.7520 C.3   267  ARG267      0.0307
    107  CG        -4.6920   -2.5290   -0.6200 C.3   267  ARG267      0.0489
    108  CD        -4.1160   -2.8510    0.7490 C.3   267  ARG267      0.2205
    109  NE        -3.9880   -4.2540    1.0750 N.pl3 267  ARG267     -0.0865
    110  CZ        -3.6280   -4.7140    2.2920 C.cat 267  ARG267      0.5346
    111  NH1       -3.4560   -3.8790    3.2940 N.pl3 267  ARG267      0.1354
    112  NH2       -3.5890   -5.9920    2.5350 N.pl3 267  ARG267      0.1354
    113  N        -10.4700    1.1800    6.4070 N.3   359  TYR359     -0.1241
    114  CA        -9.7090    0.4900    5.3590 C.3   359  TYR359      0.1605
    115  C         -9.9880    1.0890    3.9970 C.2   359  TYR359      0.2264
    116  O         -9.0760    1.5210    3.2630 O.2   359  TYR359     -0.2867
    117  CB       -10.0380   -0.9550    5.3460 C.3   359  TYR359      0.0534
    118  CG        -9.1480   -1.8260    4.5020 C.ar  359  TYR359     -0.0201
    119  CD1       -7.7440   -1.8030    4.6450 C.ar  359  TYR359     -0.0009
    120  CD2       -9.6680   -2.6060    3.5190 C.ar  359  TYR359     -0.0009
    121  CE1       -6.9630   -2.6560    3.8890 C.ar  359  TYR359      0.0417
    122  CE2       -8.8840   -3.4550    2.7280 C.ar  359  TYR359      0.0417
    123  CZ        -7.5160   -3.4710    2.9280 C.ar  359  TYR359      0.1957
    124  OH        -6.7100   -4.3280    2.1310 O.3   359  TYR359     -0.2866
@<TRIPOS>BOND
     1   105   104    2
     2   104   103    1
     3   103   102    1
     4   103   106    1
     5   106   107    1
     6    64    65    2
     7    64    63    1
     8    97    96    2
     9    96    95    1
    10   107   108    1
    11    63    62    1
    12    63    66    1
    13    82    83    1
    14    95    94    1
    15    95    98    1
    16    94    84   am
    17   108   109    1
    18    83    84    1
    19    83    86    1
    20    84    85    2
    21    98    99    1
    22   109   110    2
    23    66    67    1
    24    67    68    1
    25    90    88   ar
    26    90    92   ar
    27    88    87   ar
    28    93    92    1
    29    92    91   ar
    30    87    86    1
    31    87    89   ar
    32   124   123    1
    33   110   112    1
    34   110   111    1
    35    91    89   ar
    36    99   101   am
    37    99   100    2
    38    68    69    1
    39   122   123   ar
    40   122   120   ar
    41   123   121   ar
    42   116   115    2
    43    69    70    2
    44   120   118   ar
    45   121   119   ar
    46   115   114    1
    47    58    55    1
    48    58    59    1
    49   118   119   ar
    50   118   117    1
    51    70    72    1
    52    70    71    1
    53    61    59   ar
    54    55    54    1
    55    55    56    1
    56    59    60   ar
    57    57    56    2
    58   117   114    1
    59   114   113    1
    60    80    79   ar
    61    34    32   ar
    62    77    74    1
    63    77    78    1
    64    79    81   ar
    65    79    78    1
    66    73    74    1
    67    75    74    1
    68    75    76    2
    69    32    31    1
    70    32    33   ar
    71    31    30    1
    72    29    28    2
    73    30    27    1
    74    27    28    1
    75    27    26    1
    76    51    52    2
    77    51    50    1
    78    50    53    1
    79    50    49    1
    80    26    22   am
    81    23    22    2
    82    22    21    1
    83    25    24    1
    84     8    10   ar
    85     8     6   ar
    86    19    17    1
    87     4     3    2
    88    10    11   ar
    89    21    24    1
    90    21    20    1
    91     5     6    1
    92     5     2    1
    93    16    15    2
    94     6     7   ar
    95    17    18    1
    96    17    14    1
    97     2     3    1
    98     2     1    1
    99    47    45   ar
   100    47    48   ar
   101    20    15   am
   102    45    42   ar
   103    15    14    1
   104    11    12    1
   105    11     9   ar
   106    48    46   ar
   107    14    13    1
   108    39    40    1
   109    39    36    1
   110    42    40   ar
   111    42    44   ar
   112     7     9   ar
   113    38    37    2
   114    40    41   ar
   115    46    44   ar
   116    36    37    1
   117    36    35    1
   118    44    43   ar
   119    41    43   ar
