@<TRIPOS>MOLECULE
tmp/5xd2A00.pdb
 182 171 0 0 0
SMALL
GASTEIGER

@<TRIPOS>ATOM
      1  N         20.9620   23.7470   16.2550 N.3    25  ARG25      -0.1245
      2  CA        20.4780   24.0820   17.6040 C.3    25  ARG25       0.1563
      3  C         21.3020   25.1750   18.2490 C.2    25  ARG25       0.2260
      4  O         22.4910   25.0370   18.4800 O.2    25  ARG25      -0.2867
      5  CB        20.5630   22.8650   18.4860 C.3    25  ARG25       0.0307
      6  CG        19.6850   21.7240   17.9950 C.3    25  ARG25       0.0489
      7  CD        19.6340   20.5870   18.9950 C.3    25  ARG25       0.2205
      8  NE        20.9190   19.9240   19.2360 N.pl3  25  ARG25      -0.0865
      9  CZ        21.1130   18.9150   20.0950 C.cat  25  ARG25       0.5346
     10  NH1       22.3380   18.4290   20.3070 N.pl3  25  ARG25       0.1354
     11  NH2       20.1080   18.4410   20.8220 N.pl3  25  ARG25       0.1354
     12  N         21.4040   26.3370   21.3020 N.3    27  ARG27      -0.1231
     13  CA        21.9140   26.0490   22.6180 C.3    27  ARG27       0.1694
     14  C         23.3510   25.4750   22.5550 C.2    27  ARG27       0.2592
     15  O         24.1390   25.7290   23.4500 O.2    27  ARG27      -0.2718
     16  CB        20.9700   25.0630   23.2950 C.3    27  ARG27       0.0321
     17  CG        21.3310   24.4540   24.6330 C.3    27  ARG27       0.0489
     18  CD        20.1820   23.4950   24.9870 C.3    27  ARG27       0.2205
     19  NE        20.2180   22.8880   26.3130 N.pl3  27  ARG27      -0.0865
     20  CZ        19.3100   21.9930   26.7470 C.cat  27  ARG27       0.5346
     21  NH1       19.4140   21.4930   27.9700 N.pl3  27  ARG27       0.1354
     22  NH2       18.2990   21.5750   25.9690 N.pl3  27  ARG27       0.1354
     23  N         23.6460   24.6750   21.5170 N.am   28  TYR28      -0.1976
     24  CA        24.9460   24.0040   21.4220 C.3    28  TYR28       0.1639
     25  C         25.7950   24.5200   20.2520 C.2    28  TYR28       0.2290
     26  O         26.9510   24.1440   20.1550 O.2    28  TYR28      -0.2864
     27  CB        24.7070   22.4920   21.2470 C.3    28  TYR28       0.0560
     28  CG        23.9660   21.8770   22.3930 C.ar   28  TYR28      -0.0198
     29  CD1       24.3990   22.0450   23.6800 C.ar   28  TYR28      -0.0009
     30  CD2       22.7830   21.1620   22.1860 C.ar   28  TYR28      -0.0009
     31  CE1       23.7090   21.5190   24.7520 C.ar   28  TYR28       0.0417
     32  CE2       22.1040   20.6060   23.2480 C.ar   28  TYR28       0.0417
     33  CZ        22.5650   20.7770   24.5160 C.ar   28  TYR28       0.1957
     34  OH        21.8810   20.2180   25.5630 O.3    28  TYR28      -0.2866
     35  N         25.2900   23.5150   17.1880 N.3    30  ASP30      -0.1239
     36  CA        25.6450   22.2880   16.4980 C.3    30  ASP30       0.1674
     37  C         24.7570   22.0030   15.3080 C.2    30  ASP30       0.2266
     38  O         23.6520   22.5290   15.2000 O.2    30  ASP30      -0.2867
     39  CB        25.8310   21.1060   17.4360 C.3    30  ASP30       0.1410
     40  CG        24.5520   20.6080   18.1250 C.2    30  ASP30       0.3668
     41  OD1       23.5050   21.1940   17.9720 O.co2  30  ASP30      -0.2456
     42  OD2       24.6270   19.6670   18.9390 O.co2  30  ASP30      -0.2456
     43  N         23.3850   18.5500   13.4790 N.3    32  SER32      -0.1217
     44  CA        23.1790   17.1740   13.8890 C.3    32  SER32       0.1889
     45  C         21.9070   16.6080   13.2400 C.2    32  SER32       0.2288
     46  O         21.1670   17.2830   12.5200 O.2    32  SER32      -0.2866
     47  CB        23.1170   17.0710   15.4330 C.3    32  SER32       0.2089
     48  OG        21.9730   17.7150   16.0630 O.3    32  SER32      -0.2183
     49  N         16.7440   14.2560   16.9930 N.3    35  LYS35      -0.1231
     50  CA        16.5920   13.1980   17.9580 C.3    35  LYS35       0.1693
     51  C         16.1550   13.7650   19.2880 C.2    35  LYS35       0.2593
     52  O         16.2900   14.9350   19.5900 O.2    35  LYS35      -0.2718
     53  CB        17.8930   12.4460   18.1690 C.3    35  LYS35       0.0285
     54  CG        19.0010   13.2830   18.7490 C.3    35  LYS35       0.0035
     55  CD        19.4340   12.8900   20.1250 C.3    35  LYS35       0.0206
     56  CE        20.7770   13.4700   20.5280 C.3    35  LYS35       0.1093
     57  NZ        20.6970   14.9460   20.3840 N.3    35  LYS35      -0.1314
     58  N         15.6420   12.9020   20.1240 N.am   36  GLY36      -0.1942
     59  CA        15.3600   13.3220   21.4600 C.3    36  GLY36       0.2014
     60  C         15.0950   12.1910   22.3930 C.2    36  GLY36       0.2638
     61  O         15.0750   10.9900   21.9970 O.2    36  GLY36      -0.2714
     62  N         14.9410   12.5640   23.6570 N.am   37  LYS37      -0.1977
     63  CA        14.7960   11.5990   24.7490 C.3    37  LYS37       0.1596
     64  C         13.3940   11.0010   24.7950 C.2    37  LYS37       0.2287
     65  O         12.3840   11.6550   24.4580 O.2    37  LYS37      -0.2864
     66  CB        15.0620   12.2680   26.0720 C.3    37  LYS37       0.0298
     67  CG        16.4590   12.8770   26.2000 C.3    37  LYS37       0.0038
     68  CD        16.6210   13.6250   27.5020 C.3    37  LYS37       0.0206
     69  CE        15.9570   14.9940   27.4540 C.3    37  LYS37       0.1093
     70  NZ        16.9220   15.9430   26.8620 N.3    37  LYS37      -0.1314
     71  N          9.9250   13.2120   17.9550 N.3    51  GLU51      -0.1245
     72  CA        11.0090   14.2040   17.9590 C.3    51  GLU51       0.1567
     73  C         11.2720   14.7310   16.5390 C.2    51  GLU51       0.2260
     74  O         11.5850   15.9150   16.3520 O.2    51  GLU51      -0.2867
     75  CB        12.2650   13.6160   18.6320 C.3    51  GLU51       0.0388
     76  CG        12.1600   13.4100   20.1310 C.3    51  GLU51       0.1160
     77  CD        12.2040   14.7150   20.9160 C.2    51  GLU51       0.3649
     78  OE1       12.6220   15.7460   20.3500 O.co2  51  GLU51      -0.2457
     79  OE2       11.8280   14.7020   22.0920 O.co2  51  GLU51      -0.2457
     80  N          8.4560   17.2960   16.0460 N.3    54  GLU54      -0.1231
     81  CA         8.7880   18.4840   16.9210 C.3    54  GLU54       0.1699
     82  C          9.9790   19.3170   16.4690 C.2    54  GLU54       0.2592
     83  O          9.9070   20.5610   16.4540 O.2    54  GLU54      -0.2718
     84  CB         9.0270   18.1060   18.3810 C.3    54  GLU54       0.0402
     85  CG         7.7840   17.5840   19.0980 C.3    54  GLU54       0.1161
     86  CD         8.0300   17.1680   20.5180 C.2    54  GLU54       0.3649
     87  OE1        7.1540   16.4900   21.0540 O.co2  54  GLU54      -0.2457
     88  OE2        9.0760   17.4680   21.1160 O.co2  54  GLU54      -0.2457
     89  N         11.0510   18.6620   16.0290 N.am   55  GLU55      -0.1979
     90  CA        12.2530   19.3860   15.6330 C.3    55  GLU55       0.1602
     91  C         12.2890   19.8350   14.1830 C.2    55  GLU55       0.2287
     92  O         12.9180   20.8630   13.9030 O.2    55  GLU55      -0.2864
     93  CB        13.5310   18.5540   16.0110 C.3    55  GLU55       0.0415
     94  CG        13.5990   18.4040   17.5130 C.3    55  GLU55       0.1163
     95  CD        14.8960   17.7600   18.0090 C.2    55  GLU55       0.3649
     96  OE1       15.6860   17.3090   17.1830 O.co2  55  GLU55      -0.2457
     97  OE2       15.0990   17.6860   19.2350 O.co2  55  GLU55      -0.2457
     98  N         24.1230    5.0170   18.9080 N.3    69  VAL69      -0.1245
     99  CA        25.2110    5.9220   19.2670 C.3    69  VAL69       0.1561
    100  C         25.1630    6.0920   20.7920 C.2    69  VAL69       0.2260
    101  O         24.0960    6.2250   21.3870 O.2    69  VAL69      -0.2867
    102  CB        25.0140    7.2740   18.5450 C.3    69  VAL69       0.0252
    103  CG1       25.9250    8.3620   19.1110 C.3    69  VAL69       0.0019
    104  CG2       25.2250    7.1390   17.0460 C.3    69  VAL69       0.0019
    105  N         27.2940    8.1570   24.1680 N.3    71  TYR71      -0.1241
    106  CA        28.2830    9.0970   24.6120 C.3    71  TYR71       0.1605
    107  C         28.0510    9.4870   26.0590 C.2    71  TYR71       0.2264
    108  O         26.9170    9.5020   26.4960 O.2    71  TYR71      -0.2867
    109  CB        28.3210   10.3120   23.6800 C.3    71  TYR71       0.0534
    110  CG        27.0010   11.0120   23.3540 C.ar   71  TYR71      -0.0201
    111  CD1       26.5520   12.0770   24.1410 C.ar   71  TYR71      -0.0009
    112  CD2       26.2750   10.6820   22.2230 C.ar   71  TYR71      -0.0009
    113  CE1       25.3860   12.7630   23.8270 C.ar   71  TYR71       0.0417
    114  CE2       25.0810   11.3500   21.9090 C.ar   71  TYR71       0.0417
    115  CZ        24.6540   12.3850   22.7100 C.ar   71  TYR71       0.1957
    116  OH        23.4990   13.0680   22.4070 O.3    71  TYR71      -0.2866
    117  N         27.4720   11.6220   29.3990 N.3    73  ILE73      -0.1245
    118  CA        26.8420   12.8660   29.8330 C.3    73  ILE73       0.1561
    119  C         26.9050   12.8710   31.3800 C.2    73  ILE73       0.2260
    120  O         27.2580   11.8420   31.9850 O.2    73  ILE73      -0.2867
    121  CB        25.3830   12.9560   29.3010 C.3    73  ILE73       0.0252
    122  CG1       24.5500   11.7390   29.7430 C.3    73  ILE73       0.0019
    123  CG2       25.4240   13.1410   27.7770 C.3    73  ILE73       0.0019
    124  CD1       23.0720   11.8290   29.4510 C.3    73  ILE73       0.0001
    125  N         24.3410    8.5410   27.4070 N.3    78  LYS78      -0.1245
    126  CA        23.2490    8.8600   26.4900 C.3    78  LYS78       0.1561
    127  C         23.2760    7.8150   25.4030 C.2    78  LYS78       0.2260
    128  O         24.3490    7.5210   24.8480 O.2    78  LYS78      -0.2867
    129  CB        23.5020   10.2280   25.8960 C.3    78  LYS78       0.0271
    130  CG        22.4150   10.7550   24.9690 C.3    78  LYS78       0.0035
    131  CD        21.2620   11.2900   25.7380 C.3    78  LYS78       0.0206
    132  CE        20.3710   12.1390   24.9070 C.3    78  LYS78       0.1093
    133  NZ        20.5180   13.5870   25.1950 N.3    78  LYS78      -0.1314
    134  N         18.8100    5.1160   15.9820 N.3    82  TYR82      -0.1241
    135  CA        18.4350    5.9140   14.7730 C.3    82  TYR82       0.1605
    136  C         17.7030    5.1010   13.7730 C.2    82  TYR82       0.2264
    137  O         18.0000    3.9120   13.6190 O.2    82  TYR82      -0.2867
    138  CB        19.6530    6.5460   14.0910 C.3    82  TYR82       0.0534
    139  CG        20.2600    7.6610   14.8520 C.ar   82  TYR82      -0.0201
    140  CD1       19.8030    8.9680   14.6910 C.ar   82  TYR82      -0.0009
    141  CD2       21.2440    7.4260   15.8190 C.ar   82  TYR82      -0.0009
    142  CE1       20.3520   10.0100   15.4020 C.ar   82  TYR82       0.0417
    143  CE2       21.7990    8.4840   16.5300 C.ar   82  TYR82       0.0417
    144  CZ        21.3390    9.7580   16.3160 C.ar   82  TYR82       0.1957
    145  OH        21.8620   10.8130   17.0380 O.3    82  TYR82      -0.2866
    146  N         14.8430   26.1190   20.0550 N.3    97  GLU97      -0.1245
    147  CA        15.3860   24.7310   20.1620 C.3    97  GLU97       0.1567
    148  C         16.1640   24.3970   18.9080 C.2    97  GLU97       0.2260
    149  O         17.2810   23.9670   18.9780 O.2    97  GLU97      -0.2867
    150  CB        14.2670   23.6610   20.3400 C.3    97  GLU97       0.0388
    151  CG        14.5380   22.4830   21.3370 C.3    97  GLU97       0.1160
    152  CD        15.1630   21.1810   20.7810 C.2    97  GLU97       0.3649
    153  OE1       14.4720   20.0820   20.8000 O.co2  97  GLU97      -0.2457
    154  OE2       16.3740   21.2520   20.3740 O.co2  97  GLU97      -0.2457
    155  N         29.3350   15.7240   14.2660 N.3   115  TYR115     -0.1241
    156  CA        29.7120   14.5960   15.1290 C.3   115  TYR115      0.1605
    157  C         30.0940   13.3770   14.2630 C.2   115  TYR115      0.2264
    158  O         29.3270   12.9300   13.4250 O.2   115  TYR115     -0.2867
    159  CB        28.5960   14.2760   16.1750 C.3   115  TYR115      0.0534
    160  CG        28.1880   15.4680   17.0650 C.ar  115  TYR115     -0.0201
    161  CD1       29.0180   15.9470   18.0640 C.ar  115  TYR115     -0.0009
    162  CD2       26.9490   16.1130   16.8790 C.ar  115  TYR115     -0.0009
    163  CE1       28.6470   17.0450   18.8480 C.ar  115  TYR115      0.0417
    164  CE2       26.5720   17.1860   17.6510 C.ar  115  TYR115      0.0417
    165  CZ        27.4220   17.6590   18.6400 C.ar  115  TYR115      0.1957
    166  OH        27.0130   18.7440   19.4120 O.3   115  TYR115     -0.2866
    167  N         29.9950   10.2520   15.0090 N.3   117  ASP117     -0.1225
    168  CA        28.9420    9.2330   15.1510 C.3   117  ASP117      0.1805
    169  C         27.7300    9.5030   14.2350 C.2   117  ASP117      0.2597
    170  O         27.1120    8.5900   13.7460 O.2   117  ASP117     -0.2718
    171  CB        28.3580    9.2220   16.5630 C.3   117  ASP117      0.1424
    172  CG        29.3250    8.7360   17.6660 C.2   117  ASP117      0.3668
    173  OD1       30.1190    7.7900   17.4700 O.co2 117  ASP117     -0.2456
    174  OD2       29.2170    9.3360   18.7830 O.co2 117  ASP117     -0.2456
    175  N         27.3290   10.7410   14.0460 N.am  118  ASP118     -0.1974
    176  CA        26.2190   11.0250   13.1440 C.3   118  ASP118      0.1709
    177  C         26.6160   10.6590   11.7430 C.2   118  ASP118      0.2293
    178  O         25.8170   10.1750   10.9710 O.2   118  ASP118     -0.2864
    179  CB        25.8660   12.5250   13.1560 C.3   118  ASP118      0.1436
    180  CG        24.9320   12.9100   14.2950 C.2   118  ASP118      0.3671
    181  OD1       24.3500   12.0350   14.9520 O.co2 118  ASP118     -0.2456
    182  OD2       24.7250   14.1060   14.4820 O.co2 118  ASP118     -0.2456
@<TRIPOS>BOND
     1   178   177    2
     2   177   176    1
     3    46    45    2
     4   176   179    1
     5   176   175    1
     6   179   180    1
     7    45    44    1
     8   158   157    2
     9    43    44    1
    10   137   136    2
    11   170   169    2
    12   136   135    1
    13    44    47    1
    14    92    91    2
    15   175   169   am
    16   138   135    1
    17   138   139    1
    18    91    90    1
    19   169   168    1
    20   157   156    1
    21   155   156    1
    22   180   182   ar
    23   180   181   ar
    24   140   139   ar
    25   140   142   ar
    26   135   134    1
    27   139   141   ar
    28   167   168    1
    29   156   159    1
    30   168   171    1
    31    38    37    2
    32    37    36    1
    33   142   144   ar
    34    47    48    1
    35    90    93    1
    36    90    89    1
    37   141   143   ar
    38    93    94    1
    39    89    82   am
    40    80    81    1
    41   159   160    1
    42     1     2    1
    43   144   143   ar
    44   144   145    1
    45    74    73    2
    46    83    82    2
    47    82    81    1
    48    36    35    1
    49    36    39    1
    50    73    72    1
    51   171   172    1
    52   162   160   ar
    53   162   164   ar
    54    81    84    1
    55    49    50    1
    56   104   102    1
    57   160   161   ar
    58    96    95   ar
    59    39    40    1
    60   173   172   ar
    61    94    95    1
    62     2     3    1
    63     2     5    1
    64   164   165   ar
    65   172   174   ar
    66    71    72    1
    67    50    53    1
    68    50    51    1
    69    72    75    1
    70    41    40   ar
    71     6     5    1
    72     6     7    1
    73    95    97   ar
    74   161   163   ar
    75    40    42   ar
    76    53    54    1
    77     3     4    2
    78    84    85    1
    79   102   103    1
    80   102    99    1
    81    75    76    1
    82   165   163   ar
    83   165   166    1
    84    54    55    1
    85    98    99    1
    86   148   149    2
    87   148   147    1
    88     7     8    1
    89    85    86    1
    90     8     9    2
    91    99   100    1
    92    51    52    2
    93    51    58   am
    94   146   147    1
    95     9    10    1
    96     9    11    1
    97    58    59    1
    98    55    56    1
    99    76    77    1
   100    26    25    2
   101   147   150    1
   102    25    24    1
   103   150   151    1
   104    78    77   ar
   105   154   152   ar
   106    57    56    1
   107    86    87   ar
   108    86    88   ar
   109   152   153   ar
   110   152   151    1
   111   100   101    2
   112    77    79   ar
   113    27    24    1
   114    27    28    1
   115    12    13    1
   116    24    23    1
   117    59    60    1
   118    23    14   am
   119   114   112   ar
   120   114   115   ar
   121    61    60    2
   122    30    28   ar
   123    30    32   ar
   124   112   110   ar
   125    60    62   am
   126    28    29   ar
   127   116   115    1
   128    14    13    1
   129    14    15    2
   130    13    16    1
   131   115   113   ar
   132    32    33   ar
   133    16    17    1
   134   110   109    1
   135   110   111   ar
   136    62    63    1
   137    29    31   ar
   138   109   106    1
   139   113   111   ar
   140   105   106    1
   141    65    64    2
   142    33    31   ar
   143    33    34    1
   144   106   107    1
   145    17    18    1
   146    63    64    1
   147    63    66    1
   148   128   127    2
   149   132   133    1
   150   132   131    1
   151   130   131    1
   152   130   129    1
   153    18    19    1
   154   127   126    1
   155   129   126    1
   156    22    20    1
   157   107   108    2
   158    66    67    1
   159    67    68    1
   160    19    20    2
   161   126   125    1
   162    20    21    1
   163    70    69    1
   164    69    68    1
   165   123   121    1
   166   121   122    1
   167   121   118    1
   168   117   118    1
   169   124   122    1
   170   118   119    1
   171   119   120    2
