@<TRIPOS>MOLECULE
tmp/5xd4A00.pdb
 178 172 0 0 0
SMALL
GASTEIGER

@<TRIPOS>ATOM
      1  N         20.9430   23.8020   16.2380 N.3    26  ARG26      -0.1245
      2  CA        20.4350   24.1510   17.5620 C.3    26  ARG26       0.1563
      3  C         21.2380   25.2640   18.2030 C.2    26  ARG26       0.2260
      4  O         22.4170   25.0920   18.4890 O.2    26  ARG26      -0.2867
      5  CB        20.4610   22.9650   18.4990 C.3    26  ARG26       0.0307
      6  CG        19.6050   21.7980   18.0190 C.3    26  ARG26       0.0489
      7  CD        19.5380   20.6860   19.0390 C.3    26  ARG26       0.2205
      8  NE        20.8200   20.0190   19.2000 N.pl3  26  ARG26      -0.0865
      9  CZ        21.0600   19.0380   20.0640 C.cat  26  ARG26       0.5346
     10  NH1       22.2700   18.5000   20.1400 N.pl3  26  ARG26       0.1354
     11  NH2       20.0920   18.5450   20.8160 N.pl3  26  ARG26       0.1354
     12  N         21.3910   26.3820   21.2820 N.3    28  ARG28      -0.1231
     13  CA        21.9260   26.1310   22.6030 C.3    28  ARG28       0.1694
     14  C         23.3280   25.5310   22.5570 C.2    28  ARG28       0.2592
     15  O         24.1210   25.7800   23.4450 O.2    28  ARG28      -0.2718
     16  CB        21.0180   25.1430   23.3490 C.3    28  ARG28       0.0321
     17  CG        21.3990   24.7360   24.7370 C.3    28  ARG28       0.0489
     18  CD        20.3130   23.7570   25.2310 C.3    28  ARG28       0.2205
     19  NE        20.1380   23.6440   26.6640 N.pl3  28  ARG28      -0.0865
     20  CZ        19.2710   22.8030   27.2420 C.cat  28  ARG28       0.5346
     21  NH1       19.1640   22.7680   28.5670 N.pl3  28  ARG28       0.1354
     22  NH2       18.5050   21.9880   26.5050 N.pl3  28  ARG28       0.1354
     23  N         23.6070   24.7300   21.5230 N.am   29  TYR29      -0.1976
     24  CA        24.8760   24.0250   21.4200 C.3    29  TYR29       0.1639
     25  C         25.6990   24.5540   20.2480 C.2    29  TYR29       0.2290
     26  O         26.8480   24.1600   20.1280 O.2    29  TYR29      -0.2864
     27  CB        24.6180   22.5230   21.2050 C.3    29  TYR29       0.0560
     28  CG        23.8650   21.9230   22.3600 C.ar   29  TYR29      -0.0198
     29  CD1       24.3710   21.9600   23.6530 C.ar   29  TYR29      -0.0009
     30  CD2       22.6170   21.3460   22.1580 C.ar   29  TYR29      -0.0009
     31  CE1       23.6620   21.4090   24.7220 C.ar   29  TYR29       0.0417
     32  CE2       21.9100   20.8120   23.2100 C.ar   29  TYR29       0.0417
     33  CZ        22.4410   20.8120   24.4780 C.ar   29  TYR29       0.1957
     34  OH        21.7290   20.2970   25.5290 O.3    29  TYR29      -0.2866
     35  N         25.2830   23.5030   17.2230 N.3    31  ASP31      -0.1239
     36  CA        25.6090   22.2750   16.5300 C.3    31  ASP31       0.1674
     37  C         24.7100   22.0070   15.3250 C.2    31  ASP31       0.2266
     38  O         23.6030   22.5480   15.2160 O.2    31  ASP31      -0.2867
     39  CB        25.7440   21.0890   17.5110 C.3    31  ASP31       0.1410
     40  CG        24.4410   20.6420   18.1640 C.2    31  ASP31       0.3668
     41  OD1       23.3600   21.2190   17.9340 O.co2  31  ASP31      -0.2456
     42  OD2       24.5380   19.6800   18.9620 O.co2  31  ASP31      -0.2456
     43  N         23.2480   18.6150   13.4570 N.3    33  SER33      -0.1217
     44  CA        23.0360   17.2350   13.8750 C.3    33  SER33       0.1889
     45  C         21.7440   16.6930   13.2840 C.2    33  SER33       0.2288
     46  O         21.0240   17.3780   12.5520 O.2    33  SER33      -0.2866
     47  CB        23.0140   17.1320   15.3920 C.3    33  SER33       0.2089
     48  OG        21.8650   17.7800   15.9690 O.3    33  SER33      -0.2183
     49  N         16.6620   14.2470   17.1170 N.3    36  LYS36      -0.1231
     50  CA        16.5540   13.1880   18.0810 C.3    36  LYS36       0.1696
     51  C         16.0340   13.7230   19.3850 C.2    36  LYS36       0.2632
     52  O         16.0540   14.9340   19.6480 O.2    36  LYS36      -0.2714
     53  CB        17.8920   12.5420   18.3610 C.3    36  LYS36       0.0285
     54  CG        18.8920   13.4650   18.9720 C.3    36  LYS36       0.0035
     55  CD        19.5100   12.9080   20.2050 C.3    36  LYS36       0.0206
     56  CE        20.8010   13.5940   20.5750 C.3    36  LYS36       0.1093
     57  NZ        20.9230   15.0350   20.2420 N.3    36  LYS36      -0.1314
     58  N         15.5860   12.8260   20.2220 N.am   37  GLY37      -0.1718
     59  CA        15.2190   13.2070   21.5640 C.2    37  GLY37       0.1480
     60  C         14.9900   12.0750   22.5070 C.2    37  GLY37       0.2820
     61  O         14.9310   10.9020   22.1100 O.2    37  GLY37      -0.2669
     62  N         14.8390   12.4670   23.7660 N.am   38  LYS38      -0.1943
     63  CA        14.6410   11.5290   24.8610 C.3    38  LYS38       0.1599
     64  C         13.2500   10.9050   24.8100 C.2    38  LYS38       0.2287
     65  O         12.2690   11.5370   24.4280 O.2    38  LYS38      -0.2864
     66  CB        14.8980   12.1930   26.2260 C.3    38  LYS38       0.0298
     67  CG        16.3390   12.6270   26.4320 C.3    38  LYS38       0.0038
     68  CD        16.5520   13.3590   27.7490 C.3    38  LYS38       0.0206
     69  CE        16.1920   14.8300   27.6660 C.3    38  LYS38       0.1093
     70  NZ        17.1390   15.6420   26.8590 N.3    38  LYS38      -0.1314
     71  N          9.8540   13.1870   17.7470 N.3    52  GLU52      -0.1245
     72  CA        10.9230   14.1800   17.7080 C.3    52  GLU52       0.1567
     73  C         11.1510   14.6950   16.2910 C.2    52  GLU52       0.2260
     74  O         11.4300   15.8990   16.1130 O.2    52  GLU52      -0.2867
     75  CB        12.1990   13.6190   18.3220 C.3    52  GLU52       0.0388
     76  CG        12.1330   13.4510   19.8170 C.3    52  GLU52       0.1160
     77  CD        12.1620   14.7530   20.5920 C.2    52  GLU52       0.3649
     78  OE1       12.5190   15.7950   20.0190 O.co2  52  GLU52      -0.2457
     79  OE2       11.8540   14.7030   21.7970 O.co2  52  GLU52      -0.2457
     80  N         10.8240   18.6520   15.8930 N.3    56  GLU56      -0.1245
     81  CA        12.0470   19.3960   15.5520 C.3    56  GLU56       0.1567
     82  C         12.0730   19.8580   14.1240 C.2    56  GLU56       0.2260
     83  O         12.7090   20.8910   13.8450 O.2    56  GLU56      -0.2867
     84  CB        13.3060   18.5960   15.8900 C.3    56  GLU56       0.0388
     85  CG        13.4180   18.3580   17.3920 C.3    56  GLU56       0.1160
     86  CD        14.7750   17.8980   17.8610 C.2    56  GLU56       0.3649
     87  OE1       15.5630   17.3590   17.0500 O.co2  56  GLU56      -0.2457
     88  OE2       15.0370   18.0710   19.0680 O.co2  56  GLU56      -0.2457
     89  N         24.0710    5.0130   18.8850 N.3    70  VAL70      -0.1245
     90  CA        25.1180    5.9340   19.2910 C.3    70  VAL70       0.1561
     91  C         25.0760    6.0350   20.8240 C.2    70  VAL70       0.2260
     92  O         24.0220    6.1550   21.4290 O.2    70  VAL70      -0.2867
     93  CB        24.8820    7.3350   18.6500 C.3    70  VAL70       0.0252
     94  CG1       25.7850    8.3970   19.2660 C.3    70  VAL70       0.0019
     95  CG2       25.0470    7.2740   17.1370 C.3    70  VAL70       0.0019
     96  N         27.1410    8.2350   24.0830 N.3    72  TYR72      -0.1228
     97  CA        28.1190    9.2020   24.5250 C.3    72  TYR72       0.1721
     98  C         27.8950    9.5440   25.9690 C.2    72  TYR72       0.2437
     99  O         26.7930    9.4450   26.4640 O.2    72  TYR72      -0.2733
    100  CB        28.1260   10.4550   23.6340 C.3    72  TYR72       0.0547
    101  CG        26.7760   11.1160   23.3710 C.ar   72  TYR72      -0.0200
    102  CD1       25.9960   10.7590   22.2730 C.ar   72  TYR72      -0.0009
    103  CD2       26.3280   12.1520   24.1770 C.ar   72  TYR72      -0.0009
    104  CE1       24.7630   11.3860   22.0180 C.ar   72  TYR72       0.0417
    105  CE2       25.1140   12.7840   23.9400 C.ar   72  TYR72       0.0417
    106  CZ        24.3440   12.4000   22.8570 C.ar   72  TYR72       0.1957
    107  OH        23.1690   13.0210   22.5970 O.3    72  TYR72      -0.2866
    108  N         28.9660    9.9570   26.6580 N.am   73  PRO73      -0.2718
    109  CA        28.9010   10.2760   28.0690 C.3    73  PRO73       0.1535
    110  C         28.1870   11.6070   28.3120 C.2    73  PRO73       0.2598
    111  O         28.3650   12.5570   27.5450 O.2    73  PRO73      -0.2715
    112  CB        30.3770   10.3530   28.4790 C.3    73  PRO73       0.0310
    113  CG        31.1070   10.6620   27.2310 C.3    73  PRO73       0.0237
    114  CD        30.3370   10.0420   26.1210 C.3    73  PRO73       0.0939
    115  N         27.3870   11.6570   29.3680 N.am   74  ILE74      -0.1978
    116  CA        26.7110   12.8730   29.7890 C.3    74  ILE74       0.1596
    117  C         26.8050   12.9360   31.3180 C.2    74  ILE74       0.2287
    118  O         27.1460   11.9530   31.9550 O.2    74  ILE74      -0.2864
    119  CB        25.2310   12.9050   29.3210 C.3    74  ILE74       0.0276
    120  CG1       24.4990   11.6120   29.7340 C.3    74  ILE74       0.0022
    121  CG2       25.1540   13.0990   27.7980 C.3    74  ILE74       0.0022
    122  CD1       23.0000   11.6510   29.5580 C.3    74  ILE74       0.0001
    123  N         24.2810    8.4870   27.3850 N.3    79  LYS79      -0.1245
    124  CA        23.1510    8.7150   26.4820 C.3    79  LYS79       0.1561
    125  C         23.2020    7.6970   25.3630 C.2    79  LYS79       0.2260
    126  O         24.2460    7.5120   24.7500 O.2    79  LYS79      -0.2867
    127  CB        23.1860   10.1180   25.8870 C.3    79  LYS79       0.0271
    128  CG        21.8950   10.4450   25.1480 C.3    79  LYS79       0.0035
    129  CD        21.4080   11.7690   25.5760 C.3    79  LYS79       0.0206
    130  CE        20.2130   12.2160   24.8290 C.3    79  LYS79       0.1093
    131  NZ        20.1440   13.6690   25.0660 N.3    79  LYS79      -0.1314
    132  N         18.7730    5.1230   15.9530 N.3    83  TYR83      -0.1241
    133  CA        18.3760    5.8760   14.7600 C.3    83  TYR83       0.1605
    134  C         17.6010    5.0520   13.7440 C.2    83  TYR83       0.2264
    135  O         17.8930    3.8550   13.5670 O.2    83  TYR83      -0.2867
    136  CB        19.5890    6.5010   14.0700 C.3    83  TYR83       0.0534
    137  CG        20.1860    7.6310   14.8500 C.ar   83  TYR83      -0.0201
    138  CD1       21.1690    7.3970   15.8200 C.ar   83  TYR83      -0.0009
    139  CD2       19.7590    8.9530   14.6470 C.ar   83  TYR83      -0.0009
    140  CE1       21.7120    8.4330   16.5670 C.ar   83  TYR83       0.0417
    141  CE2       20.3230    9.9850   15.3780 C.ar   83  TYR83       0.0417
    142  CZ        21.2700    9.7150   16.3440 C.ar   83  TYR83       0.1957
    143  OH        21.8120   10.7760   17.0830 O.3    83  TYR83      -0.2866
    144  N         29.1980   15.7040   14.3500 N.3   116  TYR116     -0.1228
    145  CA        29.5300   14.6230   15.2540 C.3   116  TYR116      0.1721
    146  C         29.9260   13.3770   14.4150 C.2   116  TYR116      0.2437
    147  O         29.1710   12.8940   13.5800 O.2   116  TYR116     -0.2733
    148  CB        28.3440   14.2640   16.1870 C.3   116  TYR116      0.0547
    149  CG        27.9210   15.3900   17.0840 C.ar  116  TYR116     -0.0200
    150  CD1       28.7990   15.9350   17.9980 C.ar  116  TYR116     -0.0009
    151  CD2       26.6510   15.9600   16.9740 C.ar  116  TYR116     -0.0009
    152  CE1       28.4160   16.9910   18.8170 C.ar  116  TYR116      0.0417
    153  CE2       26.2660   17.0090   17.7800 C.ar  116  TYR116      0.0417
    154  CZ        27.1510   17.5350   18.6910 C.ar  116  TYR116      0.1957
    155  OH        26.8140   18.6170   19.5090 O.3   116  TYR116     -0.2866
    156  N         31.1230   12.8250   14.6780 N.am  117  PRO117     -0.2718
    157  CA        31.5100   11.6170   13.9340 C.3   117  PRO117      0.1535
    158  C         30.4720   10.4890   13.9730 C.2   117  PRO117      0.2599
    159  O         30.2740    9.8050   12.9620 O.2   117  PRO117     -0.2715
    160  CB        32.8360   11.2150   14.5780 C.3   117  PRO117      0.0310
    161  CG        33.3970   12.4870   15.1270 C.3   117  PRO117      0.0237
    162  CD        32.2150   13.3370   15.5200 C.3   117  PRO117      0.0939
    163  N         29.7860   10.2830   15.0760 N.am  118  ASP118     -0.1958
    164  CA        28.8640    9.1560   15.0650 C.3   118  ASP118      0.1840
    165  C         27.5370    9.4620   14.3250 C.2   118  ASP118      0.2622
    166  O         26.8650    8.5290   13.8920 O.2   118  ASP118     -0.2715
    167  CB        28.6830    8.5840   16.4710 C.3   118  ASP118      0.1450
    168  CG        29.9990    8.0800   17.0870 C.2   118  ASP118      0.3671
    169  OD1       30.9770    7.7260   16.3680 O.co2 118  ASP118     -0.2456
    170  OD2       30.0420    8.0180   18.3310 O.co2 118  ASP118     -0.2456
    171  N         27.1750   10.7390   14.1300 N.am  119  ASP119     -0.1971
    172  CA        26.0870   11.0590   13.2380 C.3   119  ASP119      0.1709
    173  C         26.5040   10.7080   11.7980 C.2   119  ASP119      0.2293
    174  O         25.7110   10.2170   11.0230 O.2   119  ASP119     -0.2864
    175  CB        25.6890   12.5280   13.2510 C.3   119  ASP119      0.1436
    176  CG        24.7640   12.9160   14.3770 C.2   119  ASP119      0.3671
    177  OD1       24.2780   12.0640   15.1310 O.co2 119  ASP119     -0.2456
    178  OD2       24.4480   14.1250   14.4320 O.co2 119  ASP119     -0.2456
@<TRIPOS>BOND
     1   174   173    2
     2   173   172    1
     3    46    45    2
     4   159   158    2
     5   172   175    1
     6   172   171    1
     7   175   176    1
     8    45    44    1
     9    43    44    1
    10   135   134    2
    11   147   146    2
    12   134   133    1
    13    83    82    2
    14    44    47    1
    15   166   165    2
    16   157   158    1
    17   157   160    1
    18   157   156    1
    19   158   163   am
    20   136   133    1
    21   136   137    1
    22    82    81    1
    23   171   165   am
    24   165   164    1
    25   144   145    1
    26   176   178   ar
    27   176   177   ar
    28   146   156   am
    29   146   145    1
    30   160   161    1
    31   139   137   ar
    32   139   141   ar
    33   156   162    1
    34   133   132    1
    35   137   138   ar
    36   164   163    1
    37   164   167    1
    38   161   162    1
    39    38    37    2
    40   145   148    1
    41    37    36    1
    42   141   142   ar
    43    47    48    1
    44    81    84    1
    45    81    80    1
    46   138   140   ar
    47    84    85    1
    48    74    73    2
    49   148   149    1
    50     1     2    1
    51    73    72    1
    52   142   140   ar
    53   142   143    1
    54   169   168   ar
    55   167   168    1
    56    36    35    1
    57    36    39    1
    58   151   149   ar
    59   151   153   ar
    60    87    86   ar
    61   149   150   ar
    62   168   170   ar
    63    49    50    1
    64    95    93    1
    65    85    86    1
    66    39    40    1
    67     2     3    1
    68     2     5    1
    69    72    71    1
    70    72    75    1
    71   153   154   ar
    72    86    88   ar
    73    41    40   ar
    74   150   152   ar
    75     6     5    1
    76     6     7    1
    77    50    53    1
    78    50    51    1
    79    40    42   ar
    80     3     4    2
    81    75    76    1
    82    53    54    1
    83    93    94    1
    84    93    90    1
    85   154   152   ar
    86   154   155    1
    87    89    90    1
    88    54    55    1
    89     7     8    1
    90     8     9    2
    91    90    91    1
    92    51    52    2
    93    51    58    1
    94    76    77    1
    95    78    77   ar
    96     9    10    1
    97     9    11    1
    98    26    25    2
    99    55    56    1
   100    58    59    2
   101    57    56    1
   102    25    24    1
   103    77    79   ar
   104    91    92    2
   105    27    24    1
   106    27    28    1
   107    12    13    1
   108    24    23    1
   109    23    14   am
   110    59    60    1
   111   104   102   ar
   112   104   106   ar
   113    61    60    2
   114    30    28   ar
   115    30    32   ar
   116   102   101   ar
   117    28    29   ar
   118    60    62   am
   119    14    13    1
   120    14    15    2
   121   107   106    1
   122    13    16    1
   123   106   105   ar
   124    32    33   ar
   125    16    17    1
   126   101   100    1
   127   101   103   ar
   128   100    97    1
   129    29    31   ar
   130    62    63    1
   131   105   103   ar
   132    96    97    1
   133    65    64    2
   134    33    31   ar
   135    33    34    1
   136    97    98    1
   137    17    18    1
   138   126   125    2
   139    64    63    1
   140   130   131    1
   141   130   129    1
   142    63    66    1
   143   128   129    1
   144   128   127    1
   145    18    19    1
   146   125   124    1
   147   127   124    1
   148    98    99    2
   149    98   108   am
   150   114   108    1
   151   114   113    1
   152    66    67    1
   153    67    68    1
   154   124   123    1
   155    22    20    1
   156   108   109    1
   157    19    20    2
   158    70    69    1
   159   113   112    1
   160    20    21    1
   161   111   110    2
   162    69    68    1
   163   121   119    1
   164   109   110    1
   165   109   112    1
   166   110   115   am
   167   119   120    1
   168   119   116    1
   169   115   116    1
   170   122   120    1
   171   116   117    1
   172   117   118    2
