@<TRIPOS>MOLECULE
tmp/5xd4A01.pdb
 156 151 0 0 0
SMALL
GASTEIGER

@<TRIPOS>ATOM
      1  N          5.6580  -10.9350   18.4580 N.3   140  ARG140     -0.1231
      2  CA         5.3210  -12.0010   19.4230 C.3   140  ARG140      0.1694
      3  C          4.1890  -11.4830   20.3200 C.2   140  ARG140      0.2592
      4  O          4.2920  -10.3900   20.8460 O.2   140  ARG140     -0.2718
      5  CB         6.4950  -12.4850   20.2400 C.3   140  ARG140      0.0321
      6  CG         6.1270  -13.7410   21.0260 C.3   140  ARG140      0.0489
      7  CD         7.2640  -14.3830   21.7430 C.3   140  ARG140      0.2205
      8  NE         6.8290  -15.4870   22.6000 N.pl3 140  ARG140     -0.0865
      9  CZ         7.4930  -15.9790   23.6400 C.cat 140  ARG140      0.5346
     10  NH1        8.6720  -15.4800   24.0290 N.pl3 140  ARG140      0.1354
     11  NH2        6.9640  -16.9670   24.3630 N.pl3 140  ARG140      0.1354
     12  N          3.0920  -12.2440   20.4570 N.am  141  HIS141     -0.1976
     13  CA         2.0120  -11.7840   21.3000 C.3   141  HIS141      0.1656
     14  C          2.4750  -11.4120   22.7080 C.2   141  HIS141      0.2291
     15  O          3.5330  -11.8750   23.2310 O.2   141  HIS141     -0.2864
     16  CB         0.9310  -12.8370   21.3940 C.3   141  HIS141      0.0771
     17  CG         1.3560  -14.0640   22.1190 C.ar  141  HIS141      0.0820
     18  ND1        1.4280  -14.1360   23.4950 N.ar  141  HIS141     -0.2267
     19  CD2        1.6930  -15.2880   21.6560 C.ar  141  HIS141      0.1154
     20  CE1        1.8350  -15.3450   23.8440 C.ar  141  HIS141      0.1986
     21  NE2        1.9670  -16.0580   22.7470 N.ar  141  HIS141     -0.2212
     22  N          0.5720  -13.5300   28.6280 N.3   144  ALA144     -0.1231
     23  CA        -0.7320  -14.1910   28.6690 C.3   144  ALA144      0.1694
     24  C         -0.7170  -15.2970   29.7280 C.2   144  ALA144      0.2593
     25  O         -1.1670  -16.4200   29.4900 O.2   144  ALA144     -0.2718
     26  CB        -1.0450  -14.7410   27.3000 C.3   144  ALA144      0.0304
     27  N         -0.2240  -14.9630   30.9070 N.am  145  GLY145     -0.1942
     28  CA        -0.0630  -15.9390   31.9710 C.3   145  GLY145      0.2014
     29  C          0.8020  -17.1090   31.5250 C.2   145  GLY145      0.2639
     30  O          1.7100  -16.9570   30.7260 O.2   145  GLY145     -0.2714
     31  N          0.4890  -18.3040   31.9960 N.am  146  ARG146     -0.1963
     32  CA         1.3330  -19.4760   31.7050 C.3   146  ARG146      0.1729
     33  C          0.5020  -20.6400   31.1840 C.2   146  ARG146      0.2616
     34  O         -0.6480  -20.8190   31.6140 O.2   146  ARG146     -0.2715
     35  CB         2.0660  -19.9000   32.9730 C.3   146  ARG146      0.0348
     36  CG         3.4810  -19.3850   33.1440 C.3   146  ARG146      0.0492
     37  CD         4.2920  -20.4150   33.9360 C.3   146  ARG146      0.2205
     38  NE         5.5200  -19.8850   34.5330 N.pl3 146  ARG146     -0.0865
     39  CZ         6.3690  -20.5970   35.2800 C.cat 146  ARG146      0.5346
     40  NH1        7.4580  -20.0200   35.7830 N.pl3 146  ARG146      0.1354
     41  NH2        6.1400  -21.8870   35.5300 N.pl3 146  ARG146      0.1354
     42  N          1.0900  -21.4480   30.2950 N.am  147  ARG147     -0.1963
     43  CA         0.4510  -22.6950   29.8860 C.3   147  ARG147      0.1729
     44  C          0.2850  -23.6050   31.0620 C.2   147  ARG147      0.2617
     45  O          1.0490  -23.5090   32.0180 O.2   147  ARG147     -0.2715
     46  CB         1.2940  -23.4440   28.8540 C.3   147  ARG147      0.0348
     47  CG         1.1280  -22.9010   27.4660 C.3   147  ARG147      0.0492
     48  CD         1.9600  -23.6770   26.5180 C.3   147  ARG147      0.2205
     49  NE         2.4030  -22.8740   25.4060 N.pl3 147  ARG147     -0.0865
     50  CZ         2.7850  -23.3610   24.2360 C.cat 147  ARG147      0.5346
     51  NH1        2.7740  -24.6730   24.0120 N.pl3 147  ARG147      0.1354
     52  NH2        3.2110  -22.5370   23.2820 N.pl3 147  ARG147      0.1354
     53  N         -0.7040  -24.5120   31.0130 N.am  148  SER148     -0.1936
     54  CA        -0.7040  -25.6220   31.9760 C.3   148  SER148      0.2055
     55  C          0.5410  -26.4380   31.6980 C.2   148  SER148      0.2643
     56  O          1.1110  -26.3630   30.6110 O.2   148  SER148     -0.2714
     57  CB        -1.9270  -26.5320   31.8400 C.3   148  SER148      0.2130
     58  OG        -1.8020  -27.3720   30.7020 O.3   148  SER148     -0.2179
     59  N          0.9400  -27.2480   32.6610 N.am  149  ARG149     -0.1963
     60  CA         2.1670  -28.0180   32.5180 C.3   149  ARG149      0.1729
     61  C          1.9640  -29.3280   31.7510 C.2   149  ARG149      0.2616
     62  O          2.9480  -30.0620   31.5040 O.2   149  ARG149     -0.2715
     63  CB         2.8130  -28.2260   33.8860 C.3   149  ARG149      0.0348
     64  CG         3.3050  -26.9040   34.4690 C.3   149  ARG149      0.0492
     65  CD         3.8900  -27.0690   35.8560 C.3   149  ARG149      0.2205
     66  NE         4.9820  -28.0400   35.8700 N.pl3 149  ARG149     -0.0865
     67  CZ         5.5620  -28.5010   36.9740 C.cat 149  ARG149      0.5346
     68  NH1        6.5320  -29.3910   36.8850 N.pl3 149  ARG149      0.1354
     69  NH2        5.1700  -28.0830   38.1770 N.pl3 149  ARG149      0.1354
     70  N          0.7170  -29.6190   31.3460 N.am  150  TYR150     -0.1960
     71  CA         0.5210  -30.6970   30.3840 C.3   150  TYR150      0.1771
     72  C          0.8940  -30.2680   28.9470 C.2   150  TYR150      0.2619
     73  O          0.5250  -29.1750   28.4530 O.2   150  TYR150     -0.2715
     74  CB        -0.8200  -31.4500   30.5330 C.3   150  TYR150      0.0574
     75  CG        -2.1440  -30.8230   30.0900 C.ar  150  TYR150     -0.0198
     76  CD1       -2.2700  -30.0110   28.9500 C.ar  150  TYR150     -0.0009
     77  CD2       -3.3080  -31.1370   30.7910 C.ar  150  TYR150     -0.0009
     78  CE1       -3.5110  -29.4940   28.5720 C.ar  150  TYR150      0.0417
     79  CE2       -4.5380  -30.6310   30.4200 C.ar  150  TYR150      0.0417
     80  CZ        -4.6460  -29.8110   29.3190 C.ar  150  TYR150      0.1957
     81  OH        -5.9050  -29.3330   28.9960 O.3   150  TYR150     -0.2866
     82  N          1.7100  -31.1170   28.3290 N.am  151  LYS151     -0.1963
     83  CA         2.3190  -30.8490   27.0290 C.3   151  LYS151      0.1728
     84  C          1.2450  -30.4940   25.9820 C.2   151  LYS151      0.2616
     85  O          0.2470  -31.2030   25.8310 O.2   151  LYS151     -0.2715
     86  CB         3.1390  -32.0720   26.6060 C.3   151  LYS151      0.0311
     87  CG         4.1970  -31.8310   25.5450 C.3   151  LYS151      0.0038
     88  CD         5.1550  -33.0240   25.4750 C.3   151  LYS151      0.0206
     89  CE         6.0080  -32.9940   24.2210 C.3   151  LYS151      0.1093
     90  NZ         6.6540  -34.3150   23.9760 N.3   151  LYS151     -0.1314
     91  N          1.4560  -29.3870   25.2670 N.am  152  GLY152     -0.1955
     92  CA         0.4900  -28.9140   24.2610 C.3   152  GLY152      0.1869
     93  C          0.3170  -27.3990   24.3100 C.2   152  GLY152      0.2309
     94  O          0.8320  -26.7460   25.2010 O.2   152  GLY152     -0.2863
     95  N         -6.4280  -19.1280   25.7650 N.3   157  ARG157     -0.1245
     96  CA        -5.8400  -18.3930   26.8930 C.3   157  ARG157      0.1563
     97  C         -5.5880  -16.9400   26.5040 C.2   157  ARG157      0.2260
     98  O         -4.9230  -16.6750   25.5070 O.2   157  ARG157     -0.2867
     99  CB        -4.5240  -19.0390   27.3240 C.3   157  ARG157      0.0307
    100  CG        -3.7500  -18.2980   28.4160 C.3   157  ARG157      0.0489
    101  CD        -2.7500  -19.2000   29.1350 C.3   157  ARG157      0.2205
    102  NE        -2.0120  -20.0080   28.1830 N.pl3 157  ARG157     -0.0865
    103  CZ        -0.9480  -19.6090   27.5010 C.cat 157  ARG157      0.5346
    104  NH1       -0.4180  -18.4120   27.7270 N.pl3 157  ARG157      0.1354
    105  NH2       -0.3910  -20.4230   26.5940 N.pl3 157  ARG157      0.1354
    106  N         -4.6500  -15.1380   22.0910 N.3   189  ARG189     -0.1245
    107  CA        -3.6500  -14.1960   22.5920 C.3   189  ARG189      0.1563
    108  C         -2.9260  -13.4390   21.4900 C.2   189  ARG189      0.2260
    109  O         -2.5090  -12.3050   21.7220 O.2   189  ARG189     -0.2867
    110  CB        -2.6690  -14.8390   23.5530 C.3   189  ARG189      0.0307
    111  CG        -1.8660  -15.9820   22.9730 C.3   189  ARG189      0.0489
    112  CD        -1.3870  -16.8210   24.1270 C.3   189  ARG189      0.2205
    113  NE        -0.4990  -17.9600   23.8170 N.pl3 189  ARG189     -0.0865
    114  CZ        -0.8990  -19.2090   23.5530 C.cat 189  ARG189      0.5346
    115  NH1       -2.1940  -19.5120   23.4000 N.pl3 189  ARG189      0.1354
    116  NH2        0.0250  -20.1620   23.4060 N.pl3 189  ARG189      0.1354
    117  N          2.2140  -22.4120   16.5180 N.3   213  GLU213     -0.1245
    118  CA         3.2820  -23.3330   16.9690 C.3   213  GLU213      0.1567
    119  C          3.0530  -24.7370   16.3950 C.2   213  GLU213      0.2260
    120  O          3.9470  -25.3330   15.7750 O.2   213  GLU213     -0.2867
    121  CB         3.3450  -23.3500   18.4890 C.3   213  GLU213      0.0388
    122  CG         4.0820  -24.5020   19.0880 C.3   213  GLU213      0.1160
    123  CD         4.0110  -24.4870   20.5890 C.2   213  GLU213      0.3649
    124  OE1        3.3220  -25.3500   21.2030 O.co2 213  GLU213     -0.2457
    125  OE2        4.6320  -23.5940   21.1740 O.co2 213  GLU213     -0.2457
    126  N          3.7080  -16.6880   17.6460 N.3   242  GLN242     -0.1231
    127  CA         4.1360  -17.3000   18.8700 C.3   242  GLN242      0.1698
    128  C          5.6550  -17.5150   18.8900 C.2   242  GLN242      0.2593
    129  O          6.3300  -17.4970   17.8400 O.2   242  GLN242     -0.2718
    130  CB         3.4570  -18.6560   19.0570 C.3   242  GLN242      0.0381
    131  CG         1.9430  -18.5400   19.1340 C.3   242  GLN242      0.0905
    132  CD         1.2920  -19.8990   19.2580 C.2   242  GLN242      0.2608
    133  OE1        0.9370  -20.4970   18.2670 O.2   242  GLN242     -0.2717
    134  NE2        1.1990  -20.3900   20.4760 N.am  242  GLN242     -0.0878
    135  N          6.1360  -17.7630   20.0930 N.am  243  GLY243     -0.1942
    136  CA         7.5770  -17.8710   20.3840 C.3   243  GLY243      0.2014
    137  C          8.3290  -18.9840   19.6910 C.2   243  GLY243      0.2638
    138  O          9.5250  -18.8290   19.4230 O.2   243  GLY243     -0.2714
    139  N          7.6810  -20.1130   19.3970 N.am  244  LYS244     -0.1977
    140  CA         8.4060  -21.1880   18.7440 C.3   244  LYS244      0.1596
    141  C          8.5450  -20.9410   17.2260 C.2   244  LYS244      0.2287
    142  O          9.3760  -21.5650   16.5770 O.2   244  LYS244     -0.2864
    143  CB         7.8130  -22.5620   19.1200 C.3   244  LYS244      0.0298
    144  CG         8.2970  -23.0110   20.5100 C.3   244  LYS244      0.0038
    145  CD         7.4710  -24.1650   21.0900 C.3   244  LYS244      0.0206
    146  CE         8.2860  -25.3290   21.5860 C.3   244  LYS244      0.1093
    147  NZ         7.3850  -26.5010   21.8150 N.3   244  LYS244     -0.1314
    148  N          7.9720  -11.8280   24.6400 N.3   268  LYS268     -0.1245
    149  CA         6.5400  -11.5540   24.4210 C.3   268  LYS268      0.1561
    150  C          6.3460  -10.0380   24.3010 C.2   268  LYS268      0.2260
    151  O          6.8760   -9.2870   25.1260 O.2   268  LYS268     -0.2867
    152  CB         5.7450  -12.1170   25.6100 C.3   268  LYS268      0.0271
    153  CG         5.7130  -13.6360   25.6300 C.3   268  LYS268      0.0035
    154  CD         5.1780  -14.2000   26.9500 C.3   268  LYS268      0.0206
    155  CE         5.4580  -15.6800   27.1260 C.3   268  LYS268      0.1093
    156  NZ         5.0190  -16.0630   28.5020 N.3   268  LYS268     -0.1314
@<TRIPOS>BOND
     1   120   119    2
     2   119   118    1
     3   117   118    1
     4   142   141    2
     5   118   121    1
     6   141   140    1
     7   126   127    1
     8   129   128    2
     9   133   132    2
    10     1     2    1
    11   121   122    1
    12   140   143    1
    13   140   139    1
    14   127   128    1
    15   127   130    1
    16   128   135   am
    17   130   131    1
    18   122   123    1
    19   143   144    1
    20   131   132    1
    21   132   134   am
    22   139   137   am
    23     2     5    1
    24     2     3    1
    25   138   137    2
    26   137   136    1
    27   135   136    1
    28     5     6    1
    29     3    12   am
    30     3     4    2
    31    12    13    1
    32   144   145    1
    33   123   125   ar
    34   123   124   ar
    35     6     7    1
    36   145   146    1
    37    13    16    1
    38    13    14    1
    39    16    17    1
    40   108   109    2
    41   108   107    1
    42   146   147    1
    43    19    17   ar
    44    19    21   ar
    45     7     8    1
    46   106   107    1
    47    17    18   ar
    48   107   110    1
    49     8     9    2
    50    14    15    2
    51    21    20   ar
    52   111   110    1
    53   111   112    1
    54    52    50    1
    55   115   114    1
    56   116   114    1
    57    18    20   ar
    58   114   113    2
    59     9    10    1
    60     9    11    1
    61   113   112    1
    62    90    89    1
    63    51    50    1
    64    89    88    1
    65    50    49    2
    66    92    93    1
    67    92    91    1
    68   150   149    1
    69   150   151    2
    70    93    94    2
    71   149   148    1
    72   149   152    1
    73    91    84   am
    74    49    48    1
    75    88    87    1
    76    98    97    2
    77    87    86    1
    78   152   153    1
    79   153   154    1
    80    95    96    1
    81    85    84    2
    82    84    83    1
    83    97    96    1
    84    48    47    1
    85   105   103    1
    86    86    83    1
    87    96    99    1
    88   154   155    1
    89    83    82    1
    90   155   156    1
    91    26    23    1
    92    99   100    1
    93    47    46    1
    94   103   104    1
    95   103   102    2
    96   102   101    1
    97    82    72   am
    98   100   101    1
    99    73    72    2
   100    78    76   ar
   101    78    80   ar
   102    22    23    1
   103    23    24    1
   104    46    43    1
   105    72    71    1
   106    76    75   ar
   107    81    80    1
   108    80    79   ar
   109    25    24    2
   110    24    27   am
   111    43    42    1
   112    43    44    1
   113    75    74    1
   114    75    77   ar
   115    42    33   am
   116    71    74    1
   117    71    70    1
   118    79    77   ar
   119    56    55    2
   120    58    57    1
   121    30    29    2
   122    27    28    1
   123    53    44   am
   124    53    54    1
   125    44    45    2
   126    33    34    2
   127    33    32    1
   128    70    61   am
   129    62    61    2
   130    29    28    1
   131    29    31   am
   132    55    54    1
   133    55    59   am
   134    32    31    1
   135    32    35    1
   136    61    60    1
   137    57    54    1
   138    60    59    1
   139    60    63    1
   140    35    36    1
   141    36    37    1
   142    63    64    1
   143    37    38    1
   144    64    65    1
   145    38    39    2
   146    39    41    1
   147    39    40    1
   148    65    66    1
   149    66    67    2
   150    68    67    1
   151    67    69    1
