@<TRIPOS>MOLECULE
tmp/5xdcB00.pdb
 118 114 0 0 0
SMALL
GASTEIGER

@<TRIPOS>ATOM
      1  N         17.8180  -34.0130  -17.2920 N.3    77  HIS77      -0.1241
      2  CA        18.1660  -34.7820  -16.1040 C.3    77  HIS77       0.1621
      3  C         16.9650  -34.9290  -15.1680 C.2    77  HIS77       0.2264
      4  O         16.6490  -36.0330  -14.7170 O.2    77  HIS77      -0.2867
      5  CB        19.3490  -34.0820  -15.4320 C.3    77  HIS77       0.0745
      6  CG        19.6610  -34.5390  -14.0490 C.ar   77  HIS77       0.0817
      7  ND1       20.9360  -34.9000  -13.6770 N.ar   77  HIS77      -0.2268
      8  CD2       18.9130  -34.5880  -12.9220 C.ar   77  HIS77       0.1154
      9  CE1       20.9480  -35.2080  -12.3930 C.ar   77  HIS77       0.1986
     10  NE2       19.7290  -35.0380  -11.9140 N.ar   77  HIS77      -0.2212
     11  N         15.3810  -38.5010  -14.4710 N.3    81  TYR81      -0.1241
     12  CA        15.4170  -39.0610  -13.1280 C.3    81  TYR81       0.1605
     13  C         14.0170  -39.3730  -12.6230 C.2    81  TYR81       0.2264
     14  O         13.8340  -40.3160  -11.8510 O.2    81  TYR81      -0.2867
     15  CB        16.0870  -38.0950  -12.1610 C.3    81  TYR81       0.0534
     16  CG        17.5540  -38.3060  -11.9590 C.ar   81  TYR81      -0.0201
     17  CD1       18.4780  -37.8540  -12.8960 C.ar   81  TYR81      -0.0009
     18  CD2       18.0250  -38.9190  -10.8150 C.ar   81  TYR81      -0.0009
     19  CE1       19.8400  -38.0270  -12.7060 C.ar   81  TYR81       0.0417
     20  CE2       19.3990  -39.0960  -10.6050 C.ar   81  TYR81       0.0417
     21  CZ        20.3020  -38.6480  -11.5590 C.ar   81  TYR81       0.1957
     22  OH        21.6720  -38.8070  -11.3890 O.3    81  TYR81      -0.2866
     23  N         21.6620  -42.6150   -4.8530 N.3   118  GLU118     -0.1245
     24  CA        23.0540  -42.3750   -5.2330 C.3   118  GLU118      0.1567
     25  C         23.8740  -42.2010   -3.9620 C.2   118  GLU118      0.2260
     26  O         24.1980  -41.0820   -3.5610 O.2   118  GLU118     -0.2867
     27  CB        23.1240  -41.1550   -6.1470 C.3   118  GLU118      0.0388
     28  CG        22.5060  -41.4720   -7.4880 C.3   118  GLU118      0.1160
     29  CD        22.2110  -40.2740   -8.3480 C.2   118  GLU118      0.3649
     30  OE1       22.5390  -39.1240   -7.9690 O.co2 118  GLU118     -0.2457
     31  OE2       21.6440  -40.4950   -9.4320 O.co2 118  GLU118     -0.2457
     32  N         23.2380  -35.5460   -2.5760 N.3   146  PHE146     -0.1241
     33  CA        22.9490  -35.8310   -3.9820 C.3   146  PHE146      0.1605
     34  C         21.5270  -36.3550   -4.1510 C.2   146  PHE146      0.2264
     35  O         21.2890  -37.4760   -4.6050 O.2   146  PHE146     -0.2867
     36  CB        23.9680  -36.8070   -4.5720 C.3   146  PHE146      0.0534
     37  CG        25.2800  -36.1540   -4.9260 C.ar  146  PHE146     -0.0203
     38  CD1       25.4480  -35.5270   -6.1530 C.ar  146  PHE146     -0.0042
     39  CD2       26.3320  -36.1540   -4.0270 C.ar  146  PHE146     -0.0042
     40  CE1       26.6590  -34.9210   -6.4810 C.ar  146  PHE146     -0.0003
     41  CE2       27.5390  -35.5510   -4.3450 C.ar  146  PHE146     -0.0003
     42  CZ        27.7010  -34.9330   -5.5730 C.ar  146  PHE146     -0.0000
     43  N         18.8750  -35.6790   -6.2810 N.3   148  SER148     -0.1217
     44  CA        18.4930  -35.0480   -7.5370 C.3   148  SER148      0.1889
     45  C         16.9940  -34.7920   -7.6140 C.2   148  SER148      0.2288
     46  O         16.1760  -35.6470   -7.2650 O.2   148  SER148     -0.2866
     47  CB        18.9260  -35.9240   -8.7130 C.3   148  SER148      0.2089
     48  OG        20.3170  -36.1730   -8.6520 O.3   148  SER148     -0.2183
     49  N         22.9200  -26.4820   -3.6030 N.3   190  TRP190     -0.1241
     50  CA        23.4170  -26.9840   -4.8810 C.3   190  TRP190      0.1605
     51  C         23.9390  -25.8110   -5.6940 C.2   190  TRP190      0.2264
     52  O         23.1650  -24.9480   -6.1240 O.2   190  TRP190     -0.2867
     53  CB        22.3230  -27.7280   -5.6380 C.3   190  TRP190      0.0550
     54  CG        22.7520  -28.3150   -6.9790 C.ar  190  TRP190      0.0003
     55  CD1       22.3120  -27.9420   -8.2190 C.ar  190  TRP190      0.0946
     56  CD2       23.6650  -29.3980   -7.1910 C.ar  190  TRP190      0.0152
     57  NE1       22.9030  -28.7150   -9.1850 N.ar  190  TRP190     -0.2442
     58  CE2       23.7350  -29.6210   -8.5800 C.ar  190  TRP190      0.0810
     59  CE3       24.4380  -30.1910   -6.3430 C.ar  190  TRP190      0.0012
     60  CZ2       24.5500  -30.6050   -9.1350 C.ar  190  TRP190      0.0191
     61  CZ3       25.2400  -31.1750   -6.8970 C.ar  190  TRP190      0.0001
     62  CH2       25.2870  -31.3720   -8.2760 C.ar  190  TRP190      0.0015
     63  N         24.8640  -29.0230  -14.7610 N.3   195  MET195     -0.1245
     64  CA        23.6020  -29.5350  -14.2170 C.3   195  MET195      0.1570
     65  C         23.0920  -28.6200  -13.1010 C.2   195  MET195      0.2261
     66  O         22.6130  -29.0660  -12.0580 O.2   195  MET195     -0.2867
     67  CB        23.7590  -30.9710  -13.7180 C.3   195  MET195      0.0387
     68  CG        24.0520  -31.9870  -14.8360 C.3   195  MET195      0.0595
     69  SD        22.6820  -32.0120  -16.0330 S.3   195  MET195     -0.1393
     70  CE        23.0840  -33.4940  -16.9660 C.3   195  MET195      0.0692
     71  N         19.3460  -28.8300  -11.3850 N.3   198  THR198     -0.1218
     72  CA        18.8240  -30.1430  -11.0270 C.3   198  THR198      0.1862
     73  C         18.5290  -30.2790   -9.5390 C.2   198  THR198      0.2287
     74  O         18.0750  -31.3460   -9.1140 O.2   198  THR198     -0.2866
     75  CB        19.7920  -31.2560  -11.4480 C.3   198  THR198      0.1770
     76  OG1       21.0440  -31.1280  -10.7580 O.3   198  THR198     -0.2211
     77  CG2       20.0020  -31.2320  -12.9720 C.3   198  THR198      0.0375
     78  N         20.3190  -30.8930   -6.8910 N.3   200  SER200     -0.1217
     79  CA        20.9300  -32.1350   -6.4490 C.3   200  SER200      0.1889
     80  C         21.6910  -31.9600   -5.1440 C.2   200  SER200      0.2288
     81  O         22.6470  -32.6930   -4.8690 O.2   200  SER200     -0.2866
     82  CB        21.8360  -32.6890   -7.5460 C.3   200  SER200      0.2089
     83  OG        21.0660  -33.0600   -8.6730 O.3   200  SER200     -0.2183
     84  N         30.0810  -32.6490  -15.6260 N.3   372  THR372     -0.1203
     85  CA        29.5370  -32.8760  -14.2890 C.3   372  THR372      0.1994
     86  C         28.8720  -34.2460  -14.1840 C.2   372  THR372      0.2617
     87  O         29.2410  -35.0670  -13.3370 O.2   372  THR372     -0.2717
     88  CB        28.5480  -31.7550  -13.9380 C.3   372  THR372      0.1784
     89  OG1       29.2260  -30.4890  -13.9080 O.3   372  THR372     -0.2211
     90  CG2       27.9100  -31.9680  -12.5680 C.3   372  THR372      0.0376
     91  N         27.8730  -34.5200  -15.0240 N.am  373  HIS373     -0.1975
     92  CA        27.0910  -35.7120  -14.7470 C.3   373  HIS373      0.1656
     93  C         27.7970  -37.0040  -15.1390 C.2   373  HIS373      0.2291
     94  O         27.5220  -38.0450  -14.5310 O.2   373  HIS373     -0.2864
     95  CB        25.7280  -35.6720  -15.4200 C.3   373  HIS373      0.0771
     96  CG        24.8110  -36.6840  -14.8280 C.ar  373  HIS373      0.0820
     97  ND1       24.6400  -37.9290  -15.3880 N.ar  373  HIS373     -0.2267
     98  CD2       24.1450  -36.7040  -13.6460 C.ar  373  HIS373      0.1154
     99  CE1       23.8430  -38.6480  -14.6150 C.ar  373  HIS373      0.1986
    100  NE2       23.5310  -37.9310  -13.5490 N.ar  373  HIS373     -0.2212
    101  N         30.4470  -37.9970  -14.2860 N.3   375  LEU375     -0.1231
    102  CA        31.1570  -38.4370  -13.0970 C.3   375  LEU375      0.1693
    103  C         30.2590  -39.1530  -12.1000 C.2   375  LEU375      0.2592
    104  O         30.7540  -39.6000  -11.0570 O.2   375  LEU375     -0.2718
    105  CB        31.8060  -37.2350  -12.4110 C.3   375  LEU375      0.0284
    106  CG        32.7590  -36.4370  -13.3020 C.3   375  LEU375      0.0019
    107  CD1       33.1590  -35.1390  -12.6290 C.3   375  LEU375      0.0001
    108  CD2       33.9920  -37.2550  -13.6340 C.3   375  LEU375      0.0001
    109  N         28.9610  -39.2710  -12.3960 N.am  376  HIS376     -0.1976
    110  CA        28.0290  -39.9250  -11.4790 C.3   376  HIS376      0.1656
    111  C         28.6060  -41.2230  -10.9300 C.2   376  HIS376      0.2291
    112  O         28.5590  -41.4840   -9.7190 O.2   376  HIS376     -0.2864
    113  CB        26.7050  -40.1760  -12.2070 C.3   376  HIS376      0.0771
    114  CG        25.7070  -40.9390  -11.4020 C.ar  376  HIS376      0.0820
    115  ND1       25.7110  -42.3160  -11.3250 N.ar  376  HIS376     -0.2267
    116  CD2       24.6640  -40.5170  -10.6500 C.ar  376  HIS376      0.1154
    117  CE1       24.7100  -42.7090  -10.5540 C.ar  376  HIS376      0.1986
    118  NE2       24.0560  -41.6380  -10.1400 N.ar  376  HIS376     -0.2212
@<TRIPOS>BOND
     1     1     2    1
     2    70    69    1
     3     2     5    1
     4     2     3    1
     5    69    68    1
     6    84    85    1
     7     5     6    1
     8    95    96    1
     9    95    92    1
    10    97    96   ar
    11    97    99   ar
    12     3     4    2
    13    93    92    1
    14    93    94    2
    15    91    92    1
    16    91    86   am
    17    68    67    1
    18    96    98   ar
    19    63    64    1
    20    99   100   ar
    21    11    12    1
    22    85    86    1
    23    85    88    1
    24   101   102    1
    25    64    67    1
    26    64    65    1
    27    86    87    2
    28     6     7   ar
    29     6     8   ar
    30    88    89    1
    31    88    90    1
    32     7     9   ar
    33    98   100   ar
    34   108   106    1
    35   106   107    1
    36   106   105    1
    37    12    13    1
    38    12    15    1
    39    65    66    2
    40   102   105    1
    41   102   103    1
    42    77    75    1
    43     8    10   ar
    44    17    19   ar
    45    17    16   ar
    46    19    21   ar
    47    13    14    2
    48   109   103   am
    49   109   110    1
    50     9    10   ar
    51   113   110    1
    52   113   114    1
    53    15    16    1
    54   103   104    2
    55    16    18   ar
    56    21    22    1
    57    21    20   ar
    58   110   111    1
    59    75    72    1
    60    75    76    1
    61   114   115   ar
    62   114   116   ar
    63    71    72    1
    64   115   117   ar
    65    72    73    1
    66   111   112    2
    67    18    20   ar
    68   116   118   ar
    69   117   118   ar
    70    73    74    2
    71    31    29   ar
    72    57    58   ar
    73    57    55   ar
    74    60    58   ar
    75    60    62   ar
    76    47    48    1
    77    47    44    1
    78    83    82    1
    79    58    56   ar
    80    29    30   ar
    81    29    28    1
    82    62    61   ar
    83    55    54   ar
    84    45    44    1
    85    45    46    2
    86    82    79    1
    87    44    43    1
    88    28    27    1
    89    56    54   ar
    90    56    59   ar
    91    54    53    1
    92    61    59   ar
    93    78    79    1
    94    40    38   ar
    95    40    42   ar
    96    79    80    1
    97    38    37   ar
    98    27    24    1
    99    52    51    2
   100    51    50    1
   101    53    50    1
   102    42    41   ar
   103    24    23    1
   104    24    25    1
   105    80    81    2
   106    37    36    1
   107    37    39   ar
   108    50    49    1
   109    35    34    2
   110    36    33    1
   111    41    39   ar
   112    34    33    1
   113    33    32    1
   114    25    26    2
