@<TRIPOS>MOLECULE
tmp/5xddD02.pdb
 144 142 0 0 0
SMALL
GASTEIGER

@<TRIPOS>ATOM
      1  N          3.2380  -21.0590   27.5630 N.3    79  TYR79      -0.1241
      2  CA         4.1800  -21.1400   26.4590 C.3    79  TYR79       0.1605
      3  C          4.4840  -22.5740   26.0980 C.2    79  TYR79       0.2264
      4  O          4.7510  -22.8670   24.9310 O.2    79  TYR79      -0.2867
      5  CB         5.4790  -20.4600   26.7980 C.3    79  TYR79       0.0534
      6  CG         5.5820  -19.0520   26.3230 C.ar   79  TYR79      -0.0201
      7  CD1        4.9470  -18.0250   27.0070 C.ar   79  TYR79      -0.0009
      8  CD2        6.3360  -18.7420   25.2080 C.ar   79  TYR79      -0.0009
      9  CE1        5.0510  -16.7160   26.5830 C.ar   79  TYR79       0.0417
     10  CE2        6.4600  -17.4300   24.7800 C.ar   79  TYR79       0.0417
     11  CZ         5.8240  -16.4190   25.4750 C.ar   79  TYR79       0.1957
     12  OH         5.9380  -15.1010   25.0580 O.3    79  TYR79      -0.2866
     13  N          2.0860  -23.1640   23.5260 N.3    82  SER82      -0.1202
     14  CA         2.4850  -22.5600   22.2440 C.3    82  SER82       0.2020
     15  C          3.5180  -23.4320   21.5460 C.2    82  SER82       0.2618
     16  O          3.4380  -23.6730   20.3320 O.2    82  SER82      -0.2717
     17  CB         3.0390  -21.1410   22.4580 C.3    82  SER82       0.2103
     18  OG         3.5460  -20.5700   21.2560 O.3    82  SER82      -0.2182
     19  N          4.4770  -23.9430   22.3090 N.am   83  ASN83      -0.1974
     20  CA         5.4780  -24.8250   21.7480 C.3    83  ASN83       0.1688
     21  C          4.8300  -26.1010   21.2350 C.2    83  ASN83       0.2292
     22  O          5.1540  -26.5710   20.1410 O.2    83  ASN83      -0.2864
     23  CB         6.5490  -25.1570   22.8010 C.3    83  ASN83       0.1181
     24  CG         7.2820  -23.9130   23.3190 C.2    83  ASN83       0.2629
     25  OD1        7.3960  -22.9070   22.6180 O.2    83  ASN83      -0.2716
     26  ND2        7.7320  -23.9700   24.5720 N.am   83  ASN83      -0.0877
     27  N         11.5520  -22.9060   24.7610 N.3   112  ASN112     -0.1240
     28  CA        11.8400  -22.4920   23.4020 C.3   112  ASN112      0.1653
     29  C         13.0310  -21.5550   23.3540 C.2   112  ASN112      0.2266
     30  O         13.4010  -20.9250   24.3450 O.2   112  ASN112     -0.2867
     31  CB        10.5990  -21.8720   22.7070 C.3   112  ASN112      0.1155
     32  CG        10.4090  -20.4460   23.0140 C.2   112  ASN112      0.2627
     33  OD1       10.7630  -19.5440   22.2300 O.2   112  ASN112     -0.2716
     34  ND2        9.8150  -20.2070   24.1560 N.am  112  ASN112     -0.0877
     35  N         13.8760  -19.0170   20.2960 N.3   114  SER114     -0.1202
     36  CA        13.3000  -18.5110   19.0560 C.3   114  SER114      0.2020
     37  C         13.8040  -17.1120   18.7590 C.2   114  SER114      0.2619
     38  O         14.4250  -16.8850   17.7180 O.2   114  SER114     -0.2717
     39  CB        11.7740  -18.4540   19.1210 C.3   114  SER114      0.2103
     40  OG        11.2550  -19.7070   19.4600 O.3   114  SER114     -0.2182
     41  N         13.4930  -16.1630   19.6500 N.am  115  SER115     -0.1951
     42  CA        13.7930  -14.7580   19.3950 C.3   115  SER115      0.1924
     43  C         15.2890  -14.4630   19.5670 C.2   115  SER115      0.2314
     44  O         16.0480  -15.2450   20.1430 O.2   115  SER115     -0.2863
     45  CB        12.9610  -13.8700   20.3230 C.3   115  SER115      0.2116
     46  OG        11.6220  -13.7630   19.8490 O.3   115  SER115     -0.2180
     47  N         17.1420  -12.6590   11.9680 N.3   124  TRP124     -0.1241
     48  CA        17.6920  -13.7830   12.7100 C.3   124  TRP124      0.1605
     49  C         19.0920  -14.1110   12.2090 C.2   124  TRP124      0.2264
     50  O         19.3670  -14.0630   11.0060 O.2   124  TRP124     -0.2867
     51  CB        16.7710  -14.9970   12.6130 C.3   124  TRP124      0.0550
     52  CG        15.5850  -14.9510   13.5770 C.ar  124  TRP124      0.0003
     53  CD1       15.3330  -14.0070   14.5520 C.ar  124  TRP124      0.0946
     54  CD2       14.5010  -15.8790   13.6410 C.ar  124  TRP124      0.0152
     55  NE1       14.1630  -14.3020   15.2120 N.ar  124  TRP124     -0.2442
     56  CE2       13.6320  -15.4450   14.6730 C.ar  124  TRP124      0.0810
     57  CE3       14.1810  -17.0410   12.9330 C.ar  124  TRP124      0.0012
     58  CZ2       12.4630  -16.1240   14.9990 C.ar  124  TRP124      0.0191
     59  CZ3       13.0320  -17.7110   13.2580 C.ar  124  TRP124      0.0001
     60  CH2       12.1800  -17.2580   14.2850 C.ar  124  TRP124      0.0015
     61  N         12.1240  -26.1110   21.7060 N.3   155  LEU155     -0.1245
     62  CA        11.7160  -25.7740   20.3580 C.3   155  LEU155      0.1561
     63  C         12.6240  -24.6590   19.8530 C.2   155  LEU155      0.2260
     64  O         12.5890  -23.5400   20.3810 O.2   155  LEU155     -0.2867
     65  CB        10.2660  -25.3340   20.3590 C.3   155  LEU155      0.0270
     66  CG         9.7700  -24.8880   18.9910 C.3   155  LEU155      0.0019
     67  CD1        9.8760  -26.0170   17.9680 C.3   155  LEU155      0.0001
     68  CD2        8.3370  -24.3510   19.0710 C.3   155  LEU155      0.0001
     69  N         14.4380  -22.4640   16.6400 N.3   157  PHE157     -0.1241
     70  CA        14.3250  -21.9190   15.2910 C.3   157  PHE157      0.1605
     71  C         15.6690  -21.3810   14.8160 C.2   157  PHE157      0.2264
     72  O         16.3830  -20.7280   15.5870 O.2   157  PHE157     -0.2867
     73  CB        13.3090  -20.7760   15.2460 C.3   157  PHE157      0.0534
     74  CG        11.8890  -21.2230   15.4370 C.ar  157  PHE157     -0.0203
     75  CD1       11.3580  -21.3980   16.7080 C.ar  157  PHE157     -0.0042
     76  CD2       11.0780  -21.4510   14.3520 C.ar  157  PHE157     -0.0042
     77  CE1       10.0610  -21.7840   16.8640 C.ar  157  PHE157     -0.0003
     78  CE2        9.7710  -21.8530   14.5250 C.ar  157  PHE157     -0.0003
     79  CZ         9.2680  -22.0090   15.7750 C.ar  157  PHE157     -0.0000
     80  N         -0.8350  -21.0560   14.3790 N.3   233  TRP233     -0.1241
     81  CA         0.0350  -20.9580   15.5360 C.3   233  TRP233      0.1605
     82  C         -0.0320  -19.5670   16.1660 C.2   233  TRP233      0.2264
     83  O          0.0160  -19.4400   17.3860 O.2   233  TRP233     -0.2867
     84  CB         1.4720  -21.3180   15.1510 C.3   233  TRP233      0.0550
     85  CG         2.3860  -21.1480   16.3000 C.ar  233  TRP233      0.0003
     86  CD1        2.6420  -22.0520   17.2910 C.ar  233  TRP233      0.0946
     87  CD2        3.1190  -19.9640   16.6400 C.ar  233  TRP233      0.0152
     88  NE1        3.5060  -21.5180   18.2030 N.ar  233  TRP233     -0.2442
     89  CE2        3.8110  -20.2350   17.8360 C.ar  233  TRP233      0.0810
     90  CE3        3.2500  -18.7010   16.0500 C.ar  233  TRP233      0.0012
     91  CZ2        4.6200  -19.2790   18.4720 C.ar  233  TRP233      0.0191
     92  CZ3        4.0630  -17.7570   16.6710 C.ar  233  TRP233      0.0001
     93  CH2        4.7380  -18.0590   17.8810 C.ar  233  TRP233      0.0015
     94  N         -1.2960  -18.6050   19.9350 N.3   237  THR237     -0.1218
     95  CA        -0.3360  -18.1050   20.9080 C.3   237  THR237      0.1862
     96  C         -0.7440  -16.7270   21.4370 C.2   237  THR237      0.2287
     97  O         -0.6220  -16.4460   22.6390 O.2   237  THR237     -0.2866
     98  CB         1.0480  -18.0950   20.2500 C.3   237  THR237      0.1770
     99  OG1        1.3940  -19.4430   19.9290 O.3   237  THR237     -0.2211
    100  CG2        2.1010  -17.4810   21.1740 C.3   237  THR237      0.0375
    101  N         -1.4340  -15.4060   25.3810 N.3   241  PHE241     -0.1241
    102  CA        -1.0630  -14.1580   26.0390 C.3   241  PHE241      0.1605
    103  C         -2.2890  -13.4530   26.5970 C.2   241  PHE241      0.2264
    104  O         -2.2620  -12.9230   27.7160 O.2   241  PHE241     -0.2867
    105  CB        -0.3470  -13.2070   25.0690 C.3   241  PHE241      0.0534
    106  CG         0.8700  -13.7740   24.4200 C.ar  241  PHE241     -0.0203
    107  CD1        1.5270  -14.8690   24.9550 C.ar  241  PHE241     -0.0042
    108  CD2        1.3860  -13.1640   23.2880 C.ar  241  PHE241     -0.0042
    109  CE1        2.6540  -15.3410   24.3690 C.ar  241  PHE241     -0.0003
    110  CE2        2.5050  -13.6510   22.6740 C.ar  241  PHE241     -0.0003
    111  CZ         3.1610  -14.7240   23.2330 C.ar  241  PHE241     -0.0000
    112  N          5.4610   -7.7510   24.8200 N.3   374  HIS374     -0.1241
    113  CA         5.9520   -8.8320   23.9770 C.3   374  HIS374      0.1621
    114  C          5.9890   -8.4360   22.5110 C.2   374  HIS374      0.2264
    115  O          6.9840   -8.6610   21.8150 O.2   374  HIS374     -0.2867
    116  CB         5.0500  -10.0580   24.1580 C.3   374  HIS374      0.0745
    117  CG         5.4770  -11.2260   23.3370 C.ar  374  HIS374      0.0817
    118  ND1        5.1940  -11.3350   21.9900 N.ar  374  HIS374     -0.2268
    119  CD2        6.1950  -12.3270   23.6650 C.ar  374  HIS374      0.1154
    120  CE1        5.7110  -12.4550   21.5260 C.ar  374  HIS374      0.1986
    121  NE2        6.3220  -13.0750   22.5220 N.ar  374  HIS374     -0.2212
    122  N          5.0860  -14.4350   12.7780 N.3   398  PHE398     -0.1227
    123  CA         5.2100  -14.8920   14.1530 C.3   398  PHE398      0.1736
    124  C          4.5210  -13.9710   15.1410 C.2   398  PHE398      0.2595
    125  O          4.3150  -14.3740   16.2900 O.2   398  PHE398     -0.2718
    126  CB         6.6610  -15.0390   14.5200 C.3   398  PHE398      0.0547
    127  CG         7.2970  -16.2580   13.9230 C.ar  398  PHE398     -0.0202
    128  CD1        6.8790  -17.5300   14.3120 C.ar  398  PHE398     -0.0042
    129  CD2        8.2990  -16.1450   12.9740 C.ar  398  PHE398     -0.0042
    130  CE1        7.4700  -18.6740   13.7740 C.ar  398  PHE398     -0.0003
    131  CE2        8.8890  -17.2780   12.4280 C.ar  398  PHE398     -0.0003
    132  CZ         8.4700  -18.5450   12.8320 C.ar  398  PHE398     -0.0000
    133  N          4.1350  -12.7760   14.7170 N.am  399  TYR399     -0.1976
    134  CA         3.4320  -11.8280   15.5730 C.3   399  TYR399      0.1639
    135  C          2.0050  -11.4840   15.1540 C.2   399  TYR399      0.2290
    136  O          1.2580  -10.9390   15.9770 O.2   399  TYR399     -0.2864
    137  CB         4.2100  -10.5100   15.6350 C.3   399  TYR399      0.0560
    138  CG         5.4940  -10.5950   16.3670 C.ar  399  TYR399     -0.0198
    139  CD1        5.5620  -11.1250   17.6520 C.ar  399  TYR399     -0.0009
    140  CD2        6.6550  -10.1570   15.7690 C.ar  399  TYR399     -0.0009
    141  CE1        6.7800  -11.1920   18.3210 C.ar  399  TYR399      0.0417
    142  CE2        7.8650  -10.2190   16.4190 C.ar  399  TYR399      0.0417
    143  CZ         7.9310  -10.7330   17.6890 C.ar  399  TYR399      0.1957
    144  OH         9.1610  -10.7790   18.3060 O.3   399  TYR399     -0.2866
@<TRIPOS>BOND
     1    50    49    2
     2    47    48    1
     3    49    48    1
     4   131   132   ar
     5   131   129   ar
     6    51    48    1
     7    51    52    1
     8   122   123    1
     9   132   130   ar
    10    57    59   ar
    11    57    54   ar
    12   129   127   ar
    13    59    60   ar
    14    52    54   ar
    15    52    53   ar
    16    54    56   ar
    17   130   128   ar
    18   127   128   ar
    19   127   126    1
    20   123   126    1
    21   123   124    1
    22    60    58   ar
    23    76    78   ar
    24    76    74   ar
    25    80    81    1
    26    78    79   ar
    27    53    55   ar
    28    56    58   ar
    29    56    55   ar
    30   133   124   am
    31   133   134    1
    32    71    70    1
    33    71    72    2
    34   124   125    2
    35    84    81    1
    36    84    85    1
    37   135   134    1
    38   135   136    2
    39    73    70    1
    40    73    74    1
    41    70    69    1
    42    74    75   ar
    43    81    82    1
    44   134   137    1
    45   137   138    1
    46   140   138   ar
    47   140   142   ar
    48    79    77   ar
    49    90    87   ar
    50    90    92   ar
    51    82    83    2
    52    85    87   ar
    53    85    86   ar
    54   138   139   ar
    55   142   143   ar
    56    87    89   ar
    57    92    93   ar
    58    75    77   ar
    59    86    88   ar
    60   139   141   ar
    61   143   144    1
    62   143   141   ar
    63    38    37    2
    64    89    88   ar
    65    89    91   ar
    66    93    91   ar
    67    67    66    1
    68    37    36    1
    69    37    41   am
    70    66    68    1
    71    66    65    1
    72    36    39    1
    73    36    35    1
    74    39    40    1
    75    42    43    1
    76    42    41    1
    77    42    45    1
    78    43    44    2
    79    46    45    1
    80    63    62    1
    81    63    64    2
    82    99    98    1
    83    94    95    1
    84    22    21    2
    85    98    95    1
    86    98   100    1
    87    16    15    2
    88    62    65    1
    89    62    61    1
    90    95    96    1
    91    21    20    1
    92    18    17    1
    93    96    97    2
    94   120   118   ar
    95   120   121   ar
    96    15    14    1
    97    15    19   am
    98    20    19    1
    99    20    23    1
   100   115   114    2
   101   118   117   ar
   102    33    32    2
   103    14    17    1
   104    14    13    1
   105   114   113    1
   106   121   119   ar
   107    25    24    2
   108   110   111   ar
   109   110   108   ar
   110    31    32    1
   111    31    28    1
   112    23    24    1
   113    32    34   am
   114   111   109   ar
   115   108   106   ar
   116    24    26   am
   117   117   119   ar
   118   117   116    1
   119    29    28    1
   120    29    30    2
   121    28    27    1
   122   113   116    1
   123   113   112    1
   124   109   107   ar
   125   106   107   ar
   126   106   105    1
   127    10     8   ar
   128    10    11   ar
   129     4     3    2
   130    12    11    1
   131   105   102    1
   132     8     6   ar
   133   101   102    1
   134    11     9   ar
   135   102   103    1
   136     3     2    1
   137     6     5    1
   138     6     7   ar
   139     2     5    1
   140     2     1    1
   141     9     7   ar
   142   103   104    2
