@<TRIPOS>MOLECULE
tmp/5xdeB01.pdb
 157 152 0 0 0
SMALL
GASTEIGER

@<TRIPOS>ATOM
      1  N        -16.5370   32.5450   17.3190 N.3    75  HIS75      -0.1241
      2  CA       -15.7550   32.1930   16.1410 C.3    75  HIS75       0.1621
      3  C        -15.6170   33.3900   15.2010 C.2    75  HIS75       0.2264
      4  O        -14.5090   33.7360   14.7850 O.2    75  HIS75      -0.2867
      5  CB       -16.4360   30.9940   15.4650 C.3    75  HIS75       0.0745
      6  CG       -15.9050   30.6240   14.1140 C.ar   75  HIS75       0.0817
      7  ND1      -15.4370   29.3570   13.8380 N.ar   75  HIS75      -0.2268
      8  CD2      -15.8750   31.2960   12.9390 C.ar   75  HIS75       0.1154
      9  CE1      -15.1030   29.2790   12.5620 C.ar   75  HIS75       0.1986
     10  NE2      -15.3400   30.4490   11.9980 N.ar   75  HIS75      -0.2212
     11  N        -12.0290   34.9060   14.4730 N.3    79  TYR79      -0.1241
     12  CA       -11.4180   34.8830   13.1440 C.3    79  TYR79       0.1605
     13  C        -11.1330   36.2880   12.6390 C.2    79  TYR79       0.2264
     14  O        -10.1760   36.4870   11.8760 O.2    79  TYR79      -0.2867
     15  CB       -12.3090   34.1610   12.1320 C.3    79  TYR79       0.0534
     16  CG       -12.1930   32.6620   12.1300 C.ar   79  TYR79      -0.0201
     17  CD1      -12.4960   31.9300   13.2730 C.ar   79  TYR79      -0.0009
     18  CD2      -11.8370   31.9710   10.9770 C.ar   79  TYR79      -0.0009
     19  CE1      -12.4100   30.5570   13.2870 C.ar   79  TYR79       0.0417
     20  CE2      -11.7470   30.5800   10.9770 C.ar   79  TYR79       0.0417
     21  CZ       -12.0500   29.8810   12.1370 C.ar   79  TYR79       0.1957
     22  OH       -11.9790   28.4970   12.1650 O.3    79  TYR79      -0.2866
     23  N        -12.7970   36.0690    5.6700 N.3   112  ASN112     -0.1240
     24  CA       -11.7470   35.5320    4.8110 C.3   112  ASN112      0.1653
     25  C        -12.2900   34.5140    3.8140 C.2   112  ASN112      0.2266
     26  O        -13.3460   33.9010    4.0120 O.2   112  ASN112     -0.2867
     27  CB       -10.6070   34.8850    5.6140 C.3   112  ASN112      0.1155
     28  CG       -10.9560   33.4940    6.0990 C.2   112  ASN112      0.2627
     29  OD1      -10.5260   32.4850    5.5200 O.2   112  ASN112     -0.2716
     30  ND2      -11.7590   33.4310    7.1530 N.am  112  ASN112     -0.0877
     31  N        -10.0720   31.6270    1.9150 N.3   114  SER114     -0.1202
     32  CA        -8.7060   31.0990    1.8650 C.3   114  SER114      0.2020
     33  C         -8.6330   29.6300    1.4590 C.2   114  SER114      0.2619
     34  O         -7.8890   29.2750    0.5380 O.2   114  SER114     -0.2717
     35  CB        -8.0340   31.2750    3.2270 C.3   114  SER114      0.2103
     36  OG        -8.3370   32.5580    3.7520 O.3   114  SER114     -0.2182
     37  N         -9.3610   28.7610    2.1610 N.am  115  SER115     -0.1937
     38  CA        -9.2550   27.3330    1.8870 C.3   115  SER115      0.2055
     39  C        -10.1570   26.9300    0.7120 C.2   115  SER115      0.2642
     40  O        -10.9870   27.7040    0.2350 O.2   115  SER115     -0.2714
     41  CB        -9.5920   26.5320    3.1450 C.3   115  SER115      0.2130
     42  OG        -8.5290   26.6230    4.0950 O.3   115  SER115     -0.2179
     43  N         -9.9930   25.6850    0.2470 N.am  116  GLU116     -0.1976
     44  CA       -10.7230   25.1890   -0.9200 C.3   116  GLU116      0.1602
     45  C        -11.0620   23.7130   -0.7410 C.2   116  GLU116      0.2287
     46  O        -10.5620   23.0440    0.1680 O.2   116  GLU116     -0.2864
     47  CB        -9.9220   25.3880   -2.2150 C.3   116  GLU116      0.0415
     48  CG        -9.5850   26.8440   -2.5200 C.3   116  GLU116      0.1163
     49  CD        -8.6580   26.9900   -3.7080 C.2   116  GLU116      0.3649
     50  OE1       -8.6940   26.1090   -4.5960 O.co2 116  GLU116     -0.2457
     51  OE2       -7.8960   27.9840   -3.7460 O.co2 116  GLU116     -0.2457
     52  N         -6.0080   19.4940    1.4820 N.3   121  VAL121     -0.1245
     53  CA        -5.8160   20.8750    1.9050 C.3   121  VAL121      0.1561
     54  C         -4.5100   21.3990    1.3250 C.2   121  VAL121      0.2260
     55  O         -3.5300   20.6580    1.1680 O.2   121  VAL121     -0.2867
     56  CB        -5.8460   20.9910    3.4400 C.3   121  VAL121      0.0252
     57  CG1       -7.2290   20.6040    3.9750 C.3   121  VAL121      0.0019
     58  CG2       -4.7480   20.1430    4.0770 C.3   121  VAL121      0.0019
     59  N        -15.2030   27.2130    2.9150 N.3   144  PHE144     -0.1241
     60  CA       -15.0890   27.4920    4.3450 C.3   144  PHE144      0.1605
     61  C        -14.6960   28.9460    4.5960 C.2   144  PHE144      0.2264
     62  O        -13.7570   29.2310    5.3340 O.2   144  PHE144     -0.2867
     63  CB       -14.0920   26.5510    5.0230 C.3   144  PHE144      0.0534
     64  CG       -14.6210   25.1610    5.2760 C.ar  144  PHE144     -0.0203
     65  CD1      -15.3580   24.8830    6.4180 C.ar  144  PHE144     -0.0042
     66  CD2      -14.3470   24.1330    4.3930 C.ar  144  PHE144     -0.0042
     67  CE1      -15.8210   23.5840    6.6740 C.ar  144  PHE144     -0.0003
     68  CE2      -14.8150   22.8420    4.6360 C.ar  144  PHE144     -0.0003
     69  CZ       -15.5460   22.5720    5.7770 C.ar  144  PHE144     -0.0000
     70  N        -15.2500   31.6240    6.4350 N.3   146  SER146     -0.1217
     71  CA       -15.8560   32.1070    7.6710 C.3   146  SER146      0.1889
     72  C        -16.0150   33.6190    7.6500 C.2   146  SER146      0.2288
     73  O        -15.1200   34.3480    7.2190 O.2   146  SER146     -0.2866
     74  CB       -15.0090   31.6990    8.8860 C.3   146  SER146      0.2089
     75  OG       -15.1730   30.3240    9.1670 O.3   146  SER146     -0.2183
     76  N        -24.0850   27.4790    3.7270 N.3   188  TRP188     -0.1241
     77  CA       -23.5660   26.9460    4.9850 C.3   188  TRP188      0.1605
     78  C        -24.7330   26.4120    5.8020 C.2   188  TRP188      0.2264
     79  O        -25.5920   27.1830    6.2470 O.2   188  TRP188     -0.2867
     80  CB       -22.7970   28.0230    5.7530 C.3   188  TRP188      0.0550
     81  CG       -22.2100   27.5930    7.0850 C.ar  188  TRP188      0.0003
     82  CD1      -22.5520   28.0670    8.3170 C.ar  188  TRP188      0.0946
     83  CD2      -21.1410   26.6570    7.2960 C.ar  188  TRP188      0.0152
     84  NE1      -21.7760   27.4730    9.2890 N.ar  188  TRP188     -0.2442
     85  CE2      -20.8970   26.6100    8.6910 C.ar  188  TRP188      0.0810
     86  CE3      -20.3710   25.8620    6.4450 C.ar  188  TRP188      0.0012
     87  CZ2      -19.9280   25.7750    9.2520 C.ar  188  TRP188      0.0191
     88  CZ3      -19.4100   25.0350    6.9980 C.ar  188  TRP188      0.0001
     89  CH2      -19.1970   24.9980    8.3930 C.ar  188  TRP188      0.0015
     90  N        -21.5890   25.3960   14.8640 N.3   193  MET193     -0.1245
     91  CA       -21.0490   26.6550   14.3280 C.3   193  MET193      0.1570
     92  C        -21.9610   27.2000   13.2340 C.2   193  MET193      0.2261
     93  O        -21.5110   27.6660   12.1860 O.2   193  MET193     -0.2867
     94  CB       -19.6160   26.4780   13.8140 C.3   193  MET193      0.0387
     95  CG       -18.5800   26.1340   14.8910 C.3   193  MET193      0.0595
     96  SD       -18.5040   27.4750   16.1070 S.3   193  MET193     -0.1393
     97  CE       -17.0140   27.0870   17.0400 C.3   193  MET193      0.0692
     98  N        -19.6660   30.0060    7.0020 N.3   198  SER198     -0.1217
     99  CA       -18.4530   29.3990    6.4540 C.3   198  SER198      0.1889
    100  C        -18.7120   28.6770    5.1440 C.2   198  SER198      0.2288
    101  O        -18.1200   27.6230    4.8790 O.2   198  SER198     -0.2866
    102  CB       -17.8340   28.4510    7.4810 C.3   198  SER198      0.2089
    103  OG       -17.5300   29.1370    8.6840 O.3   198  SER198     -0.2183
    104  N        -17.9500   20.1720   15.6870 N.3   370  THR370     -0.1203
    105  CA       -17.7060   20.7140   14.3580 C.3   370  THR370      0.1994
    106  C        -16.3430   21.3890   14.2920 C.2   370  THR370      0.2617
    107  O        -15.5230   21.0650   13.4280 O.2   370  THR370     -0.2717
    108  CB       -18.8170   21.6940   13.9920 C.3   370  THR370      0.1784
    109  OG1      -20.0600   20.9860   13.9520 O.3   370  THR370     -0.2211
    110  CG2      -18.5780   22.3360   12.6310 C.3   370  THR370      0.0376
    111  N        -16.0730   22.3140   15.2210 N.am  371  HIS371     -0.1975
    112  CA       -14.8990   23.1560   15.0530 C.3   371  HIS371      0.1656
    113  C        -13.6090   22.3990   15.3160 C.2   371  HIS371      0.2291
    114  O        -12.6050   22.6340   14.6350 O.2   371  HIS371     -0.2864
    115  CB       -14.9760   24.3760   15.9580 C.3   371  HIS371      0.0771
    116  CG       -14.0220   25.4340   15.5410 C.ar  371  HIS371      0.0820
    117  ND1      -12.6640   25.3150   15.7280 N.ar  371  HIS371     -0.2267
    118  CD2      -14.2130   26.5880   14.8600 C.ar  371  HIS371      0.1154
    119  CE1      -12.0620   26.3760   15.2210 C.ar  371  HIS371      0.1986
    120  NE2      -12.9790   27.1570   14.6800 N.ar  371  HIS371     -0.2212
    121  N        -12.6140   19.7770   14.3820 N.3   373  LEU373     -0.1231
    122  CA       -12.1600   19.0760   13.1910 C.3   373  LEU373      0.1693
    123  C        -11.4310   19.9730   12.2010 C.2   373  LEU373      0.2592
    124  O        -10.9860   19.4770   11.1580 O.2   373  LEU373     -0.2718
    125  CB       -13.3440   18.4150   12.4820 C.3   373  LEU373      0.0284
    126  CG       -14.1010   17.4540   13.3990 C.3   373  LEU373      0.0019
    127  CD1      -15.4640   17.0790   12.7830 C.3   373  LEU373      0.0001
    128  CD2      -13.2900   16.1930   13.6270 C.3   373  LEU373      0.0001
    129  N        -11.3040   21.2680   12.5120 N.am  374  HIS374     -0.1976
    130  CA       -10.6890   22.2340   11.6030 C.3   374  HIS374      0.1656
    131  C         -9.3910   21.6940   11.0140 C.2   374  HIS374      0.2291
    132  O         -9.1930   21.6890    9.7900 O.2   374  HIS374     -0.2864
    133  CB       -10.4540   23.5340   12.3780 C.3   374  HIS374      0.0771
    134  CG       -10.3060   24.7440   11.5160 C.ar  374  HIS374      0.0820
    135  ND1       -9.1330   25.0570   10.8640 N.ar  374  HIS374     -0.2267
    136  CD2      -11.1780   25.7390   11.2260 C.ar  374  HIS374      0.1154
    137  CE1       -9.2940   26.1820   10.1920 C.ar  374  HIS374      0.1986
    138  NE2      -10.5250   26.6180   10.3980 N.ar  374  HIS374     -0.2212
    139  N         -6.5940   18.2030   12.0580 N.3   376  PRO376     -0.2116
    140  CA        -6.6930   16.9880   12.8810 C.3   376  PRO376      0.1372
    141  C         -5.8050   17.0660   14.1120 C.2   376  PRO376      0.2244
    142  O         -4.5870   17.2580   14.0200 O.2   376  PRO376     -0.2868
    143  CB        -6.2470   15.8740   11.9270 C.3   376  PRO376      0.0268
    144  CG        -5.4680   16.5750   10.8360 C.3   376  PRO376      0.0207
    145  CD        -6.0550   17.9440   10.7110 C.3   376  PRO376      0.0892
    146  N         -1.2020   25.3960    8.9990 N.3   399  TYR399     -0.1241
    147  CA        -1.7720   24.5630   10.0430 C.3   399  TYR399      0.1605
    148  C         -0.8240   24.2540   11.1880 C.2   399  TYR399      0.2264
    149  O         -1.2800   23.7340   12.2110 O.2   399  TYR399     -0.2867
    150  CB        -2.2650   23.2370    9.4530 C.3   399  TYR399      0.0534
    151  CG        -3.4090   23.4120    8.5010 C.ar  399  TYR399     -0.0201
    152  CD1       -4.6910   23.6850    8.9700 C.ar  399  TYR399     -0.0009
    153  CD2       -3.2150   23.3180    7.1340 C.ar  399  TYR399     -0.0009
    154  CE1       -5.7520   23.8470    8.0920 C.ar  399  TYR399      0.0417
    155  CE2       -4.2640   23.4800    6.2530 C.ar  399  TYR399      0.0417
    156  CZ        -5.5270   23.7400    6.7320 C.ar  399  TYR399      0.1957
    157  OH        -6.5700   23.8980    5.8430 O.3   399  TYR399     -0.2866
@<TRIPOS>BOND
     1    50    49   ar
     2    51    49   ar
     3    49    48    1
     4    48    47    1
     5    47    44    1
     6    44    45    1
     7    44    43    1
     8    45    46    2
     9    40    39    2
    10    43    39   am
    11    34    33    2
    12    39    38    1
    13    55    54    2
    14    54    53    1
    15    33    32    1
    16    33    37   am
    17    52    53    1
    18    32    31    1
    19    32    35    1
    20    38    37    1
    21    38    41    1
    22    53    56    1
    23    59    60    1
    24    41    42    1
    25    35    36    1
    26    56    57    1
    27    56    58    1
    28    76    77    1
    29    25    26    2
    30    25    24    1
    31    60    61    1
    32    60    63    1
    33    66    68   ar
    34    66    64   ar
    35    61    62    2
    36    68    69   ar
    37    24    27    1
    38    24    23    1
    39   101   100    2
    40    77    80    1
    41    77    78    1
    42    63    64    1
    43   100    99    1
    44    64    65   ar
    45    29    28    2
    46    27    28    1
    47    80    81    1
    48    69    67   ar
    49    78    79    2
    50   157   156    1
    51    28    30   am
    52   155   156   ar
    53   155   153   ar
    54    65    67   ar
    55    70    71    1
    56    86    88   ar
    57    86    83   ar
    58    99    98    1
    59    99   102    1
    60   156   154   ar
    61    88    89   ar
    62    81    83   ar
    63    81    82   ar
    64   153   151   ar
    65    73    72    2
    66    83    85   ar
    67   102   103    1
    68    72    71    1
    69    71    74    1
    70   154   152   ar
    71    82    84   ar
    72    89    87   ar
    73   151   152   ar
    74   151   150    1
    75    85    87   ar
    76    85    84   ar
    77    74    75    1
    78   146   147    1
    79   150   147    1
    80   132   131    2
    81   147   148    1
    82   137   138   ar
    83   137   135   ar
    84   138   136   ar
    85   145   144    1
    86   145   139    1
    87   144   143    1
    88   135   134   ar
    89    18    20   ar
    90    18    16   ar
    91    20    21   ar
    92   131   130    1
    93   124   123    2
    94   148   149    2
    95   136   134   ar
    96   134   133    1
    97   130   133    1
    98   130   129    1
    99    14    13    2
   100   143   140    1
   101    10     9   ar
   102    10     8   ar
   103   139   140    1
   104    16    15    1
   105    16    17   ar
   106    15    12    1
   107    21    22    1
   108    21    19   ar
   109    93    92    2
   110   123   129   am
   111   123   122    1
   112   125   122    1
   113   125   126    1
   114     9     7   ar
   115   110   108    1
   116    13    12    1
   117   127   126    1
   118   140   141    1
   119     8     6   ar
   120    12    11    1
   121   122   121    1
   122    92    91    1
   123    17    19   ar
   124   126   128    1
   125   107   106    2
   126    94    91    1
   127    94    95    1
   128     7     6   ar
   129   109   108    1
   130   108   105    1
   131   142   141    2
   132     6     5    1
   133   106   105    1
   134   106   111   am
   135    91    90    1
   136   105   104    1
   137   114   113    2
   138   120   118   ar
   139   120   119   ar
   140     4     3    2
   141   118   116   ar
   142    95    96    1
   143   112   111    1
   144   112   113    1
   145   112   115    1
   146     3     2    1
   147   119   117   ar
   148     5     2    1
   149   116   117   ar
   150   116   115    1
   151    96    97    1
   152     2     1    1
