@<TRIPOS>MOLECULE
tmp/5xdeB02.pdb
 152 149 0 0 0
SMALL
GASTEIGER

@<TRIPOS>ATOM
      1  N        -12.0290   34.9060   14.4730 N.3    79  TYR79      -0.1241
      2  CA       -11.4180   34.8830   13.1440 C.3    79  TYR79       0.1605
      3  C        -11.1330   36.2880   12.6390 C.2    79  TYR79       0.2264
      4  O        -10.1760   36.4870   11.8760 O.2    79  TYR79      -0.2867
      5  CB       -12.3090   34.1610   12.1320 C.3    79  TYR79       0.0534
      6  CG       -12.1930   32.6620   12.1300 C.ar   79  TYR79      -0.0201
      7  CD1      -12.4960   31.9300   13.2730 C.ar   79  TYR79      -0.0009
      8  CD2      -11.8370   31.9710   10.9770 C.ar   79  TYR79      -0.0009
      9  CE1      -12.4100   30.5570   13.2870 C.ar   79  TYR79       0.0417
     10  CE2      -11.7470   30.5800   10.9770 C.ar   79  TYR79       0.0417
     11  CZ       -12.0500   29.8810   12.1370 C.ar   79  TYR79       0.1957
     12  OH       -11.9790   28.4970   12.1650 O.3    79  TYR79      -0.2866
     13  N         -7.7770   36.7620   13.6660 N.3    82  SER82      -0.1202
     14  CA        -6.8500   36.0260   12.8200 C.3    82  SER82       0.2020
     15  C         -6.5950   36.7800   11.5230 C.2    82  SER82       0.2618
     16  O         -5.4470   36.9190   11.0870 O.2    82  SER82      -0.2717
     17  CB        -7.3980   34.6250   12.5250 C.3    82  SER82       0.2103
     18  OG        -6.5390   33.9410   11.6290 O.3    82  SER82      -0.2182
     19  N         -7.6700   37.2670   10.8960 N.am   83  ASN83      -0.1974
     20  CA        -7.5420   38.0600    9.6790 C.3    83  ASN83       0.1688
     21  C         -6.7060   39.3010    9.9380 C.2    83  ASN83       0.2292
     22  O         -5.8010   39.6240    9.1620 O.2    83  ASN83      -0.2864
     23  CB        -8.9260   38.4390    9.1580 C.3    83  ASN83       0.1181
     24  CG        -9.7470   37.2290    8.7700 C.2    83  ASN83       0.2629
     25  OD1       -9.1950   36.2040    8.3630 O.2    83  ASN83      -0.2716
     26  ND2      -11.0640   37.3330    8.9070 N.am   83  ASN83      -0.0877
     27  N        -12.7970   36.0690    5.6700 N.3   112  ASN112     -0.1240
     28  CA       -11.7470   35.5320    4.8110 C.3   112  ASN112      0.1653
     29  C        -12.2900   34.5140    3.8140 C.2   112  ASN112      0.2266
     30  O        -13.3460   33.9010    4.0120 O.2   112  ASN112     -0.2867
     31  CB       -10.6070   34.8850    5.6140 C.3   112  ASN112      0.1155
     32  CG       -10.9560   33.4940    6.0990 C.2   112  ASN112      0.2627
     33  OD1      -10.5260   32.4850    5.5200 O.2   112  ASN112     -0.2716
     34  ND2      -11.7590   33.4310    7.1530 N.am  112  ASN112     -0.0877
     35  N        -10.0720   31.6270    1.9150 N.3   114  SER114     -0.1202
     36  CA        -8.7060   31.0990    1.8650 C.3   114  SER114      0.2020
     37  C         -8.6330   29.6300    1.4590 C.2   114  SER114      0.2619
     38  O         -7.8890   29.2750    0.5380 O.2   114  SER114     -0.2717
     39  CB        -8.0340   31.2750    3.2270 C.3   114  SER114      0.2103
     40  OG        -8.3370   32.5580    3.7520 O.3   114  SER114     -0.2182
     41  N         -9.3610   28.7610    2.1610 N.am  115  SER115     -0.1951
     42  CA        -9.2550   27.3330    1.8870 C.3   115  SER115      0.1924
     43  C        -10.1570   26.9300    0.7120 C.2   115  SER115      0.2314
     44  O        -10.9870   27.7040    0.2350 O.2   115  SER115     -0.2863
     45  CB        -9.5920   26.5320    3.1450 C.3   115  SER115      0.2116
     46  OG        -8.5290   26.6230    4.0950 O.3   115  SER115     -0.2180
     47  N         -4.4960   22.6800    0.9780 N.3   122  LEU122     -0.1245
     48  CA        -3.3700   23.3560    0.3460 C.3   122  LEU122      0.1561
     49  C         -3.2890   23.0370   -1.1460 C.2   122  LEU122      0.2260
     50  O         -2.4070   23.5820   -1.8270 O.2   122  LEU122     -0.2867
     51  CB        -2.0250   23.0160    1.0110 C.3   122  LEU122      0.0270
     52  CG        -1.7910   23.5940    2.4060 C.3   122  LEU122      0.0019
     53  CD1       -0.4960   23.0380    2.9490 C.3   122  LEU122      0.0001
     54  CD2       -1.7150   25.0990    2.3900 C.3   122  LEU122      0.0001
     55  N         -4.6230   24.2220   -4.0490 N.3   124  TRP124     -0.1241
     56  CA        -5.3480   25.4570   -4.3140 C.3   124  TRP124      0.1605
     57  C         -5.4900   25.6790   -5.8140 C.2   124  TRP124      0.2264
     58  O         -4.5110   25.5590   -6.5610 O.2   124  TRP124     -0.2867
     59  CB        -4.6450   26.6420   -3.6470 C.3   124  TRP124      0.0550
     60  CG        -4.9030   26.7080   -2.1630 C.ar  124  TRP124      0.0003
     61  CD1       -5.6080   25.8050   -1.4130 C.ar  124  TRP124      0.0946
     62  CD2       -4.4730   27.7320   -1.2560 C.ar  124  TRP124      0.0152
     63  NE1       -5.6430   26.2030   -0.0960 N.ar  124  TRP124     -0.2442
     64  CE2       -4.9550   27.3840    0.0270 C.ar  124  TRP124      0.0810
     65  CE3       -3.7370   28.9120   -1.4030 C.ar  124  TRP124      0.0012
     66  CZ2       -4.7130   28.1720    1.1550 C.ar  124  TRP124      0.0191
     67  CZ3       -3.5010   29.6930   -0.2860 C.ar  124  TRP124      0.0001
     68  CH2       -3.9840   29.3210    0.9770 C.ar  124  TRP124      0.0015
     69  N        -10.0940   38.9400    3.5690 N.3   155  LEU155     -0.1245
     70  CA        -8.7160   38.5150    3.3620 C.3   155  LEU155      0.1561
     71  C         -8.7270   37.3320    2.4030 C.2   155  LEU155      0.2260
     72  O         -9.3220   36.2960    2.7170 O.2   155  LEU155     -0.2867
     73  CB        -8.0890   38.1260    4.7000 C.3   155  LEU155      0.0270
     74  CG        -6.7420   37.4060    4.6620 C.3   155  LEU155      0.0019
     75  CD1       -5.6400   38.3390    4.0980 C.3   155  LEU155      0.0001
     76  CD2       -6.3700   36.9190    6.0620 C.3   155  LEU155      0.0001
     77  N         -6.7750   34.6710   -0.5630 N.3   157  PHE157     -0.1241
     78  CA        -5.5460   34.0220   -1.0030 C.3   157  PHE157      0.1605
     79  C         -5.7530   33.3630   -2.3560 C.2   157  PHE157      0.2264
     80  O         -6.7830   32.7240   -2.5920 O.2   157  PHE157     -0.2867
     81  CB        -5.0680   32.9430   -0.0130 C.3   157  PHE157      0.0534
     82  CG        -4.6470   33.4750    1.3240 C.ar  157  PHE157     -0.0203
     83  CD1       -5.5920   33.7020    2.3180 C.ar  157  PHE157     -0.0042
     84  CD2       -3.3140   33.7030    1.6020 C.ar  157  PHE157     -0.0042
     85  CE1       -5.2100   34.1670    3.5630 C.ar  157  PHE157     -0.0003
     86  CE2       -2.9260   34.1740    2.8540 C.ar  157  PHE157     -0.0003
     87  CZ        -3.8710   34.4050    3.8270 C.ar  157  PHE157     -0.0000
     88  N          1.5860   33.9000   12.6020 N.3   233  TRP233     -0.1241
     89  CA         0.1610   33.8530   12.2970 C.3   233  TRP233      0.1605
     90  C         -0.4550   32.5280   12.7370 C.2   233  TRP233      0.2264
     91  O         -1.5580   32.4980   13.2970 O.2   233  TRP233     -0.2867
     92  CB        -0.0770   34.0790   10.7980 C.3   233  TRP233      0.0550
     93  CG        -1.5330   33.9700   10.4860 C.ar  233  TRP233      0.0003
     94  CD1       -2.4700   34.9560   10.5890 C.ar  233  TRP233      0.0946
     95  CD2       -2.2370   32.7860   10.0880 C.ar  233  TRP233      0.0152
     96  NE1       -3.7060   34.4740   10.2540 N.ar  233  TRP233     -0.2442
     97  CE2       -3.5930   33.1420    9.9400 C.ar  233  TRP233      0.0810
     98  CE3       -1.8500   31.4630    9.8440 C.ar  233  TRP233      0.0012
     99  CZ2       -4.5690   32.2230    9.5650 C.ar  233  TRP233      0.0191
    100  CZ3       -2.8090   30.5560    9.4680 C.ar  233  TRP233      0.0001
    101  CH2       -4.1570   30.9400    9.3230 C.ar  233  TRP233      0.0015
    102  N         -3.3560   31.9570   15.5680 N.3   237  THR237     -0.1218
    103  CA        -4.6820   31.5290   15.1350 C.3   237  THR237      0.1862
    104  C         -5.0820   30.2170   15.7930 C.2   237  THR237      0.2287
    105  O         -6.2470   30.0410   16.1770 O.2   237  THR237     -0.2866
    106  CB        -4.7170   31.4130   13.6120 C.3   237  THR237      0.1770
    107  OG1       -4.4700   32.7140   13.0510 O.3   237  THR237     -0.2211
    108  CG2       -6.0940   30.9070   13.1300 C.3   237  THR237      0.0375
    109  N         -8.4240   29.3100   18.2120 N.3   241  PHE241     -0.1241
    110  CA        -9.2590   28.1070   18.2530 C.3   241  PHE241      0.1605
    111  C         -9.2950   27.5200   19.6610 C.2   241  PHE241      0.2264
    112  O        -10.3620   27.1290   20.1610 O.2   241  PHE241     -0.2867
    113  CB        -8.7450   27.0490   17.2630 C.3   241  PHE241      0.0534
    114  CG        -8.6750   27.5080   15.8160 C.ar  241  PHE241     -0.0203
    115  CD1       -9.4040   28.6140   15.3720 C.ar  241  PHE241     -0.0042
    116  CD2       -7.8770   26.8230   14.9140 C.ar  241  PHE241     -0.0042
    117  CE1       -9.3300   29.0150   14.0420 C.ar  241  PHE241     -0.0003
    118  CE2       -7.8030   27.2090   13.5800 C.ar  241  PHE241     -0.0003
    119  CZ        -8.5290   28.3100   13.1500 C.ar  241  PHE241     -0.0000
    120  N        -11.3040   21.2680   12.5120 N.3   374  HIS374     -0.1241
    121  CA       -10.6890   22.2340   11.6030 C.3   374  HIS374      0.1621
    122  C         -9.3910   21.6940   11.0140 C.2   374  HIS374      0.2264
    123  O         -9.1930   21.6890    9.7900 O.2   374  HIS374     -0.2867
    124  CB       -10.4540   23.5340   12.3780 C.3   374  HIS374      0.0745
    125  CG       -10.3060   24.7440   11.5160 C.ar  374  HIS374      0.0817
    126  ND1       -9.1330   25.0570   10.8640 N.ar  374  HIS374     -0.2268
    127  CD2      -11.1780   25.7390   11.2260 C.ar  374  HIS374      0.1154
    128  CE1       -9.2940   26.1820   10.1920 C.ar  374  HIS374      0.1986
    129  NE2      -10.5250   26.6180   10.3980 N.ar  374  HIS374     -0.2212
    130  N          0.1840   26.8130    7.1240 N.3   398  PHE398     -0.1227
    131  CA        -1.0880   27.3760    7.5480 C.3   398  PHE398      0.1736
    132  C         -1.7160   26.5880    8.6920 C.2   398  PHE398      0.2595
    133  O         -2.6670   27.0760    9.3080 O.2   398  PHE398     -0.2718
    134  CB        -2.0620   27.4580    6.3650 C.3   398  PHE398      0.0547
    135  CG        -1.7420   28.5620    5.3800 C.ar  398  PHE398     -0.0202
    136  CD1       -1.8960   29.8900    5.7370 C.ar  398  PHE398     -0.0042
    137  CD2       -1.3130   28.2700    4.0930 C.ar  398  PHE398     -0.0042
    138  CE1       -1.6170   30.9160    4.8340 C.ar  398  PHE398     -0.0003
    139  CE2       -1.0330   29.2930    3.1860 C.ar  398  PHE398     -0.0003
    140  CZ        -1.1800   30.6120    3.5630 C.ar  398  PHE398     -0.0000
    141  N         -1.2020   25.3960    8.9990 N.am  399  TYR399     -0.1976
    142  CA        -1.7720   24.5630   10.0430 C.3   399  TYR399      0.1639
    143  C         -0.8240   24.2540   11.1880 C.2   399  TYR399      0.2290
    144  O         -1.2800   23.7340   12.2110 O.2   399  TYR399     -0.2864
    145  CB        -2.2650   23.2370    9.4530 C.3   399  TYR399      0.0560
    146  CG        -3.4090   23.4120    8.5010 C.ar  399  TYR399     -0.0198
    147  CD1       -4.6910   23.6850    8.9700 C.ar  399  TYR399     -0.0009
    148  CD2       -3.2150   23.3180    7.1340 C.ar  399  TYR399     -0.0009
    149  CE1       -5.7520   23.8470    8.0920 C.ar  399  TYR399      0.0417
    150  CE2       -4.2640   23.4800    6.2530 C.ar  399  TYR399      0.0417
    151  CZ        -5.5270   23.7400    6.7320 C.ar  399  TYR399      0.1957
    152  OH        -6.5700   23.8980    5.8430 O.3   399  TYR399     -0.2866
@<TRIPOS>BOND
     1    58    57    2
     2    57    56    1
     3    56    55    1
     4    56    59    1
     5    59    60    1
     6    80    79    2
     7    79    78    1
     8    60    61   ar
     9    60    62   ar
    10    50    49    2
    11    61    63   ar
    12    65    62   ar
    13    65    67   ar
    14    62    64   ar
    15    49    48    1
    16    78    77    1
    17    78    81    1
    18    67    68   ar
    19    63    64   ar
    20    81    82    1
    21    64    66   ar
    22    44    43    2
    23    48    47    1
    24    48    51    1
    25    38    37    2
    26    43    42    1
    27    68    66   ar
    28    51    52    1
    29    82    84   ar
    30    82    83   ar
    31    37    36    1
    32    37    41   am
    33    84    86   ar
    34    36    35    1
    35    36    39    1
    36    42    41    1
    37    42    45    1
    38    83    85   ar
    39    54    52    1
    40    71    72    2
    41    71    70    1
    42    52    53    1
    43    86    87   ar
    44    45    46    1
    45   139   140   ar
    46   139   137   ar
    47    39    40    1
    48    70    69    1
    49    70    73    1
    50   140   138   ar
    51    85    87   ar
    52    29    30    2
    53    29    28    1
    54   137   135   ar
    55    75    74    1
    56    74    73    1
    57    74    76    1
    58    28    31    1
    59    28    27    1
    60   138   136   ar
    61   135   136   ar
    62   135   134    1
    63    33    32    2
    64    31    32    1
    65   152   151    1
    66    32    34   am
    67   150   151   ar
    68   150   148   ar
    69   134   131    1
    70   151   149   ar
    71   130   131    1
    72   148   146   ar
    73   131   132    1
    74   149   147   ar
    75    25    24    2
    76   146   147   ar
    77   146   145    1
    78   132   141   am
    79   132   133    2
    80    24    26   am
    81    24    23    1
    82   141   142    1
    83    23    20    1
    84    22    21    2
    85   101   100   ar
    86   101    99   ar
    87   145   142    1
    88   100    98   ar
    89    99    97   ar
    90    20    21    1
    91    20    19    1
    92   123   122    2
    93    98    95   ar
    94    97    95   ar
    95    97    96   ar
    96   142   143    1
    97    95    93   ar
    98   128   129   ar
    99   128   126   ar
   100    96    94   ar
   101   129   127   ar
   102    93    94   ar
   103    93    92    1
   104    92    89    1
   105   126   125   ar
   106    19    15   am
   107     8    10   ar
   108     8     6   ar
   109    10    11   ar
   110   122   121    1
   111    16    15    2
   112   143   144    2
   113   127   125   ar
   114   125   124    1
   115    15    14    1
   116   121   124    1
   117   121   120    1
   118    18    17    1
   119     4     3    2
   120     6     5    1
   121     6     7   ar
   122     5     2    1
   123    11    12    1
   124    11     9   ar
   125    89    88    1
   126    89    90    1
   127    17    14    1
   128     3     2    1
   129    90    91    2
   130    14    13    1
   131   107   106    1
   132   108   106    1
   133     2     1    1
   134   119   118   ar
   135   119   117   ar
   136     7     9   ar
   137   118   116   ar
   138   106   103    1
   139   117   115   ar
   140   116   114   ar
   141   103   102    1
   142   103   104    1
   143   115   114   ar
   144   104   105    2
   145   114   113    1
   146   113   110    1
   147   109   110    1
   148   110   111    1
   149   111   112    2
