@<TRIPOS>MOLECULE
tmp/5xdhD00.pdb
 209 197 0 0 0
SMALL
GASTEIGER

@<TRIPOS>ATOM
      1  N          0.8060  -22.3730   12.8290 N.3     6  THR6       -0.1203
      2  CA         1.1750  -21.5090   11.7280 C.3     6  THR6        0.1994
      3  C          0.1930  -20.3340   11.6190 C.2     6  THR6        0.2617
      4  O          0.6250  -19.1700   11.4720 O.2     6  THR6       -0.2717
      5  CB         1.2050  -22.2950   10.4180 C.3     6  THR6        0.1784
      6  OG1        2.2730  -23.2510   10.4670 O.3     6  THR6       -0.2211
      7  CG2        1.4050  -21.3820    9.2360 C.3     6  THR6        0.0376
      8  N         -1.1100  -20.6150   11.6820 N.am    7  TYR7       -0.1975
      9  CA        -2.0920  -19.5140   11.6070 C.3     7  TYR7        0.1639
     10  C         -1.8840  -18.5180   12.7360 C.2     7  TYR7        0.2290
     11  O         -1.8620  -17.3090   12.4960 O.2     7  TYR7       -0.2864
     12  CB        -3.5210  -20.0480   11.5900 C.3     7  TYR7        0.0560
     13  CG        -4.5430  -18.9500   11.3620 C.ar    7  TYR7       -0.0198
     14  CD1       -4.9190  -18.5630   10.0680 C.ar    7  TYR7       -0.0009
     15  CD2       -5.0970  -18.2540   12.4320 C.ar    7  TYR7       -0.0009
     16  CE1       -5.8070  -17.5150    9.8940 C.ar    7  TYR7        0.0417
     17  CE2       -5.9740  -17.2140   12.2540 C.ar    7  TYR7        0.0417
     18  CZ        -6.3400  -16.8540   10.9930 C.ar    7  TYR7        0.1957
     19  OH        -7.1930  -15.7860   10.8290 O.3     7  TYR7       -0.2866
     20  N          1.6560  -16.6060   12.1400 N.3    10  THR10      -0.1203
     21  CA         1.9330  -16.0260   10.8200 C.3    10  THR10       0.1994
     22  C          0.7500  -15.3290   10.1530 C.2    10  THR10       0.2618
     23  O          0.9810  -14.6140    9.1540 O.2    10  THR10      -0.2717
     24  CB         2.3350  -17.1490    9.8390 C.3    10  THR10       0.1784
     25  OG1        3.2610  -18.0320   10.4950 O.3    10  THR10      -0.2211
     26  CG2        2.9620  -16.5870    8.5920 C.3    10  THR10       0.0376
     27  N         -0.4870  -15.6180   10.5640 N.am   11  CYS11      -0.1969
     28  CA        -1.6640  -15.0810    9.8830 C.3    11  CYS11       0.1712
     29  C         -2.5120  -14.1840   10.7630 C.2    11  CYS11       0.2296
     30  O         -3.1120  -13.2230   10.2850 O.2    11  CYS11      -0.2864
     31  CB        -2.5680  -16.2160    9.3660 C.3    11  CYS11       0.0983
     32  SG        -1.7280  -17.5970    8.6010 S.3    11  CYS11      -0.0798
     33  N         -1.9660  -11.9620   12.9390 N.3    13  LEU13      -0.1231
     34  CA        -1.6270  -10.5660   13.0230 C.3    13  LEU13       0.1693
     35  C         -2.5180   -9.6930   12.1280 C.2    13  LEU13       0.2592
     36  O         -2.9050   -8.5980   12.5150 O.2    13  LEU13      -0.2718
     37  CB        -0.1480  -10.3310   12.7270 C.3    13  LEU13       0.0284
     38  CG         0.3260   -8.9070   13.1190 C.3    13  LEU13       0.0019
     39  CD1        1.7490   -8.8620   13.6140 C.3    13  LEU13       0.0001
     40  CD2        0.2280   -7.9680   11.9220 C.3    13  LEU13       0.0001
     41  N         -2.7970  -10.1620   10.9160 N.am   14  CYS14      -0.1956
     42  CA        -3.6640   -9.4600    9.9640 C.3    14  CYS14       0.1843
     43  C         -5.0900   -9.9910    9.9380 C.2    14  CYS14       0.2625
     44  O         -6.0190   -9.2050    9.8030 O.2    14  CYS14      -0.2714
     45  CB        -3.0740   -9.5010    8.5510 C.3    14  CYS14       0.0997
     46  SG        -1.4900   -8.6600    8.5210 S.3    14  CYS14      -0.0797
     47  N         -5.2610  -11.3100    9.9920 N.am   15  HIS15      -0.1973
     48  CA        -6.5640  -11.9210    9.7850 C.3    15  HIS15       0.1656
     49  C         -7.3980  -12.1150   11.0480 C.2    15  HIS15       0.2291
     50  O         -8.6000  -12.3810   10.9690 O.2    15  HIS15      -0.2864
     51  CB        -6.4310  -13.2060    8.9830 C.3    15  HIS15       0.0771
     52  CG        -6.0390  -12.9850    7.5480 C.ar   15  HIS15       0.0820
     53  ND1       -6.9060  -12.4680    6.6190 N.ar   15  HIS15      -0.2267
     54  CD2       -4.8740  -13.1990    6.8890 C.ar   15  HIS15       0.1154
     55  CE1       -6.3020  -12.4030    5.4420 C.ar   15  HIS15       0.1986
     56  NE2       -5.0580  -12.8240    5.5690 N.ar   15  HIS15      -0.2212
     57  N         -4.9370   -2.8330    5.9520 N.3    28  PHE28      -0.1227
     58  CA        -4.2940   -3.3860    4.7820 C.3    28  PHE28       0.1736
     59  C         -5.2650   -3.9230    3.7170 C.2    28  PHE28       0.2596
     60  O         -4.8570   -4.1110    2.5690 O.2    28  PHE28      -0.2718
     61  CB        -3.2880   -4.4800    5.1960 C.3    28  PHE28       0.0547
     62  CG        -2.2730   -4.0220    6.2060 C.ar   28  PHE28      -0.0202
     63  CD1       -1.7710   -2.6980    6.2500 C.ar   28  PHE28      -0.0042
     64  CD2       -1.8000   -4.9390    7.1320 C.ar   28  PHE28      -0.0042
     65  CE1       -0.8240   -2.3470    7.2130 C.ar   28  PHE28      -0.0003
     66  CE2       -0.8520   -4.5810    8.0790 C.ar   28  PHE28      -0.0003
     67  CZ        -0.3810   -3.2910    8.1280 C.ar   28  PHE28      -0.0000
     68  N         -6.5000   -4.2000    4.1100 N.am   29  GLY29      -0.1942
     69  CA        -7.5380   -4.6450    3.1990 C.3    29  GLY29       0.2014
     70  C         -7.9480   -6.1070    3.2720 C.2    29  GLY29       0.2639
     71  O         -8.4860   -6.6350    2.3210 O.2    29  GLY29      -0.2714
     72  N         -7.7780   -6.7650    4.4060 N.am   30  VAL30      -0.1963
     73  CA        -8.1450   -8.1910    4.4930 C.3    30  VAL30       0.1712
     74  C         -9.6480   -8.3850    4.3190 C.2    30  VAL30       0.2458
     75  O        -10.4340   -7.5160    4.7350 O.2    30  VAL30      -0.2730
     76  CB        -7.7520   -8.8190    5.8530 C.3    30  VAL30       0.0289
     77  CG1       -6.2440   -8.7980    6.0360 C.3    30  VAL30       0.0023
     78  CG2       -8.4800   -8.1910    7.0420 C.3    30  VAL30       0.0023
     79  N        -10.0460   -9.5240    3.7410 N.am   31  PRO31      -0.2727
     80  CA       -11.4650   -9.9040    3.7210 C.3    31  PRO31       0.1402
     81  C        -11.9100  -10.3950    5.0820 C.2    31  PRO31       0.2269
     82  O        -11.0990  -10.5390    6.0270 O.2    31  PRO31      -0.2865
     83  CB       -11.5120  -11.0190    2.6770 C.3    31  PRO31       0.0296
     84  CG       -10.2090  -11.6680    2.8560 C.3    31  PRO31       0.0237
     85  CD        -9.2040  -10.5830    3.1630 C.3    31  PRO31       0.0939
     86  N        -13.1550  -13.5810    6.7130 N.3    33  PHE33      -0.1241
     87  CA       -13.2980  -15.0030    6.4320 C.3    33  PHE33       0.1605
     88  C        -14.5890  -15.5890    7.0160 C.2    33  PHE33       0.2264
     89  O        -14.9860  -16.6910    6.6870 O.2    33  PHE33      -0.2867
     90  CB       -12.1100  -15.7830    6.9890 C.3    33  PHE33       0.0534
     91  CG       -10.7580  -15.5030    6.3230 C.ar   33  PHE33      -0.0203
     92  CD1      -10.6400  -15.1420    4.9930 C.ar   33  PHE33      -0.0042
     93  CD2       -9.6050  -15.6730    7.0660 C.ar   33  PHE33      -0.0042
     94  CE1       -9.3580  -15.0060    4.4340 C.ar   33  PHE33      -0.0003
     95  CE2       -8.3370  -15.5180    6.4960 C.ar   33  PHE33      -0.0003
     96  CZ        -8.2460  -15.1740    5.1860 C.ar   33  PHE33      -0.0000
     97  N        -18.2170  -13.8720    1.1670 N.3    38  TYR38      -0.1241
     98  CA       -16.8200  -13.8810    0.8040 C.3    38  TYR38       0.1605
     99  C        -16.3590  -15.3150    0.4530 C.2    38  TYR38       0.2264
    100  O        -15.7230  -15.5410   -0.5870 O.2    38  TYR38      -0.2867
    101  CB       -15.9300  -13.3010    1.9180 C.3    38  TYR38       0.0534
    102  CG       -14.5190  -13.5270    1.5440 C.ar   38  TYR38      -0.0201
    103  CD1      -13.9710  -12.8070    0.5030 C.ar   38  TYR38      -0.0009
    104  CD2      -13.7750  -14.5800    2.0910 C.ar   38  TYR38      -0.0009
    105  CE1      -12.6980  -13.0960    0.0460 C.ar   38  TYR38       0.0417
    106  CE2      -12.4940  -14.8640    1.6310 C.ar   38  TYR38       0.0417
    107  CZ       -11.9860  -14.1010    0.6250 C.ar   38  TYR38       0.1957
    108  OH       -10.7090  -14.4070    0.1910 O.3    38  TYR38      -0.2866
    109  N        -14.8070  -17.4340   -3.9050 N.3    42  ARG42      -0.1245
    110  CA       -13.5080  -17.9740   -4.3020 C.3    42  ARG42       0.1563
    111  C        -13.5990  -19.4790   -4.3060 C.2    42  ARG42       0.2260
    112  O        -14.1030  -20.0250   -3.3120 O.2    42  ARG42      -0.2867
    113  CB       -12.4160  -17.5290   -3.2400 C.3    42  ARG42       0.0307
    114  CG       -12.3240  -16.0240   -2.9110 C.3    42  ARG42       0.0489
    115  CD       -11.8980  -15.2490   -4.1610 C.3    42  ARG42       0.2205
    116  NE       -10.5000  -15.4390   -4.5070 N.pl3  42  ARG42      -0.0865
    117  CZ        -9.9080  -15.3040   -5.7080 C.cat  42  ARG42       0.5346
    118  NH1      -10.5680  -15.0410   -6.8490 N.pl3  42  ARG42       0.1354
    119  NH2       -8.6050  -15.5380   -5.7820 N.pl3  42  ARG42       0.1354
    120  N         -8.2540  -19.7340   -4.2330 N.3    47  MET47      -0.1245
    121  CA        -7.6460  -19.3230   -3.0050 C.3    47  MET47       0.1570
    122  C         -6.1910  -19.8110   -2.9300 C.2    47  MET47       0.2261
    123  O         -5.2730  -19.0580   -2.5520 O.2    47  MET47      -0.2867
    124  CB        -8.4700  -19.8340   -1.8420 C.3    47  MET47       0.0387
    125  CG        -8.0670  -19.2110   -0.5570 C.3    47  MET47       0.0595
    126  SD        -9.0780  -19.7590    0.8160 S.3    47  MET47      -0.1393
    127  CE       -10.5630  -18.7190    0.6410 C.3    47  MET47       0.0692
    128  N         -3.9410  -17.7070   -5.1920 N.3    50  SER50      -0.1202
    129  CA        -3.6160  -16.4320   -4.5970 C.3    50  SER50       0.2020
    130  C         -2.6060  -16.5810   -3.4840 C.2    50  SER50       0.2618
    131  O         -1.6900  -15.7880   -3.3720 O.2    50  SER50      -0.2717
    132  CB        -4.8660  -15.7800   -4.0260 C.3    50  SER50       0.2103
    133  OG        -5.7660  -15.4930   -5.0280 O.3    50  SER50      -0.2182
    134  N         -2.7180  -17.6180   -2.6670 N.am   51  MET51      -0.1979
    135  CA        -1.7320  -17.8730   -1.5980 C.3    51  MET51       0.1605
    136  C         -0.3520  -18.1410   -2.1960 C.2    51  MET51       0.2287
    137  O          0.6920  -17.7850   -1.6310 O.2    51  MET51      -0.2864
    138  CB        -2.1320  -19.0920   -0.7610 C.3    51  MET51       0.0413
    139  CG        -3.3350  -18.9130    0.1540 C.3    51  MET51       0.0598
    140  SD        -3.6410  -20.5010    0.9670 S.3    51  MET51      -0.1393
    141  CE        -4.9110  -20.1020    2.1700 C.3    51  MET51       0.0692
    142  N         -1.5830  -11.7900   -5.5970 N.3    55  THR55      -0.1218
    143  CA        -2.5280  -11.2690   -6.5500 C.3    55  THR55       0.1862
    144  C         -1.8850  -10.0270   -7.1660 C.2    55  THR55       0.2287
    145  O         -0.7210   -9.7340   -6.8900 O.2    55  THR55      -0.2866
    146  CB        -3.8350  -10.9390   -5.8240 C.3    55  THR55       0.1770
    147  OG1       -3.6110   -9.9380   -4.8370 O.3    55  THR55      -0.2211
    148  CG2       -4.3840  -12.2080   -5.1110 C.3    55  THR55       0.0375
    149  N         -2.6610   -7.2020   -6.1800 N.3    57  ASN57      -0.1240
    150  CA        -2.7030   -6.2940   -5.0600 C.3    57  ASN57       0.1653
    151  C         -1.3920   -6.3490   -4.2820 C.2    57  ASN57       0.2266
    152  O         -1.0760   -7.3890   -3.6700 O.2    57  ASN57      -0.2867
    153  CB        -3.8740   -6.6750   -4.1660 C.3    57  ASN57       0.1155
    154  CG        -4.0740   -5.7250   -3.0140 C.2    57  ASN57       0.2627
    155  OD1       -3.1990   -4.9090   -2.6510 O.2    57  ASN57      -0.2716
    156  ND2       -5.2450   -5.8060   -2.4050 N.am   57  ASN57      -0.0877
    157  N         -0.5950   -5.2180   -1.4840 N.3    59  ASN59      -0.1240
    158  CA        -0.8060   -5.3810   -0.0560 C.3    59  ASN59       0.1653
    159  C         -0.9010   -6.8570    0.3970 C.2    59  ASN59       0.2266
    160  O         -0.9340   -7.1380    1.5980 O.2    59  ASN59      -0.2867
    161  CB        -2.0740   -4.6290    0.3370 C.3    59  ASN59       0.1155
    162  CG        -2.0150   -3.1590   -0.0460 C.2    59  ASN59       0.2627
    163  OD1       -2.7330   -2.6930   -0.9280 O.2    59  ASN59      -0.2716
    164  ND2       -1.1510   -2.4300    0.6290 N.am   59  ASN59      -0.0877
    165  N          1.1280  -10.2060    0.2430 N.3    60  VAL60      -0.1245
    166  CA         2.4000  -10.9470    0.0630 C.3    60  VAL60       0.1561
    167  C          2.0830  -12.4320   -0.1600 C.2    60  VAL60       0.2260
    168  O          1.3510  -13.0030    0.6660 O.2    60  VAL60      -0.2867
    169  CB         3.3080  -10.7670    1.3250 C.3    60  VAL60       0.0252
    170  CG1        4.5610  -11.5970    1.2560 C.3    60  VAL60       0.0019
    171  CG2        3.7250   -9.3150    1.4850 C.3    60  VAL60       0.0019
    172  N          2.3200  -16.2580    0.3350 N.3    62  LEU62      -0.1245
    173  CA         2.5610  -16.8150    1.6710 C.3    62  LEU62       0.1561
    174  C          3.9750  -17.3920    1.8340 C.2    62  LEU62       0.2260
    175  O          4.5100  -17.3950    2.9510 O.2    62  LEU62      -0.2867
    176  CB         1.4960  -17.8250    2.0600 C.3    62  LEU62       0.0270
    177  CG         0.0750  -17.2470    2.1420 C.3    62  LEU62       0.0019
    178  CD1       -0.8270  -18.3010    2.7090 C.3    62  LEU62       0.0001
    179  CD2       -0.0010  -15.9610    2.9560 C.3    62  LEU62       0.0001
    180  N          6.1280  -15.0960    3.7580 N.3    65  LEU65      -0.1245
    181  CA         5.9840  -15.1520    5.1890 C.3    65  LEU65       0.1561
    182  C          6.6360  -16.4340    5.7770 C.2    65  LEU65       0.2260
    183  O          6.4740  -16.7110    6.9640 O.2    65  LEU65      -0.2867
    184  CB         4.4900  -15.1010    5.5570 C.3    65  LEU65       0.0270
    185  CG         3.7560  -13.7910    5.2500 C.3    65  LEU65       0.0019
    186  CD1        2.2620  -14.0250    5.4100 C.3    65  LEU65       0.0001
    187  CD2        4.2280  -12.6660    6.1520 C.3    65  LEU65       0.0001
    188  N          5.8700  -19.5620    4.8380 N.3    67  VAL67      -0.1245
    189  CA         4.9500  -20.7000    4.8200 C.3    67  VAL67       0.1561
    190  C          5.3800  -21.6980    3.7520 C.2    67  VAL67       0.2260
    191  O          5.6300  -21.3390    2.6230 O.2    67  VAL67      -0.2867
    192  CB         3.5080  -20.2430    4.5350 C.3    67  VAL67       0.0252
    193  CG1        2.5330  -21.4100    4.4360 C.3    67  VAL67       0.0019
    194  CG2        3.0300  -19.3080    5.6370 C.3    67  VAL67       0.0019
    195  N         -4.1680  -25.0360    4.9820 N.3    75  LEU75      -0.1245
    196  CA        -4.4930  -23.6590    5.3460 C.3    75  LEU75       0.1561
    197  C         -5.7580  -23.1730    4.6450 C.2    75  LEU75       0.2260
    198  O         -6.5300  -22.4600    5.2720 O.2    75  LEU75      -0.2867
    199  CB        -3.3100  -22.7320    5.0150 C.3    75  LEU75       0.0270
    200  CG        -2.1470  -22.8020    5.9920 C.3    75  LEU75       0.0019
    201  CD1       -0.8960  -22.1860    5.3920 C.3    75  LEU75       0.0001
    202  CD2       -2.5040  -22.1480    7.3220 C.3    75  LEU75       0.0001
    203  N         -8.9720  -21.7080    6.6520 N.3    79  VAL79      -0.1245
    204  CA        -9.6720  -20.4740    6.2960 C.3    79  VAL79       0.1561
    205  C        -11.1570  -20.7470    6.0670 C.2    79  VAL79       0.2260
    206  O        -12.0170  -19.9700    6.5070 O.2    79  VAL79      -0.2867
    207  CB        -8.9980  -19.8190    5.0430 C.3    79  VAL79       0.0252
    208  CG1       -9.8770  -18.7310    4.4560 C.3    79  VAL79       0.0019
    209  CG2       -7.6070  -19.2920    5.4090 C.3    79  VAL79       0.0019
@<TRIPOS>BOND
     1   144   145    2
     2   144   143    1
     3   118   117    1
     4   143   146    1
     5   143   142    1
     6   149   150    1
     7   146   148    1
     8   146   147    1
     9   119   117    1
    10   117   116    2
    11   128   129    1
    12   150   151    1
    13   150   153    1
    14   133   132    1
    15   129   132    1
    16   129   130    1
    17   116   115    1
    18   111   110    1
    19   111   112    2
    20   110   109    1
    21   110   113    1
    22   151   152    2
    23   120   121    1
    24   153   154    1
    25   115   114    1
    26   130   131    2
    27   130   134   am
    28   113   114    1
    29   154   155    2
    30   154   156   am
    31   121   122    1
    32   121   124    1
    33   122   123    2
    34   134   135    1
    35   136   137    2
    36   136   135    1
    37   124   125    1
    38   135   138    1
    39   157   158    1
    40   163   162    2
    41   138   139    1
    42   100    99    2
    43   125   126    1
    44   167   166    1
    45   167   168    2
    46   158   161    1
    47   158   159    1
    48   162   161    1
    49   162   164   am
    50   105   103   ar
    51   105   107   ar
    52   166   165    1
    53   166   169    1
    54   139   140    1
    55   108   107    1
    56   172   173    1
    57   159   160    2
    58    99    98    1
    59   103   102   ar
    60   107   106   ar
    61   127   126    1
    62    98    97    1
    63    98   101    1
    64   140   141    1
    65   170   169    1
    66   169   171    1
    67   102   101    1
    68   102   104   ar
    69   106   104   ar
    70   173   174    1
    71   173   176    1
    72   174   175    2
    73   176   177    1
    74   177   178    1
    75   177   179    1
    76    71    70    2
    77    60    59    2
    78   191   190    2
    79    83    84    1
    80    83    80    1
    81    84    85    1
    82    85    79    1
    83    69    70    1
    84    69    68    1
    85    70    72   am
    86    59    68   am
    87    59    58    1
    88    80    79    1
    89    80    81    1
    90    79    74   am
    91   190   189    1
    92   180   181    1
    93    74    73    1
    94    74    75    2
    95    72    73    1
    96    94    92   ar
    97    94    96   ar
    98   193   192    1
    99   208   207    1
   100    73    76    1
   101   192   189    1
   102   192   194    1
   103   197   198    2
   104   197   196    1
   105    58    61    1
   106    58    57    1
   107   189   188    1
   108   195   196    1
   109    92    91   ar
   110   199   196    1
   111   199   200    1
   112   207   209    1
   113   207   204    1
   114    81    82    2
   115    96    95   ar
   116   181   184    1
   117   181   182    1
   118    61    62    1
   119   185   186    1
   120   185   184    1
   121   185   187    1
   122   201   200    1
   123    55    56   ar
   124    55    53   ar
   125    56    54   ar
   126   182   183    2
   127    76    77    1
   128    76    78    1
   129   200   202    1
   130   205   204    1
   131   205   206    2
   132    62    63   ar
   133    62    64   ar
   134    63    65   ar
   135   204   203    1
   136    91    90    1
   137    91    93   ar
   138    87    86    1
   139    87    90    1
   140    87    88    1
   141    95    93   ar
   142    53    52   ar
   143    89    88    2
   144    54    52   ar
   145    64    66   ar
   146    65    67   ar
   147    52    51    1
   148    66    67   ar
   149    46    45    1
   150    45    42    1
   151    26    24    1
   152    32    31    1
   153    51    48    1
   154    23    22    2
   155     7     5    1
   156    31    28    1
   157    48    47    1
   158    48    49    1
   159    44    43    2
   160    24    25    1
   161    24    21    1
   162    28    27    1
   163    28    29    1
   164    16    14   ar
   165    16    18   ar
   166    43    42    1
   167    43    47   am
   168    42    41    1
   169    14    13   ar
   170    22    27   am
   171    22    21    1
   172    30    29    2
   173     5     6    1
   174     5     2    1
   175    21    20    1
   176    19    18    1
   177    41    35   am
   178    50    49    2
   179    18    17   ar
   180    13    12    1
   181    13    15   ar
   182     4     3    2
   183    12     9    1
   184     9     8    1
   185     9    10    1
   186     3     8   am
   187     3     2    1
   188     2     1    1
   189    40    38    1
   190    35    36    2
   191    35    34    1
   192    17    15   ar
   193    11    10    2
   194    37    34    1
   195    37    38    1
   196    33    34    1
   197    38    39    1
