@<TRIPOS>MOLECULE
tmp/5xdkA00.pdb
 167 158 0 0 0
SMALL
GASTEIGER

@<TRIPOS>ATOM
      1  N        -46.3390   10.6060  -17.9040 N.3    21  LYS21      -0.1231
      2  CA       -45.3390    9.6780  -17.4180 C.3    21  LYS21       0.1693
      3  C        -45.3590    8.3900  -18.2100 C.2    21  LYS21       0.2592
      4  O        -46.3180    8.1080  -18.8910 O.2    21  LYS21      -0.2718
      5  CB       -45.5310    9.4100  -15.9340 C.3    21  LYS21       0.0285
      6  CG       -46.2930    8.1480  -15.6120 C.3    21  LYS21       0.0035
      7  CD       -47.0010    8.2790  -14.2810 C.3    21  LYS21       0.0206
      8  CE       -47.1390    9.7360  -13.8790 C.3    21  LYS21       0.1093
      9  NZ       -47.1810    9.9250  -12.4010 N.3    21  LYS21      -0.1314
     10  N        -44.2910    7.6140  -18.1190 N.am   22  VAL22      -0.1966
     11  CA       -44.2140    6.3230  -18.7780 C.3    22  VAL22       0.1727
     12  C        -45.0900    5.2910  -18.0880 C.2    22  VAL22       0.2616
     13  O        -45.1890    5.2710  -16.8710 O.2    22  VAL22      -0.2715
     14  CB       -42.7730    5.8050  -18.7830 C.3    22  VAL22       0.0290
     15  CG1      -42.6930    4.4400  -19.4320 C.3    22  VAL22       0.0023
     16  CG2      -41.8580    6.7940  -19.4770 C.3    22  VAL22       0.0023
     17  N        -45.7340    4.4380  -18.8710 N.am   23  LEU23      -0.1963
     18  CA       -46.4480    3.3020  -18.3200 C.3    23  LEU23       0.1728
     19  C        -45.6880    1.9910  -18.5030 C.2    23  LEU23       0.2616
     20  O        -45.5870    1.1870  -17.5880 O.2    23  LEU23      -0.2715
     21  CB       -47.8310    3.1920  -18.9450 C.3    23  LEU23       0.0311
     22  CG       -48.7990    4.3160  -18.6080 C.3    23  LEU23       0.0022
     23  CD1      -50.1110    4.1220  -19.3340 C.3    23  LEU23       0.0001
     24  CD2      -49.0200    4.3740  -17.1130 C.3    23  LEU23       0.0001
     25  N        -45.1700    1.7730  -19.7010 N.am   24  GLY24      -0.1955
     26  CA       -44.4540    0.5540  -20.0020 C.3    24  GLY24       0.1869
     27  C        -43.3830    0.7940  -21.0350 C.2    24  GLY24       0.2309
     28  O        -43.5060    1.6850  -21.8600 O.2    24  GLY24      -0.2863
     29  N        -45.0890    2.9370  -24.0520 N.3    31  VAL31      -0.1245
     30  CA       -46.3970    3.5120  -23.8160 C.3    31  VAL31       0.1561
     31  C        -46.3530    4.5820  -22.7460 C.2    31  VAL31       0.2260
     32  O        -45.7150    4.4090  -21.7380 O.2    31  VAL31      -0.2867
     33  CB       -47.4050    2.4330  -23.4080 C.3    31  VAL31       0.0252
     34  CG1      -48.7490    3.0600  -23.1060 C.3    31  VAL31       0.0019
     35  CG2      -47.5270    1.3920  -24.4980 C.3    31  VAL31       0.0019
     36  N        -48.6460    7.4210  -20.2820 N.3    33  LYS33      -0.1245
     37  CA       -49.8550    8.0530  -19.7930 C.3    33  LYS33       0.1561
     38  C        -49.8470    9.4940  -20.2840 C.2    33  LYS33       0.2260
     39  O        -48.8070   10.1030  -20.3460 O.2    33  LYS33      -0.2867
     40  CB       -49.9060    7.9800  -18.2760 C.3    33  LYS33       0.0271
     41  CG       -51.1500    8.5640  -17.6620 C.3    33  LYS33       0.0035
     42  CD       -50.8700    9.0350  -16.2560 C.3    33  LYS33       0.0206
     43  CE       -50.2050    7.9470  -15.4340 C.3    33  LYS33       0.1093
     44  NZ       -50.3360    8.2010  -13.9740 N.3    33  LYS33      -0.1314
     45  N        -53.4790    6.8580  -23.5620 N.3    48  ALA48      -0.1245
     46  CA       -52.2350    6.1360  -23.5620 C.3    48  ALA48       0.1562
     47  C        -51.6050    6.4100  -24.9110 C.2    48  ALA48       0.2260
     48  O        -52.2590    6.2930  -25.9330 O.2    48  ALA48      -0.2867
     49  CB       -52.4810    4.6550  -23.3810 C.3    48  ALA48       0.0290
     50  N        -48.6680    5.3850  -27.5120 N.3    50  LYS50      -0.1245
     51  CA       -47.6490    4.4390  -27.8860 C.3    50  LYS50       0.1561
     52  C        -46.7800    5.0060  -28.9960 C.2    50  LYS50       0.2260
     53  O        -47.2310    5.1840  -30.1120 O.2    50  LYS50      -0.2867
     54  CB       -48.2810    3.1310  -28.3310 C.3    50  LYS50       0.0271
     55  CG       -47.3080    1.9760  -28.3510 C.3    50  LYS50       0.0035
     56  CD       -47.7150    0.9230  -29.3570 C.3    50  LYS50       0.0206
     57  CE       -48.2280   -0.3180  -28.6640 C.3    50  LYS50       0.1093
     58  NZ       -48.4780   -1.4200  -29.6280 N.3    50  LYS50      -0.1314
     59  N        -61.0990   -1.8190  -27.3130 N.3    79  CYS79      -0.1235
     60  CA       -60.3730   -0.5740  -27.2540 C.3    79  CYS79       0.1677
     61  C        -60.4140    0.1040  -28.6080 C.2    79  CYS79       0.2270
     62  O        -60.2950   -0.5390  -29.6210 O.2    79  CYS79      -0.2867
     63  CB       -58.9390   -0.8150  -26.8200 C.3    79  CYS79       0.0956
     64  SG       -58.7550   -1.4490  -25.1440 S.3    79  CYS79      -0.0801
     65  N        -54.5050    6.2410  -27.8140 N.3    94  MET94      -0.1230
     66  CA       -55.5830    5.3750  -27.3860 C.3    94  MET94       0.1702
     67  C        -56.1690    5.8270  -26.0680 C.2    94  MET94       0.2592
     68  O        -55.5660    6.5880  -25.3400 O.2    94  MET94      -0.2718
     69  CB       -55.0920    3.9490  -27.2430 C.3    94  MET94       0.0401
     70  CG       -55.0250    3.1890  -28.5450 C.3    94  MET94       0.0596
     71  SD       -53.7530    1.9330  -28.5310 S.3    94  MET94      -0.1393
     72  CE       -52.3700    2.8810  -27.9310 C.3    94  MET94       0.0692
     73  N        -57.3580    5.3390  -25.7800 N.am   95  GLN95      -0.1966
     74  CA       -57.9850    5.6330  -24.5250 C.3    95  GLN95       0.1733
     75  C        -57.1740    5.0180  -23.4010 C.2    95  GLN95       0.2616
     76  O        -56.7810    3.8690  -23.4640 O.2    95  GLN95      -0.2715
     77  CB       -59.4180    5.1250  -24.5350 C.3    95  GLN95       0.0408
     78  CG       -59.9560    4.6870  -23.1940 C.3    95  GLN95       0.0908
     79  CD       -61.4000    4.2280  -23.2520 C.2    95  GLN95       0.2608
     80  OE1      -61.7350    3.2690  -23.9340 O.2    95  GLN95      -0.2717
     81  NE2      -62.2550    4.9070  -22.5200 N.am   95  GLN95      -0.0878
     82  N        -56.9010    5.8130  -22.3810 N.am   96  LEU96      -0.1963
     83  CA       -56.1970    5.3200  -21.2210 C.3    96  LEU96       0.1728
     84  C        -57.0710    4.3560  -20.4240 C.2    96  LEU96       0.2616
     85  O        -58.2170    4.6400  -20.1600 O.2    96  LEU96      -0.2715
     86  CB       -55.7760    6.4840  -20.3370 C.3    96  LEU96       0.0311
     87  CG       -55.0630    6.1250  -19.0430 C.3    96  LEU96       0.0022
     88  CD1      -53.7860    5.3690  -19.3330 C.3    96  LEU96       0.0001
     89  CD2      -54.7670    7.3670  -18.2360 C.3    96  LEU96       0.0001
     90  N        -56.5270    3.2100  -20.0570 N.am   97  MET97      -0.1964
     91  CA       -57.2270    2.3160  -19.1570 C.3    97  MET97       0.1722
     92  C        -56.5100    2.2610  -17.8180 C.2    97  MET97       0.2458
     93  O        -55.5150    1.5970  -17.6530 O.2    97  MET97      -0.2730
     94  CB       -57.3770    0.9380  -19.7880 C.3    97  MET97       0.0427
     95  CG       -57.9000    0.9830  -21.2150 C.3    97  MET97       0.0599
     96  SD       -59.6530    1.3350  -21.3740 S.3    97  MET97      -0.1393
     97  CE       -60.2800   -0.3070  -21.1670 C.3    97  MET97       0.0692
     98  N        -57.1040    2.9220  -16.8450 N.am   98  PRO98      -0.2716
     99  CA       -56.4500    3.2660  -15.5940 C.3    98  PRO98       0.1536
    100  C        -56.0010    2.0760  -14.7750 C.2    98  PRO98       0.2599
    101  O        -55.0100    2.1820  -14.1050 O.2    98  PRO98      -0.2715
    102  CB       -57.5080    4.0920  -14.8770 C.3    98  PRO98       0.0310
    103  CG       -58.2570    4.7300  -15.9810 C.3    98  PRO98       0.0237
    104  CD       -58.3410    3.6880  -17.0380 C.3    98  PRO98       0.0939
    105  N        -56.7320    0.9800  -14.8000 N.am   99  PHE99      -0.1960
    106  CA       -56.3790   -0.1810  -14.0000 C.3    99  PHE99       0.1771
    107  C        -55.4770   -1.1970  -14.6720 C.2    99  PHE99       0.2620
    108  O        -55.2170   -2.2510  -14.1270 O.2    99  PHE99      -0.2715
    109  CB       -57.6250   -0.8270  -13.4380 C.3    99  PHE99       0.0574
    110  CG       -58.4270    0.1010  -12.6050 C.ar   99  PHE99      -0.0200
    111  CD1      -59.2670    1.0080  -13.1930 C.ar   99  PHE99      -0.0042
    112  CD2      -58.3000    0.1020  -11.2410 C.ar   99  PHE99      -0.0042
    113  CE1      -59.9930    1.8860  -12.4390 C.ar   99  PHE99      -0.0003
    114  CE2      -59.0240    0.9750  -10.4740 C.ar   99  PHE99      -0.0003
    115  CZ       -59.8730    1.8700  -11.0720 C.ar   99  PHE99      -0.0000
    116  N        -55.0240   -0.8760  -15.8710 N.am  100  GLY100     -0.1940
    117  CA       -54.0720   -1.7040  -16.5700 C.3   100  GLY100      0.2014
    118  C        -54.6730   -2.9420  -17.1810 C.2   100  GLY100      0.2639
    119  O        -55.8610   -3.0270  -17.3860 O.2   100  GLY100     -0.2714
    120  N        -53.8180   -3.8970  -17.5130 N.am  101  CYS101     -0.1967
    121  CA       -54.2850   -5.1570  -18.0920 C.3   101  CYS101      0.1712
    122  C        -54.9330   -6.0490  -17.0260 C.2   101  CYS101      0.2296
    123  O        -54.5820   -6.0160  -15.8530 O.2   101  CYS101     -0.2864
    124  CB       -53.2070   -5.8890  -18.8930 C.3   101  CYS101      0.0983
    125  SG       -51.9630   -6.7640  -17.9000 S.3   101  CYS101     -0.0798
    126  N        -54.7980   -9.2740  -16.6950 N.3   103  LEU103     -0.1231
    127  CA       -53.9430  -10.2890  -16.1180 C.3   103  LEU103      0.1693
    128  C        -53.2200   -9.7590  -14.8950 C.2   103  LEU103      0.2592
    129  O        -53.1470  -10.4260  -13.8820 O.2   103  LEU103     -0.2718
    130  CB       -52.9470  -10.8110  -17.1380 C.3   103  LEU103      0.0284
    131  CG       -51.8510  -11.7400  -16.6190 C.3   103  LEU103      0.0019
    132  CD1      -52.4280  -13.0160  -16.0400 C.3   103  LEU103      0.0001
    133  CD2      -50.8530  -12.0650  -17.7130 C.3   103  LEU103      0.0001
    134  N        -52.6870   -8.5550  -14.9900 N.am  104  ASP104     -0.1974
    135  CA       -52.0720   -7.9280  -13.8380 C.3   104  ASP104      0.1709
    136  C        -53.0760   -7.6400  -12.7350 C.2   104  ASP104      0.2293
    137  O        -52.7620   -7.7540  -11.5750 O.2   104  ASP104     -0.2864
    138  CB       -51.3100   -6.6690  -14.2250 C.3   104  ASP104      0.1436
    139  CG       -50.0160   -6.9680  -14.9350 C.2   104  ASP104      0.3671
    140  OD1      -49.2440   -6.0240  -15.1590 O.co2 104  ASP104     -0.2456
    141  OD2      -49.7680   -8.1330  -15.2730 O.co2 104  ASP104     -0.2456
    142  N        -53.6980  -10.9020  -20.6960 N.3   145  ARG145     -0.1245
    143  CA       -52.7500   -9.8080  -20.8690 C.3   145  ARG145      0.1563
    144  C        -53.2810   -8.7690  -21.8490 C.2   145  ARG145      0.2260
    145  O        -53.0030   -7.5920  -21.7270 O.2   145  ARG145     -0.2867
    146  CB       -51.3870  -10.3390  -21.3170 C.3   145  ARG145      0.0307
    147  CG       -51.3090  -10.6840  -22.7850 C.3   145  ARG145      0.0489
    148  CD       -50.1480  -11.6010  -23.1160 C.3   145  ARG145      0.2205
    149  NE       -50.3340  -12.1740  -24.4410 N.pl3 145  ARG145     -0.0865
    150  CZ       -50.4160  -13.4710  -24.6980 C.cat 145  ARG145      0.5346
    151  NH1      -50.3050  -14.3540  -23.7240 N.pl3 145  ARG145      0.1354
    152  NH2      -50.6070  -13.8850  -25.9340 N.pl3 145  ARG145      0.1354
    153  N        -57.9670   -4.9940  -21.2850 N.3   148  LEU148     -0.1245
    154  CA       -57.6650   -3.8460  -20.4530 C.3   148  LEU148      0.1561
    155  C        -58.8230   -3.4790  -19.5460 C.2   148  LEU148      0.2260
    156  O        -59.9560   -3.7800  -19.8330 O.2   148  LEU148     -0.2867
    157  CB       -57.2370   -2.6490  -21.3020 C.3   148  LEU148      0.0270
    158  CG       -55.8840   -2.7860  -21.9850 C.3   148  LEU148      0.0019
    159  CD1      -55.5550   -1.5680  -22.8240 C.3   148  LEU148      0.0001
    160  CD2      -54.7940   -3.0350  -20.9650 C.3   148  LEU148      0.0001
    161  N        -58.0190   -5.7230  -26.3960 N.3   158  THR158     -0.1218
    162  CA       -56.9570   -4.9290  -26.9750 C.3   158  THR158      0.1862
    163  C        -55.9350   -5.7810  -27.7050 C.2   158  THR158      0.2287
    164  O        -56.1030   -6.9780  -27.8380 O.2   158  THR158     -0.2866
    165  CB       -56.2490   -4.0500  -25.9360 C.3   158  THR158      0.1770
    166  OG1      -55.6860   -2.9230  -26.5980 O.3   158  THR158     -0.2211
    167  CG2      -55.1490   -4.7950  -25.2680 C.3   158  THR158      0.0375
@<TRIPOS>BOND
     1    53    52    2
     2    58    57    1
     3    62    61    2
     4    56    57    1
     5    56    55    1
     6    52    51    1
     7    61    60    1
     8    70    71    1
     9    70    69    1
    10    71    72    1
    11    55    54    1
    12    54    51    1
    13    51    50    1
    14   164   163    2
    15    65    66    1
    16   163   162    1
    17    66    69    1
    18    66    67    1
    19    59    60    1
    20    60    63    1
    21   162   161    1
    22   162   165    1
    23    63    64    1
    24   166   165    1
    25    67    73   am
    26    67    68    2
    27   165   167    1
    28   152   150    1
    29    48    47    2
    30    73    74    1
    31    47    46    1
    32   150   149    2
    33   150   151    1
    34    77    74    1
    35    77    78    1
    36    74    75    1
    37    35    33    1
    38   149   148    1
    39    29    30    1
    40    80    79    2
    41    30    33    1
    42    30    31    1
    43    45    46    1
    44    46    49    1
    45    76    75    2
    46    33    34    1
    47    75    82   am
    48    79    78    1
    49    79    81   am
    50   148   147    1
    51   159   158    1
    52   147   146    1
    53    31    32    2
    54    82    83    1
    55   158   157    1
    56   158   160    1
    57    28    27    2
    58   144   145    2
    59   144   143    1
    60    96    95    1
    61    96    97    1
    62   146   143    1
    63   157   154    1
    64   153   154    1
    65    83    84    1
    66    83    86    1
    67    95    94    1
    68    27    26    1
    69   143   142    1
    70   154   155    1
    71    84    85    2
    72    84    90   am
    73    39    38    2
    74    86    87    1
    75    38    37    1
    76    36    37    1
    77    90    91    1
    78    26    25    1
    79   156   155    2
    80    37    40    1
    81    94    91    1
    82    25    19   am
    83    16    14    1
    84    15    14    1
    85    23    22    1
    86    88    87    1
    87    91    92    1
    88    87    89    1
    89    21    22    1
    90    21    18    1
    91   124   121    1
    92   124   125    1
    93     4     3    2
    94    17    18    1
    95    17    12   am
    96    14    11    1
    97    11    10    1
    98    11    12    1
    99    22    24    1
   100    19    18    1
   101    19    20    2
   102    40    41    1
   103     3    10   am
   104     3     2    1
   105   121   120    1
   106   121   122    1
   107    12    13    2
   108     1     2    1
   109    92    93    2
   110    92    98   am
   111   133   131    1
   112    41    42    1
   113   120   118   am
   114     2     5    1
   115   119   118    2
   116   118   117    1
   117   130   131    1
   118   130   127    1
   119   104    98    1
   120   104   103    1
   121   122   123    2
   122    98    99    1
   123   126   127    1
   124   131   132    1
   125   117   116    1
   126    42    43    1
   127   127   128    1
   128   103   102    1
   129     5     6    1
   130   116   107   am
   131     6     7    1
   132    99   102    1
   133    99   100    1
   134    43    44    1
   135   141   139   ar
   136   140   139   ar
   137   134   128   am
   138   134   135    1
   139   139   138    1
   140   128   129    2
   141   105   100   am
   142   105   106    1
   143   100   101    2
   144   107   108    2
   145   107   106    1
   146     7     8    1
   147   138   135    1
   148   106   109    1
   149     8     9    1
   150   135   136    1
   151   109   110    1
   152   111   110   ar
   153   111   113   ar
   154   136   137    2
   155   110   112   ar
   156   113   115   ar
   157   112   114   ar
   158   115   114   ar
