@<TRIPOS>MOLECULE
tmp/5xdoA00.pdb
 128 119 0 0 0
SMALL
GASTEIGER

@<TRIPOS>ATOM
      1  N        -46.5850   -2.1680   20.7060 N.3     7  TYR7       -0.1227
      2  CA       -47.0890   -2.9920   19.6120 C.3     7  TYR7        0.1736
      3  C        -45.9910   -3.8570   19.0050 C.2     7  TYR7        0.2595
      4  O        -46.2590   -4.9830   18.5710 O.2     7  TYR7       -0.2718
      5  CB       -47.7250   -2.1070   18.5380 C.3     7  TYR7        0.0548
      6  CG       -48.5520   -2.8690   17.5260 C.ar    7  TYR7       -0.0200
      7  CD1      -49.9240   -3.0020   17.6840 C.ar    7  TYR7       -0.0009
      8  CD2      -47.9620   -3.4460   16.4090 C.ar    7  TYR7       -0.0009
      9  CE1      -50.6840   -3.6950   16.7620 C.ar    7  TYR7        0.0417
     10  CE2      -48.7140   -4.1410   15.4820 C.ar    7  TYR7        0.0417
     11  CZ       -50.0740   -4.2620   15.6640 C.ar    7  TYR7        0.1957
     12  OH       -50.8290   -4.9530   14.7450 O.3     7  TYR7       -0.2866
     13  N        -44.7590   -3.3570   18.9680 N.am    8  ALA8       -0.1980
     14  CA       -43.6370   -4.1290   18.4520 C.3     8  ALA8        0.1597
     15  C        -43.0640   -5.0990   19.4760 C.2     8  ALA8        0.2287
     16  O        -42.1460   -5.8550   19.1390 O.2     8  ALA8       -0.2864
     17  CB       -42.5330   -3.1890   17.9610 C.3     8  ALA8        0.0319
     18  N        -45.3130   -6.9680   21.7620 N.3    10  LEU10      -0.1231
     19  CA       -46.2860   -7.9710   22.1690 C.3    10  LEU10       0.1693
     20  C        -46.0290   -9.2760   21.4250 C.2    10  LEU10       0.2592
     21  O        -45.6960   -9.2780   20.2360 O.2    10  LEU10      -0.2718
     22  CB       -47.7150   -7.4710   21.9350 C.3    10  LEU10       0.0284
     23  CG       -48.1070   -6.6860   20.6790 C.3    10  LEU10       0.0019
     24  CD1      -48.1890   -7.5690   19.4440 C.3    10  LEU10       0.0001
     25  CD2      -49.4250   -5.9550   20.9060 C.3    10  LEU10       0.0001
     26  N        -46.1670  -10.3900   22.1390 N.am   11  GLY11      -0.1957
     27  CA       -45.7540  -11.6680   21.5930 C.3    11  GLY11       0.1869
     28  C        -44.2530  -11.8230   21.4960 C.2    11  GLY11       0.2309
     29  O        -43.7650  -12.5560   20.6300 O.2    11  GLY11      -0.2863
     30  N        -41.4810  -15.0640   20.4180 N.3    15  ARG15      -0.1245
     31  CA       -40.5140  -14.7470   19.3740 C.3    15  ARG15       0.1563
     32  C        -39.0820  -14.9740   19.8460 C.2    15  ARG15       0.2260
     33  O        -38.2310  -15.4050   19.0590 O.2    15  ARG15      -0.2867
     34  CB       -40.7040  -13.3010   18.9150 C.3    15  ARG15       0.0307
     35  CG       -39.6380  -12.7970   17.9560 C.3    15  ARG15       0.0489
     36  CD       -40.0210  -11.4590   17.3370 C.3    15  ARG15       0.2205
     37  NE       -40.4000  -10.4670   18.3400 N.pl3  15  ARG15      -0.0865
     38  CZ       -41.6500  -10.0740   18.5660 C.cat  15  ARG15       0.5346
     39  NH1      -41.9020   -9.1650   19.4980 N.pl3  15  ARG15       0.1354
     40  NH2      -42.6470  -10.5920   17.8610 N.pl3  15  ARG15       0.1354
     41  N        -45.7800    7.3120   12.5140 N.3   139  ARG139     -0.1245
     42  CA       -46.2400    6.0000   12.9480 C.3   139  ARG139      0.1563
     43  C        -46.9510    6.1310   14.2870 C.2   139  ARG139      0.2260
     44  O        -46.4060    6.7150   15.2290 O.2   139  ARG139     -0.2867
     45  CB       -45.0760    5.0150   13.0660 C.3   139  ARG139      0.0307
     46  CG       -45.4740    3.6760   13.6640 C.3   139  ARG139      0.0489
     47  CD       -44.2650    2.8930   14.1400 C.3   139  ARG139      0.2205
     48  NE       -44.6560    1.6940   14.8750 N.pl3 139  ARG139     -0.0865
     49  CZ       -44.9340    1.6740   16.1750 C.cat 139  ARG139      0.5346
     50  NH1      -44.8630    2.7910   16.8860 N.pl3 139  ARG139      0.1354
     51  NH2      -45.2820    0.5380   16.7640 N.pl3 139  ARG139      0.1354
     52  N        -51.6550   -0.5040   14.9340 N.3   154  GLN154     -0.1245
     53  CA       -50.5310    0.2980   14.4760 C.3   154  GLN154      0.1566
     54  C        -50.8610    0.9040   13.1200 C.2   154  GLN154      0.2260
     55  O        -51.4310    0.2360   12.2520 O.2   154  GLN154     -0.2867
     56  CB       -49.2490   -0.5390   14.3820 C.3   154  GLN154      0.0367
     57  CG       -48.0550    0.2130   13.8160 C.3   154  GLN154      0.0905
     58  CD       -46.9700   -0.7130   13.3040 C.2   154  GLN154      0.2608
     59  OE1      -46.4790   -1.5750   14.0330 O.2   154  GLN154     -0.2717
     60  NE2      -46.5900   -0.5390   12.0430 N.am  154  GLN154     -0.0878
     61  N        -52.0740   -2.1780   10.8830 N.3   168  ASN168     -0.1240
     62  CA       -51.9600   -3.5050   11.4710 C.3   168  ASN168      0.1653
     63  C        -52.7950   -3.5890   12.7410 C.2   168  ASN168      0.2266
     64  O        -52.7050   -2.7130   13.6070 O.2   168  ASN168     -0.2867
     65  CB       -50.4980   -3.8360   11.7830 C.3   168  ASN168      0.1155
     66  CG       -49.6020   -3.7450   10.5630 C.2   168  ASN168      0.2627
     67  OD1      -49.9870   -3.1940    9.5330 O.2   168  ASN168     -0.2716
     68  ND2      -48.3950   -4.2880   10.6760 N.am  168  ASN168     -0.0877
     69  N        -53.9840   -6.2220   16.0850 N.3   170  ALA170     -0.1245
     70  CA       -53.4120   -7.2860   16.9010 C.3   170  ALA170      0.1562
     71  C        -54.2760   -7.5010   18.1330 C.2   170  ALA170      0.2260
     72  O        -54.5280   -6.5570   18.8880 O.2   170  ALA170     -0.2867
     73  CB       -51.9720   -6.9560   17.3110 C.3   170  ALA170      0.0290
     74  N        -51.3180  -14.9180   20.8070 N.3   181  HIS181     -0.1226
     75  CA       -51.3460  -13.6550   20.0870 C.3   181  HIS181      0.1752
     76  C        -51.7970  -13.8810   18.6510 C.2   181  HIS181      0.2597
     77  O        -51.5220  -14.9250   18.0520 O.2   181  HIS181     -0.2718
     78  CB       -49.9690  -12.9760   20.1070 C.3   181  HIS181      0.0759
     79  CG       -49.4700  -12.6670   21.4840 C.ar  181  HIS181      0.0818
     80  ND1      -49.5240  -11.4030   22.0310 N.ar  181  HIS181     -0.2268
     81  CD2      -48.9110  -13.4610   22.4280 C.ar  181  HIS181      0.1154
     82  CE1      -49.0190  -11.4310   23.2510 C.ar  181  HIS181      0.1986
     83  NE2      -48.6390  -12.6680   23.5170 N.ar  181  HIS181     -0.2212
     84  N        -52.4940  -12.8870   18.1040 N.am  182  THR182     -0.1939
     85  CA       -53.0170  -12.9350   16.7450 C.3   182  THR182      0.2028
     86  C        -52.7160  -11.6130   16.0570 C.2   182  THR182      0.2642
     87  O        -52.9220  -10.5450   16.6430 O.2   182  THR182     -0.2714
     88  CB       -54.5270  -13.2070   16.7410 C.3   182  THR182      0.1808
     89  OG1      -54.7830  -14.4970   17.3110 O.3   182  THR182     -0.2208
     90  CG2      -55.0800  -13.1680   15.3230 C.3   182  THR182      0.0379
     91  N        -52.2300  -11.6840   14.8180 N.am  183  ASN183     -0.1971
     92  CA       -51.8330  -10.5030   14.0660 C.3   183  ASN183      0.1688
     93  C        -52.4000  -10.5610   12.6560 C.2   183  ASN183      0.2292
     94  O        -52.3740  -11.6110   12.0080 O.2   183  ASN183     -0.2864
     95  CB       -50.3060  -10.3750   14.0040 C.3   183  ASN183      0.1181
     96  CG       -49.8480   -9.3360   12.9990 C.2   183  ASN183      0.2629
     97  OD1      -49.3200   -9.6740   11.9390 O.2   183  ASN183     -0.2716
     98  ND2      -50.0490   -8.0650   13.3260 N.am  183  ASN183     -0.0877
     99  N        -52.1420   -8.0160    9.1070 N.3   185  ASN185     -0.1240
    100  CA       -51.4650   -6.8700    8.5110 C.3   185  ASN185      0.1653
    101  C        -52.0700   -6.5860    7.1440 C.2   185  ASN185      0.2266
    102  O        -52.0410   -7.4480    6.2590 O.2   185  ASN185     -0.2867
    103  CB       -49.9600   -7.1200    8.3860 C.3   185  ASN185      0.1155
    104  CG       -49.2940   -7.3600    9.7260 C.2   185  ASN185      0.2627
    105  OD1      -49.7600   -6.8820   10.7600 O.2   185  ASN185     -0.2716
    106  ND2      -48.1920   -8.1020    9.7140 N.am  185  ASN185     -0.0877
    107  N        -51.2070  -13.8520   11.0520 N.3   191  GLY191     -0.1210
    108  CA       -50.2200  -14.5210   11.8780 C.3   191  GLY191      0.1956
    109  C        -50.7700  -14.8660   13.2420 C.2   191  GLY191      0.2612
    110  O        -51.7970  -14.3340   13.6760 O.2   191  GLY191     -0.2717
    111  N        -50.0660  -15.7700   13.9170 N.am  192  GLY192     -0.1942
    112  CA       -50.4410  -16.1930   15.2520 C.3   192  GLY192      0.2014
    113  C        -49.3130  -16.9040   15.9710 C.2   192  GLY192      0.2639
    114  O        -48.5750  -17.6830   15.3600 O.2   192  GLY192     -0.2714
    115  N        -49.1650  -16.6460   17.2690 N.am  193  SER193     -0.1949
    116  CA       -48.1090  -17.2580   18.0610 C.3   193  SER193      0.1924
    117  C        -48.6780  -17.7410   19.3860 C.2   193  SER193      0.2314
    118  O        -49.5120  -17.0650   19.9960 O.2   193  SER193     -0.2863
    119  CB       -46.9560  -16.2780   18.3130 C.3   193  SER193      0.2116
    120  OG       -47.2750  -15.3710   19.3540 O.3   193  SER193     -0.2180
    121  N        -45.2540  -20.8860   16.0530 N.3   207  ASN207     -0.1240
    122  CA       -45.4730  -19.7350   15.1910 C.3   207  ASN207      0.1653
    123  C        -46.2190  -20.1680   13.9370 C.2   207  ASN207      0.2266
    124  O        -45.9320  -21.2250   13.3660 O.2   207  ASN207     -0.2867
    125  CB       -44.1480  -19.0660   14.8120 C.3   207  ASN207      0.1155
    126  CG       -44.3250  -17.6230   14.3770 C.2   207  ASN207      0.2627
    127  OD1      -45.3880  -17.2330   13.8930 O.2   207  ASN207     -0.2716
    128  ND2      -43.2810  -16.8210   14.5500 N.am  207  ASN207     -0.0877
@<TRIPOS>BOND
     1   102   101    2
     2   101   100    1
     3   103   100    1
     4   103   104    1
     5   100    99    1
     6    67    66    2
     7   106   104   am
     8   104   105    2
     9    66    68   am
    10    66    65    1
    11    61    62    1
    12   107   108    1
    13    62    65    1
    14    62    63    1
    15   108   109    1
    16    97    96    2
    17    94    93    2
    18    60    58   am
    19    55    54    2
    20    41    42    1
    21    93    92    1
    22    63    64    2
    23    42    45    1
    24    42    43    1
    25    96    98   am
    26    96    95    1
    27    45    46    1
    28    54    53    1
    29   109   110    2
    30   109   111   am
    31    58    57    1
    32    58    59    2
    33   124   123    2
    34    46    47    1
    35    57    56    1
    36   127   126    2
    37   111   112    1
    38   123   122    1
    39    95    92    1
    40    92    91    1
    41    47    48    1
    42    43    44    2
    43   126   128   am
    44   126   125    1
    45    56    53    1
    46    53    52    1
    47    12    11    1
    48   125   122    1
    49    91    86   am
    50    48    49    2
    51   122   121    1
    52   112   113    1
    53    90    88    1
    54   114   113    2
    55    10    11   ar
    56    10     8   ar
    57    11     9   ar
    58   113   115   am
    59    86    87    2
    60    86    85    1
    61    69    70    1
    62    49    51    1
    63    49    50    1
    64     8     6   ar
    65    88    85    1
    66    88    89    1
    67    85    84    1
    68     9     7   ar
    69    70    73    1
    70    70    71    1
    71   115   116    1
    72    36    35    1
    73    36    37    1
    74     6     7   ar
    75     6     5    1
    76    40    38    1
    77    35    34    1
    78    17    14    1
    79    77    76    2
    80   116   119    1
    81   116   117    1
    82    84    76   am
    83    71    72    2
    84   119   120    1
    85    37    38    2
    86    14    13    1
    87    14    15    1
    88     5     2    1
    89    38    39    1
    90     4     3    2
    91    76    75    1
    92    34    31    1
    93    13     3   am
    94     3     2    1
    95    33    32    2
    96    16    15    2
    97    31    32    1
    98    31    30    1
    99   117   118    2
   100    24    23    1
   101     2     1    1
   102    75    78    1
   103    75    74    1
   104    78    79    1
   105    21    20    2
   106    29    28    2
   107    23    25    1
   108    23    22    1
   109    20    26   am
   110    20    19    1
   111    79    80   ar
   112    79    81   ar
   113    28    27    1
   114    27    26    1
   115    18    19    1
   116    22    19    1
   117    80    82   ar
   118    81    83   ar
   119    82    83   ar
