@<TRIPOS>MOLECULE
tmp/5xdrA00.pdb
 161 151 0 0 0
SMALL
GASTEIGER

@<TRIPOS>ATOM
      1  N         22.9750  -28.3040   -1.7400 N.3    24  LEU24      -0.1245
      2  CA        22.0300  -27.7260   -0.7690 C.3    24  LEU24       0.1561
      3  C         21.1850  -26.5980   -1.3790 C.2    24  LEU24       0.2260
      4  O         21.7200  -25.7980   -2.1540 O.2    24  LEU24      -0.2867
      5  CB        22.7780  -27.2020    0.4780 C.3    24  LEU24       0.0270
      6  CG        23.3700  -28.2600    1.4160 C.3    24  LEU24       0.0019
      7  CD1       24.3850  -27.6560    2.3630 C.3    24  LEU24       0.0001
      8  CD2       22.2920  -28.9890    2.2180 C.3    24  LEU24       0.0001
      9  N         14.3500  -25.3980    7.5050 N.3    49  THR49      -0.1203
     10  CA        15.4730  -26.0600    8.1180 C.3    49  THR49       0.1994
     11  C         16.0380  -27.0520    7.1230 C.2    49  THR49       0.2618
     12  O         15.2980  -27.6000    6.3110 O.2    49  THR49      -0.2717
     13  CB        15.0340  -26.7400    9.4260 C.3    49  THR49       0.1784
     14  OG1       14.5760  -25.7180   10.3310 O.3    49  THR49      -0.2211
     15  CG2       16.1620  -27.5660   10.0740 C.3    49  THR49       0.0376
     16  N         17.3580  -27.2440    7.1650 N.am   50  GLY50      -0.1942
     17  CA        18.0600  -28.1430    6.2410 C.3    50  GLY50       0.2014
     18  C         18.3860  -27.5470    4.8750 C.2    50  GLY50       0.2640
     19  O         19.0910  -28.1750    4.0830 O.2    50  GLY50      -0.2714
     20  N         17.8970  -26.3360    4.6050 N.am   51  SER51      -0.1935
     21  CA        18.1170  -25.6820    3.3310 C.3    51  SER51       0.2055
     22  C         19.5910  -25.2510    3.1430 C.2    51  SER51       0.2644
     23  O         20.0270  -25.0520    2.0140 O.2    51  SER51      -0.2714
     24  CB        17.1400  -24.5040    3.1610 C.3    51  SER51       0.2130
     25  OG        17.4410  -23.4320    4.0360 O.3    51  SER51      -0.2179
     26  N         20.3460  -25.1320    4.2400 N.am   52  GLY52      -0.1939
     27  CA        21.7780  -24.7800    4.2040 C.3    52  GLY52       0.2014
     28  C         22.1420  -23.4010    4.7130 C.2    52  GLY52       0.2639
     29  O         23.2870  -22.9560    4.5150 O.2    52  GLY52      -0.2714
     30  N         21.2000  -22.7270    5.3890 N.am   53  LYS53      -0.1963
     31  CA        21.4180  -21.3440    5.8850 C.3    53  LYS53       0.1728
     32  C         22.6230  -21.1570    6.8190 C.2    53  LYS53       0.2617
     33  O         23.4110  -20.2620    6.6230 O.2    53  LYS53      -0.2715
     34  CB        20.1930  -20.8290    6.6470 C.3    53  LYS53       0.0311
     35  CG        18.9150  -20.6890    5.8480 C.3    53  LYS53       0.0038
     36  CD        17.8270  -19.9750    6.6470 C.3    53  LYS53       0.0206
     37  CE        17.4020  -20.7160    7.9120 C.3    53  LYS53       0.1093
     38  NZ        17.1380  -22.1640    7.7110 N.3    53  LYS53      -0.1314
     39  N         22.7380  -21.9730    7.8550 N.am   54  THR54      -0.1937
     40  CA        23.7470  -21.7490    8.8870 C.3    54  THR54       0.2028
     41  C         25.1550  -22.0820    8.4490 C.2    54  THR54       0.2642
     42  O         26.0750  -21.3740    8.8190 O.2    54  THR54      -0.2714
     43  CB        23.4490  -22.5410   10.1800 C.3    54  THR54       0.1808
     44  OG1       22.1520  -22.1850   10.6380 O.3    54  THR54      -0.2208
     45  CG2       24.4530  -22.1790   11.2930 C.3    54  THR54       0.0379
     46  N         25.3300  -23.1700    7.7140 N.am   55  THR55      -0.1950
     47  CA        26.6580  -23.5730    7.2490 C.3    55  THR55       0.1897
     48  C         27.1660  -22.7420    6.0690 C.2    55  THR55       0.2313
     49  O         28.3240  -22.3330    6.0650 O.2    55  THR55      -0.2863
     50  CB        26.6970  -25.0520    6.8690 C.3    55  THR55       0.1794
     51  OG1       25.6540  -25.3240    5.9370 O.3    55  THR55      -0.2208
     52  CG2       26.5010  -25.9060    8.1010 C.3    55  THR55       0.0378
     53  N         28.3650  -27.1130   17.3300 N.3    87  SER87      -0.1202
     54  CA        28.4300  -28.1710   16.3240 C.3    87  SER87       0.2020
     55  C         28.4960  -27.6480   14.8580 C.2    87  SER87       0.2618
     56  O         29.0650  -28.3260   14.0010 O.2    87  SER87      -0.2717
     57  CB        27.2480  -29.1150   16.4780 C.3    87  SER87       0.2103
     58  OG        26.0530  -28.3940   16.3090 O.3    87  SER87      -0.2182
     59  N         27.8850  -26.5020   14.5630 N.am   88  VAL88      -0.1979
     60  CA        28.0220  -25.9210   13.2180 C.3    88  VAL88       0.1595
     61  C         29.4150  -25.3410   13.0340 C.2    88  VAL88       0.2287
     62  O         29.9320  -25.3430   11.9210 O.2    88  VAL88      -0.2864
     63  CB        26.9980  -24.8310   12.8530 C.3    88  VAL88       0.0276
     64  CG1       25.5810  -25.3590   12.9620 C.3    88  VAL88       0.0022
     65  CG2       27.2320  -23.5390   13.6340 C.3    88  VAL88       0.0022
     66  N         31.5080  -28.1970   12.0740 N.3    91  ARG91      -0.1245
     67  CA        31.1210  -28.5380   10.7190 C.3    91  ARG91       0.1563
     68  C         31.6930  -27.5550    9.6980 C.2    91  ARG91       0.2260
     69  O         32.3100  -27.9730    8.7220 O.2    91  ARG91      -0.2867
     70  CB        29.5960  -28.5880   10.6160 C.3    91  ARG91       0.0307
     71  CG        29.0390  -28.7920    9.2100 C.3    91  ARG91       0.0489
     72  CD        29.6060  -30.0170    8.5140 C.3    91  ARG91       0.2205
     73  NE        28.8900  -30.2820    7.2700 N.pl3  91  ARG91      -0.0865
     74  CZ        29.0840  -31.3340    6.4710 C.cat  91  ARG91       0.5346
     75  NH1       30.0110  -32.2560    6.7390 N.pl3  91  ARG91       0.1354
     76  NH2       28.3380  -31.4570    5.3770 N.pl3  91  ARG91       0.1354
     77  N         34.1680  -27.8570    6.5250 N.3    95  GLU95      -0.1245
     78  CA        33.7680  -27.2850    5.2250 C.3    95  GLU95       0.1567
     79  C         34.7240  -26.2300    4.6680 C.2    95  GLU95       0.2260
     80  O         34.8800  -26.1280    3.4540 O.2    95  GLU95      -0.2867
     81  CB        32.3740  -26.6540    5.3090 C.3    95  GLU95       0.0388
     82  CG        31.2230  -27.6380    5.4840 C.3    95  GLU95       0.1160
     83  CD        29.8610  -26.9680    5.4410 C.2    95  GLU95       0.3649
     84  OE1       29.7370  -25.8920    4.8500 O.co2  95  GLU95      -0.2457
     85  OE2       28.9020  -27.5230    5.9950 O.co2  95  GLU95      -0.2457
     86  N         18.1030  -18.0250   13.2070 N.3   148  GLU148     -0.1245
     87  CA        16.9730  -18.5880   13.9380 C.3   148  GLU148      0.1567
     88  C         16.1670  -17.5040   14.6650 C.2   148  GLU148      0.2260
     89  O         15.7390  -17.6800   15.7880 O.2   148  GLU148     -0.2867
     90  CB        17.4640  -19.6700   14.8960 C.3   148  GLU148      0.0388
     91  CG        18.2240  -20.8200   14.2520 C.3   148  GLU148      0.1160
     92  CD        17.2940  -21.9050   13.7270 C.2   148  GLU148      0.3649
     93  OE1       16.8060  -22.6900   14.5590 O.co2 148  GLU148     -0.2457
     94  OE2       17.0280  -21.9710   12.4880 O.co2 148  GLU148     -0.2457
     95  N         28.3520  -34.6550   18.7380 N.3   285  GLN285     -0.1245
     96  CA        28.6190  -35.0500   17.3540 C.3   285  GLN285      0.1566
     97  C         28.2480  -36.5030   17.0310 C.2   285  GLN285      0.2260
     98  O         28.6190  -36.9880   15.9670 O.2   285  GLN285     -0.2867
     99  CB        30.1000  -34.7910   16.9990 C.3   285  GLN285      0.0367
    100  CG        30.5730  -33.3310   17.1460 C.3   285  GLN285      0.0905
    101  CD        29.8560  -32.3360   16.2240 C.2   285  GLN285      0.2608
    102  OE1       30.1270  -32.2590   15.0130 O.2   285  GLN285     -0.2717
    103  NE2       28.9430  -31.5560   16.8040 N.am  285  GLN285     -0.0878
    104  N         25.2130  -37.0460   14.3680 N.3   288  PHE288     -0.1241
    105  CA        25.7740  -37.2180   13.0180 C.3   288  PHE288      0.1605
    106  C         26.6350  -38.4870   13.0050 C.2   288  PHE288      0.2264
    107  O         27.8520  -38.4530   13.2160 O.2   288  PHE288     -0.2867
    108  CB        26.6050  -35.9880   12.6030 C.3   288  PHE288      0.0534
    109  CG        25.9910  -34.6720   13.0030 C.ar  288  PHE288     -0.0203
    110  CD1       24.7660  -34.2710   12.4740 C.ar  288  PHE288     -0.0042
    111  CD2       26.6230  -33.8430   13.9200 C.ar  288  PHE288     -0.0042
    112  CE1       24.1900  -33.0660   12.8420 C.ar  288  PHE288     -0.0003
    113  CE2       26.0460  -32.6390   14.2960 C.ar  288  PHE288     -0.0003
    114  CZ        24.8310  -32.2490   13.7520 C.ar  288  PHE288     -0.0000
    115  N         14.1720  -26.6690   14.8840 N.3   313  THR313     -0.1203
    116  CA        14.7180  -25.9260   13.7400 C.3   313  THR313      0.1994
    117  C         16.2590  -25.7470   13.7020 C.2   313  THR313      0.2619
    118  O         16.8310  -25.6000   12.6210 O.2   313  THR313     -0.2717
    119  CB        14.0540  -24.5170   13.6190 C.3   313  THR313      0.1784
    120  OG1       14.5200  -23.6380   14.6470 O.3   313  THR313     -0.2211
    121  CG2       12.5290  -24.6240   13.7050 C.3   313  THR313      0.0376
    122  N         16.9350  -25.7480   14.8480 N.am  314  SER314     -0.1937
    123  CA        18.3570  -25.3300   14.9110 C.3   314  SER314      0.2055
    124  C         19.3640  -26.2290   14.1910 C.2   314  SER314      0.2643
    125  O         20.4990  -25.8020   13.9310 O.2   314  SER314     -0.2714
    126  CB        18.8040  -25.1790   16.3550 C.3   314  SER314      0.2130
    127  OG        19.3720  -26.3820   16.8330 O.3   314  SER314     -0.2179
    128  N         18.9740  -27.4720   13.9120 N.am  315  LEU315     -0.1963
    129  CA        19.8070  -28.3720   13.1090 C.3   315  LEU315      0.1728
    130  C         18.9910  -29.4840   12.4280 C.2   315  LEU315      0.2616
    131  O         17.7760  -29.6000   12.6360 O.2   315  LEU315     -0.2715
    132  CB        20.9710  -28.9290   13.9500 C.3   315  LEU315      0.0311
    133  CG        20.7350  -29.6310   15.2940 C.3   315  LEU315      0.0022
    134  CD1       20.3120  -31.0880   15.1090 C.3   315  LEU315      0.0001
    135  CD2       22.0040  -29.5710   16.1350 C.3   315  LEU315      0.0001
    136  N         19.6770  -30.2600   11.5870 N.am  316  THR316     -0.1951
    137  CA        19.0880  -31.3500   10.8180 C.3   316  THR316      0.1897
    138  C         19.8880  -32.5950   11.1100 C.2   316  THR316      0.2313
    139  O         21.1100  -32.5450   11.2340 O.2   316  THR316     -0.2863
    140  CB        19.1420  -31.0740    9.2940 C.3   316  THR316      0.1794
    141  OG1       18.2870  -29.9750    8.9800 O.3   316  THR316     -0.2208
    142  CG2       18.6670  -32.2990    8.4700 C.3   316  THR316      0.0378
    143  N         20.2520  -36.1130    9.1240 N.3   318  ASP318     -0.1239
    144  CA        19.9500  -36.7820    7.8520 C.3   318  ASP318      0.1674
    145  C         19.6500  -38.2460    8.0990 C.2   318  ASP318      0.2266
    146  O         20.4560  -38.9390    8.7200 O.2   318  ASP318     -0.2867
    147  CB        21.1290  -36.6980    6.8910 C.3   318  ASP318      0.1410
    148  CG        21.5020  -35.2830    6.5540 C.2   318  ASP318      0.3668
    149  OD1       20.6020  -34.4730    6.2290 O.co2 318  ASP318     -0.2456
    150  OD2       22.7090  -34.9880    6.6090 O.co2 318  ASP318     -0.2456
    151  N         12.5700  -34.5680    5.3400 N.3   362  ARG362     -0.1245
    152  CA        13.8520  -34.0350    4.8480 C.3   362  ARG362      0.1563
    153  C         14.7280  -35.1140    4.1720 C.2   362  ARG362      0.2260
    154  O         15.9280  -34.9420    4.0000 O.2   362  ARG362     -0.2867
    155  CB        14.5570  -33.3400    6.0330 C.3   362  ARG362      0.0307
    156  CG        15.9050  -32.6550    5.8030 C.3   362  ARG362      0.0489
    157  CD        16.0530  -31.9190    4.4760 C.3   362  ARG362      0.2205
    158  NE        17.3590  -31.2490    4.3360 N.pl3 362  ARG362     -0.0865
    159  CZ        18.5530  -31.8550    4.2120 C.cat 362  ARG362      0.5346
    160  NH1       18.6810  -33.1870    4.2270 N.pl3 362  ARG362      0.1354
    161  NH2       19.6500  -31.1100    4.0830 N.pl3 362  ARG362      0.1354
@<TRIPOS>BOND
     1     4     3    2
     2     1     2    1
     3     3     2    1
     4     2     5    1
     5     5     6    1
     6     6     8    1
     7     6     7    1
     8    23    22    2
     9    22    21    1
    10    22    26   am
    11    24    21    1
    12    24    25    1
    13    21    20    1
    14    80    79    2
    15   154   153    2
    16    19    18    2
    17   161   159    1
    18   153   152    1
    19    27    26    1
    20    27    28    1
    21   159   160    1
    22   159   158    2
    23   158   157    1
    24   157   156    1
    25    29    28    2
    26    20    18   am
    27    79    78    1
    28    28    30   am
    29   152   151    1
    30   152   155    1
    31    84    83   ar
    32    18    17    1
    33    78    81    1
    34    78    77    1
    35    81    82    1
    36    76    74    1
    37    30    31    1
    38    83    82    1
    39    83    85   ar
    40   156   155    1
    41    35    36    1
    42    35    34    1
    43    31    34    1
    44    31    32    1
    45    51    50    1
    46    49    48    2
    47    48    47    1
    48   149   148   ar
    49    17    16    1
    50    12    11    2
    51    74    75    1
    52    74    73    2
    53   148   150   ar
    54   148   147    1
    55    33    32    2
    56    36    37    1
    57    32    39   am
    58    50    47    1
    59    50    52    1
    60   147   144    1
    61    11    16   am
    62    11    10    1
    63    47    46    1
    64    73    72    1
    65     9    10    1
    66    38    37    1
    67    46    41   am
    68   144   145    1
    69   144   143    1
    70    39    40    1
    71   145   146    2
    72    10    13    1
    73    41    42    2
    74    41    40    1
    75   142   140    1
    76    72    71    1
    77    69    68    2
    78    40    43    1
    79   141   140    1
    80    71    70    1
    81   140   137    1
    82    13    15    1
    83    13    14    1
    84    68    67    1
    85    43    44    1
    86    43    45    1
    87    70    67    1
    88    67    66    1
    89   137   138    1
    90   137   136    1
    91   138   139    2
    92   136   130   am
    93    62    61    2
    94   130   131    2
    95   130   129    1
    96   110   112   ar
    97   110   109   ar
    98    94    92   ar
    99   108   109    1
   100   108   105    1
   101   118   117    2
   102   112   114   ar
   103    63    64    1
   104    63    60    1
   105    63    65    1
   106   109   111   ar
   107   106   105    1
   108   106   107    2
   109   105   104    1
   110    61    60    1
   111   129   128    1
   112   129   132    1
   113    86    87    1
   114    60    59    1
   115   119   121    1
   116   119   116    1
   117   119   120    1
   118   117   116    1
   119   117   122   am
   120    92    91    1
   121    92    93   ar
   122   116   115    1
   123   114   113   ar
   124   128   124   am
   125   111   113   ar
   126   125   124    2
   127    87    88    1
   128    87    90    1
   129   132   133    1
   130    56    55    2
   131   124   123    1
   132    91    90    1
   133    59    55   am
   134    88    89    2
   135   122   123    1
   136    55    54    1
   137   123   126    1
   138   102   101    2
   139   134   133    1
   140   133   135    1
   141    98    97    2
   142   101   103   am
   143   101   100    1
   144    58    57    1
   145    54    57    1
   146    54    53    1
   147   126   127    1
   148    99   100    1
   149    99    96    1
   150    97    96    1
   151    96    95    1
