@<TRIPOS>MOLECULE
tmp/5xdtA01.pdb
 175 157 0 0 0
SMALL
GASTEIGER

@<TRIPOS>ATOM
      1  N        -10.0710  -17.1920   33.0350 N.3    89  MET89      -0.1245
      2  CA       -10.1090  -18.1980   31.9790 C.3    89  MET89       0.1570
      3  C         -8.7020  -18.7280   31.8210 C.2    89  MET89       0.2261
      4  O         -7.7400  -17.9420   31.8220 O.2    89  MET89      -0.2867
      5  CB       -10.5710  -17.6030   30.6580 C.3    89  MET89       0.0387
      6  CG       -10.7810  -18.6320   29.5540 C.3    89  MET89       0.0595
      7  SD       -11.5760  -17.8790   28.1210 S.3    89  MET89      -0.1393
      8  CE       -11.9550  -19.3420   27.1930 C.3    89  MET89       0.0692
      9  N         -6.4740  -21.4630   29.4150 N.3    91  PHE91      -0.1241
     10  CA        -6.2690  -22.4040   28.3300 C.3    91  PHE91       0.1605
     11  C         -5.1370  -23.3210   28.7300 C.2    91  PHE91       0.2264
     12  O         -4.0580  -22.8200   29.0430 O.2    91  PHE91      -0.2867
     13  CB        -5.8990  -21.7100   27.0160 C.3    91  PHE91       0.0534
     14  CG        -6.9590  -20.8280   26.4740 C.ar   91  PHE91      -0.0203
     15  CD1       -7.1270  -19.5440   26.9700 C.ar   91  PHE91      -0.0042
     16  CD2       -7.7750  -21.2750   25.4820 C.ar   91  PHE91      -0.0042
     17  CE1       -8.0910  -18.7000   26.4600 C.ar   91  PHE91      -0.0003
     18  CE2       -8.7360  -20.4560   24.9680 C.ar   91  PHE91      -0.0003
     19  CZ        -8.9200  -19.1610   25.4590 C.ar   91  PHE91      -0.0000
     20  N        -10.3470  -24.3560   29.4550 N.3   120  VAL120     -0.1245
     21  CA       -10.4240  -24.8740   28.1020 C.3   120  VAL120      0.1561
     22  C         -9.1330  -25.5930   27.7740 C.2   120  VAL120      0.2260
     23  O         -8.0520  -25.0120   27.8720 O.2   120  VAL120     -0.2867
     24  CB       -10.7010  -23.7480   27.0950 C.3   120  VAL120      0.0252
     25  CG1      -10.7830  -24.3040   25.6790 C.3   120  VAL120      0.0019
     26  CG2      -12.0050  -23.0530   27.4400 C.3   120  VAL120      0.0019
     27  N        -10.7730  -28.9570   23.0920 N.3   153  ILE153     -0.1245
     28  CA       -10.5330  -28.9430   21.6600 C.3   153  ILE153      0.1561
     29  C         -9.4050  -29.9120   21.3690 C.2   153  ILE153      0.2260
     30  O         -8.3220  -29.7810   21.9610 O.2   153  ILE153     -0.2867
     31  CB       -10.1370  -27.5140   21.1980 C.3   153  ILE153      0.0252
     32  CG1      -11.2590  -26.5120   21.4910 C.3   153  ILE153      0.0019
     33  CG2       -9.8100  -27.4970   19.7040 C.3   153  ILE153      0.0019
     34  CD1      -10.8780  -25.0670   21.2580 C.3   153  ILE153      0.0001
     35  N         -8.1270  -18.7630   19.1030 N.3   184  GLY184     -0.1225
     36  CA        -9.0420  -18.8330   20.2550 C.3   184  GLY184      0.1811
     37  C         -8.7500  -17.7940   21.3000 C.2   184  GLY184      0.2280
     38  O         -9.6500  -17.0640   21.7450 O.2   184  GLY184     -0.2866
     39  N         -9.3700  -14.3160   19.9460 N.3   187  GLY187     -0.1210
     40  CA       -10.8060  -14.0980   19.8830 C.3   187  GLY187      0.1956
     41  C        -11.3980  -13.6600   21.2050 C.2   187  GLY187      0.2611
     42  O        -12.2100  -12.7270   21.2610 O.2   187  GLY187     -0.2717
     43  N        -11.0040  -14.3390   22.2710 N.am  188  ILE188     -0.1979
     44  CA       -11.4410  -13.9110   23.6280 C.3   188  ILE188      0.1595
     45  C        -10.9420  -12.5170   23.9770 C.2   188  ILE188      0.2287
     46  O        -11.6760  -11.6740   24.5180 O.2   188  ILE188     -0.2864
     47  CB       -10.9730  -14.8930   24.7310 C.3   188  ILE188      0.0276
     48  CG1      -11.6490  -16.2510   24.5610 C.3   188  ILE188      0.0022
     49  CG2      -11.2680  -14.3540   26.1290 C.3   188  ILE188      0.0022
     50  CD1      -13.1310  -16.2770   24.8960 C.3   188  ILE188      0.0001
     51  N        -10.3240  -10.1360   21.9810 N.3   190  ASP190     -0.1225
     52  CA       -11.1230   -9.1870   21.2140 C.3   190  ASP190      0.1805
     53  C        -12.5110   -8.9830   21.8250 C.2   190  ASP190      0.2597
     54  O        -13.0200   -7.8560   21.9340 O.2   190  ASP190     -0.2718
     55  CB       -11.2960   -9.6630   19.7720 C.3   190  ASP190      0.1424
     56  CG       -10.0110   -9.6860   18.9460 C.2   190  ASP190      0.3668
     57  OD1       -8.9900   -9.1010   19.3450 O.co2 190  ASP190     -0.2456
     58  OD2      -10.0610  -10.2680   17.8280 O.co2 190  ASP190     -0.2456
     59  N        -13.1430  -10.0820   22.2100 N.am  191  LEU191     -0.1979
     60  CA       -14.4690  -10.0110   22.8490 C.3   191  LEU191      0.1596
     61  C        -14.4580   -9.1600   24.1180 C.2   191  LEU191      0.2287
     62  O        -15.3880   -8.3780   24.3720 O.2   191  LEU191     -0.2864
     63  CB       -14.9350  -11.4400   23.1600 C.3   191  LEU191      0.0297
     64  CG       -16.2640  -11.5610   23.9100 C.3   191  LEU191      0.0022
     65  CD1      -17.1880  -12.5310   23.2090 C.3   191  LEU191      0.0001
     66  CD2      -16.0160  -12.0280   25.3240 C.3   191  LEU191      0.0001
     67  N        -13.5670   -5.1310   22.9170 N.3   194  VAL194     -0.1245
     68  CA       -14.3590   -4.4120   21.9210 C.3   194  VAL194      0.1561
     69  C        -15.8310   -4.4300   22.3180 C.2   194  VAL194      0.2260
     70  O        -16.3600   -5.4590   22.7630 O.2   194  VAL194     -0.2867
     71  CB       -14.1600   -5.0470   20.5130 C.3   194  VAL194      0.0252
     72  CG1      -15.0440   -4.4120   19.4590 C.3   194  VAL194      0.0019
     73  CG2      -12.7010   -4.9680   20.0750 C.3   194  VAL194      0.0019
     74  N        -19.4270   -4.5410   21.0110 N.3   196  GLY196     -0.1225
     75  CA       -20.1680   -4.8970   19.8270 C.3   196  GLY196      0.1811
     76  C        -21.4540   -4.1060   19.7110 C.2   196  GLY196      0.2280
     77  O        -22.0460   -3.6800   20.7030 O.2   196  GLY196     -0.2866
     78  N        -24.1540   -5.6310   18.6890 N.3   198  VAL198     -0.1231
     79  CA       -24.8320   -6.6180   19.5040 C.3   198  VAL198      0.1692
     80  C        -23.7020   -7.2380   20.2990 C.2   198  VAL198      0.2592
     81  O        -22.8910   -8.0310   19.7800 O.2   198  VAL198     -0.2718
     82  CB       -25.6040   -7.6630   18.6870 C.3   198  VAL198      0.0266
     83  CG1      -26.2900   -8.6420   19.6150 C.3   198  VAL198      0.0020
     84  CG2      -26.6490   -6.9850   17.8030 C.3   198  VAL198      0.0020
     85  N        -23.5710   -6.7940   21.5500 N.am  199  ASN199     -0.1960
     86  CA       -22.3690   -7.0610   22.3270 C.3   199  ASN199      0.1819
     87  C        -22.4630   -8.4200   22.9880 C.2   199  ASN199      0.2621
     88  O        -23.4680   -8.7770   23.5810 O.2   199  ASN199     -0.2715
     89  CB       -22.2160   -5.9780   23.3960 C.3   199  ASN199      0.1195
     90  CG       -20.8800   -6.0630   24.0840 C.2   199  ASN199      0.2630
     91  OD1      -19.8410   -5.9000   23.4470 O.2   199  ASN199     -0.2716
     92  ND2      -20.8950   -6.3340   25.3530 N.am  199  ASN199     -0.0877
     93  N        -21.3590   -9.1540   22.9310 N.am  200  LEU200     -0.1977
     94  CA       -21.1230  -10.4030   23.6740 C.3   200  LEU200      0.1596
     95  C        -20.0350  -10.1580   24.6960 C.2   200  LEU200      0.2287
     96  O        -19.1470   -9.3240   24.4940 O.2   200  LEU200     -0.2864
     97  CB       -20.7140  -11.5420   22.7410 C.3   200  LEU200      0.0297
     98  CG       -21.7160  -11.8280   21.6200 C.3   200  LEU200      0.0022
     99  CD1      -21.2420  -13.0450   20.8300 C.3   200  LEU200      0.0001
    100  CD2      -23.1460  -12.0120   22.1060 C.3   200  LEU200      0.0001
    101  N        -19.5040  -16.2970   26.8760 N.3   205  VAL205     -0.1245
    102  CA       -18.5130  -17.3390   26.6830 C.3   205  VAL205      0.1561
    103  C        -18.7140  -18.4410   27.7190 C.2   205  VAL205      0.2260
    104  O        -18.6970  -19.6290   27.3720 O.2   205  VAL205     -0.2867
    105  CB       -17.0900  -16.7720   26.7440 C.3   205  VAL205      0.0252
    106  CG1      -16.0470  -17.8590   26.5540 C.3   205  VAL205      0.0019
    107  CG2      -16.8880  -15.6840   25.6820 C.3   205  VAL205      0.0019
    108  N        -19.3830  -22.3800   27.0520 N.3   209  MET209     -0.1245
    109  CA       -18.2090  -23.2430   27.2610 C.3   209  MET209      0.1570
    110  C        -18.1160  -23.9280   28.6200 C.2   209  MET209      0.2261
    111  O        -17.3690  -24.9060   28.7420 O.2   209  MET209     -0.2867
    112  CB       -16.9410  -22.4480   26.9760 C.3   209  MET209      0.0387
    113  CG       -16.8950  -21.9100   25.5580 C.3   209  MET209      0.0595
    114  SD       -15.2730  -21.2910   25.1020 S.3   209  MET209     -0.1393
    115  CE       -14.5320  -22.8140   24.5210 C.3   209  MET209      0.0692
    116  N        -13.9970  -24.7210   17.4810 N.3   217  MET217     -0.1245
    117  CA       -13.8390  -23.2780   17.3370 C.3   217  MET217      0.1570
    118  C        -13.2170  -23.0050   15.9780 C.2   217  MET217      0.2261
    119  O        -12.3810  -23.7850   15.4630 O.2   217  MET217     -0.2867
    120  CB       -12.9000  -22.6850   18.3540 C.3   217  MET217      0.0387
    121  CG       -12.9580  -21.1750   18.3470 C.3   217  MET217      0.0595
    122  SD       -11.4540  -20.2460   18.2210 S.3   217  MET217     -0.1393
    123  CE       -11.9700  -18.7170   17.4620 C.3   217  MET217      0.0692
    124  N        -21.7040  -19.9170   20.0560 N.3   252  LEU252     -0.1245
    125  CA       -21.4410  -18.4930   20.1350 C.3   252  LEU252      0.1561
    126  C        -21.0040  -18.1170   18.7260 C.2   252  LEU252      0.2260
    127  O        -20.0660  -18.7320   18.1950 O.2   252  LEU252     -0.2867
    128  CB       -20.3810  -18.1680   21.1770 C.3   252  LEU252      0.0270
    129  CG       -20.1240  -16.6830   21.4410 C.3   252  LEU252      0.0019
    130  CD1      -19.3360  -16.4720   22.7140 C.3   252  LEU252      0.0001
    131  CD2      -19.3530  -16.0510   20.2970 C.3   252  LEU252      0.0001
    132  N        -20.1030  -14.7100   16.1880 N.3   254  ASN254     -0.1240
    133  CA       -19.9390  -13.2960   15.9860 C.3   254  ASN254      0.1653
    134  C        -19.6130  -13.0090   14.5280 C.2   254  ASN254      0.2266
    135  O        -18.8780  -13.7760   13.8680 O.2   254  ASN254     -0.2867
    136  CB       -18.8470  -12.7560   16.8690 C.3   254  ASN254      0.1155
    137  CG       -18.6950  -11.2770   16.7100 C.2   254  ASN254      0.2627
    138  OD1      -19.5580  -10.5010   17.1740 O.2   254  ASN254     -0.2716
    139  ND2      -17.6320  -10.8630   15.9960 N.am  254  ASN254     -0.0877
    140  N        -17.9390   -9.7250   12.4860 N.3   256  THR256     -0.1218
    141  CA       -17.3280   -8.4160   12.4880 C.3   256  THR256      0.1862
    142  C        -17.2390   -7.9460   11.0430 C.2   256  THR256      0.2287
    143  O        -16.7500   -8.6680   10.1700 O.2   256  THR256     -0.2866
    144  CB       -15.9030   -8.4600   13.0960 C.3   256  THR256      0.1770
    145  OG1      -15.9960   -8.8580   14.4610 O.3   256  THR256     -0.2211
    146  CG2      -15.2140   -7.0920   13.0270 C.3   256  THR256      0.0375
    147  N        -22.5090   -9.0470   16.9040 N.3   287  THR287     -0.1203
    148  CA       -22.0460   -8.2970   15.7490 C.3   287  THR287      0.1994
    149  C        -21.1920   -7.1300   16.1870 C.2   287  THR287      0.2617
    150  O        -21.5580   -6.4240   17.1360 O.2   287  THR287     -0.2717
    151  CB       -23.2270   -7.7900   14.8850 C.3   287  THR287      0.1784
    152  OG1      -23.9050   -8.9150   14.3110 O.3   287  THR287     -0.2211
    153  CG2      -22.7750   -6.9120   13.7480 C.3   287  THR287      0.0376
    154  N        -20.1010   -6.9120   15.4580 N.am  288  VAL288     -0.1979
    155  CA       -19.2190   -5.7660   15.6330 C.3   288  VAL288      0.1595
    156  C        -19.1960   -5.0110   14.3090 C.2   288  VAL288      0.2287
    157  O        -18.9900   -5.6190   13.2740 O.2   288  VAL288     -0.2864
    158  CB       -17.7760   -6.2150   15.9630 C.3   288  VAL288      0.0276
    159  CG1      -16.8510   -5.0040   16.0480 C.3   288  VAL288      0.0022
    160  CG2      -17.7400   -7.0150   17.2640 C.3   288  VAL288      0.0022
    161  N        -16.7700  -15.7330   13.4690 N.3   300  THR300     -0.1218
    162  CA       -16.1920  -16.5910   14.5050 C.3   300  THR300      0.1862
    163  C        -17.2970  -17.4950   15.0070 C.2   300  THR300      0.2287
    164  O        -18.4030  -16.9940   15.2710 O.2   300  THR300     -0.2866
    165  CB       -15.6560  -15.7540   15.6860 C.3   300  THR300      0.1770
    166  OG1      -14.6040  -14.9100   15.2360 O.3   300  THR300     -0.2211
    167  CG2      -15.0990  -16.6320   16.7950 C.3   300  THR300      0.0375
    168  N        -17.9430  -20.6400   17.9120 N.3   302  ILE302     -0.1245
    169  CA       -17.6470  -21.6330   18.9610 C.3   302  ILE302      0.1561
    170  C        -18.8430  -22.5420   19.1420 C.2   302  ILE302      0.2260
    171  O        -19.9390  -22.0310   19.3130 O.2   302  ILE302     -0.2867
    172  CB       -17.4430  -20.9690   20.3230 C.3   302  ILE302      0.0252
    173  CG1      -16.7080  -19.6460   20.2160 C.3   302  ILE302      0.0019
    174  CG2      -16.8330  -21.9430   21.3170 C.3   302  ILE302      0.0019
    175  CD1      -15.3810  -19.7360   19.5600 C.3   302  ILE302      0.0001
@<TRIPOS>BOND
     1   143   142    2
     2   142   141    1
     3   140   141    1
     4   141   144    1
     5   146   144    1
     6   144   145    1
     7   157   156    2
     8   161   162    1
     9   153   151    1
    10   135   134    2
    11   156   155    1
    12   152   151    1
    13   162   163    1
    14   162   165    1
    15   134   133    1
    16   151   148    1
    17   163   164    2
    18   166   165    1
    19   154   155    1
    20   154   149   am
    21   119   118    2
    22   155   158    1
    23   165   167    1
    24   148   149    1
    25   148   147    1
    26   158   159    1
    27   158   160    1
    28   118   117    1
    29   133   132    1
    30   133   136    1
    31   139   137   am
    32   149   150    2
    33   137   136    1
    34   137   138    2
    35   117   116    1
    36   117   120    1
    37   123   122    1
    38    84    82    1
    39    58    56   ar
    40   168   169    1
    41   127   126    2
    42   122   121    1
    43   121   120    1
    44    82    79    1
    45    82    83    1
    46    78    79    1
    47   126   125    1
    48    56    57   ar
    49    56    55    1
    50   169   170    1
    51   169   172    1
    52    35    36    1
    53   170   171    2
    54    72    71    1
    55    79    80    1
    56   175   173    1
    57    33    31    1
    58    76    75    1
    59    76    77    2
    60    55    52    1
    61    81    80    2
    62    75    74    1
    63    40    39    1
    64    40    41    1
    65   124   125    1
    66    73    71    1
    67   125   128    1
    68   173   172    1
    69    36    37    1
    70   131   129    1
    71    80    85   am
    72   172   174    1
    73    71    68    1
    74    99    98    1
    75   128   129    1
    76    31    32    1
    77    31    28    1
    78    41    42    2
    79    41    43   am
    80    52    53    1
    81    52    51    1
    82    34    32    1
    83    37    38    2
    84    29    28    1
    85    29    30    2
    86   129   130    1
    87    85    86    1
    88    98   100    1
    89    98    97    1
    90    28    27    1
    91    53    54    2
    92    53    59   am
    93    68    69    1
    94    68    67    1
    95    59    60    1
    96    43    44    1
    97    69    70    2
    98    86    87    1
    99    86    89    1
   100    97    94    1
   101    60    63    1
   102    60    61    1
   103    93    87   am
   104    93    94    1
   105    87    88    2
   106    63    64    1
   107    65    64    1
   108    89    90    1
   109    91    90    2
   110    44    45    1
   111    44    47    1
   112    94    95    1
   113    64    66    1
   114    45    46    2
   115    90    92   am
   116    61    62    2
   117    96    95    2
   118   115   114    1
   119    48    47    1
   120    48    50    1
   121    47    49    1
   122    18    19   ar
   123    18    16   ar
   124   114   113    1
   125    19    17   ar
   126    16    14   ar
   127   113   112    1
   128    25    24    1
   129   107   105    1
   130    17    15   ar
   131    14    15   ar
   132    14    13    1
   133   106   105    1
   134   102   105    1
   135   102   101    1
   136   102   103    1
   137   112   109    1
   138    13    10    1
   139   108   109    1
   140    24    26    1
   141    24    21    1
   142     8     7    1
   143   109   110    1
   144   104   103    2
   145    22    23    2
   146    22    21    1
   147    21    20    1
   148     7     6    1
   149    10    11    1
   150    10     9    1
   151   110   111    2
   152    11    12    2
   153     6     5    1
   154     5     2    1
   155     3     4    2
   156     3     2    1
   157     2     1    1
