@<TRIPOS>MOLECULE
tmp/5xdtA02.pdb
 111 101 0 0 0
SMALL
GASTEIGER

@<TRIPOS>ATOM
      1  N          5.2720  -30.2930   23.7760 N.3    13  GLY13      -0.1210
      2  CA         4.4520  -29.7260   22.6990 C.3    13  GLY13       0.1956
      3  C          3.6300  -28.5440   23.1660 C.2    13  GLY13       0.2612
      4  O          3.5290  -27.5390   22.4640 O.2    13  GLY13      -0.2717
      5  N          3.0830  -28.6240   24.3760 N.am   14  GLY14      -0.1956
      6  CA         2.3550  -27.4740   24.8980 C.3    14  GLY14       0.1869
      7  C          3.2250  -26.2500   25.0230 C.2    14  GLY14       0.2309
      8  O          2.8120  -25.1280   24.6830 O.2    14  GLY14      -0.2863
      9  N          5.9660  -25.7130   23.3500 N.3    16  ASN16      -0.1225
     10  CA         6.2980  -25.2730   21.9930 C.3    16  ASN16       0.1785
     11  C          5.2470  -24.3020   21.4800 C.2    16  ASN16       0.2597
     12  O          5.5730  -23.2600   20.9040 O.2    16  ASN16      -0.2718
     13  CB         6.3880  -26.4570   21.0090 C.3    16  ASN16       0.1169
     14  CG         7.6060  -27.3300   21.1940 C.2    16  ASN16       0.2627
     15  OD1        8.6190  -26.9390   21.7860 O.2    16  ASN16      -0.2716
     16  ND2        7.5350  -28.5130   20.6170 N.am   16  ASN16      -0.0877
     17  N          3.9810  -24.6510   21.6710 N.am   17  ALA17      -0.1979
     18  CA         2.9100  -23.7840   21.2460 C.3    17  ALA17       0.1597
     19  C          2.9610  -22.4380   21.9910 C.2    17  ALA17       0.2287
     20  O          2.8000  -21.3660   21.3860 O.2    17  ALA17      -0.2864
     21  CB         1.5740  -24.4630   21.4440 C.3    17  ALA17       0.0319
     22  N          5.8520  -20.2650   20.6560 N.3    20  ARG20      -0.1245
     23  CA         5.5740  -19.6970   19.3440 C.3    20  ARG20       0.1563
     24  C          4.5020  -18.5990   19.4500 C.2    20  ARG20       0.2260
     25  O          4.5680  -17.6260   18.7040 O.2    20  ARG20      -0.2867
     26  CB         5.2480  -20.8040   18.3270 C.3    20  ARG20       0.0307
     27  CG         6.4740  -21.6500   18.0130 C.3    20  ARG20       0.0489
     28  CD         6.2680  -22.6500   16.9000 C.3    20  ARG20       0.2205
     29  NE         5.3130  -23.7120   17.2190 N.pl3  20  ARG20      -0.0865
     30  CZ         5.6230  -24.9720   17.5480 C.cat  20  ARG20       0.5346
     31  NH1        6.8880  -25.3950   17.6560 N.pl3  20  ARG20       0.1354
     32  NH2        4.6480  -25.8460   17.7910 N.pl3  20  ARG20       0.1354
     33  N         -2.7830  -26.1520   27.2770 N.3    93  THR93      -0.1203
     34  CA        -2.3870  -26.6820   25.9980 C.3    93  THR93       0.1994
     35  C         -1.2630  -27.6900   26.1590 C.2    93  THR93       0.2619
     36  O         -0.3270  -27.4610   26.9180 O.2    93  THR93      -0.2717
     37  CB        -2.0890  -25.5840   24.9740 C.3    93  THR93       0.1784
     38  OG1       -1.9930  -26.1420   23.6780 O.3    93  THR93      -0.2211
     39  CG2       -0.8890  -24.7730   25.2770 C.3    93  THR93       0.0376
     40  N         -1.3810  -28.8160   25.4750 N.am   94  SER94      -0.1937
     41  CA        -0.5220  -29.9570   25.7080 C.3    94  SER94       0.2055
     42  C         -0.6300  -30.9420   24.5580 C.2    94  SER94       0.2643
     43  O         -1.6960  -31.0640   23.9560 O.2    94  SER94      -0.2714
     44  CB        -0.9640  -30.5990   27.0300 C.3    94  SER94       0.2130
     45  OG        -0.0740  -31.5460   27.4830 O.3    94  SER94      -0.2179
     46  N          0.4740  -31.6360   24.2760 N.am   95  GLY95      -0.1954
     47  CA         0.4350  -32.7590   23.3490 C.3    95  GLY95       0.1869
     48  C          0.1570  -34.0490   24.0690 C.2    95  GLY95       0.2309
     49  O          0.9260  -34.4460   24.9330 O.2    95  GLY95      -0.2863
     50  N         -6.7020  -27.4080   24.9810 N.3   122  VAL122     -0.1245
     51  CA        -6.4250  -27.4800   23.5330 C.3   122  VAL122      0.1561
     52  C         -5.2650  -28.4340   23.3940 C.2   122  VAL122      0.2260
     53  O         -4.1330  -28.0970   23.7710 O.2   122  VAL122     -0.2867
     54  CB        -6.0900  -26.1040   22.9390 C.3   122  VAL122      0.0252
     55  CG1       -5.8820  -26.2180   21.4260 C.3   122  VAL122      0.0019
     56  CG2       -7.2160  -25.0940   23.2490 C.3   122  VAL122      0.0019
     57  N         -3.2780  -31.9510   21.3060 N.3   124  THR124     -0.1218
     58  CA        -3.0810  -32.7940   20.1330 C.3   124  THR124      0.1862
     59  C         -3.1560  -34.2660   20.4730 C.2   124  THR124      0.2287
     60  O         -2.8910  -34.6620   21.6070 O.2   124  THR124     -0.2866
     61  CB        -1.7480  -32.5050   19.4250 C.3   124  THR124      0.1770
     62  OG1       -0.6620  -32.7040   20.3430 O.3   124  THR124     -0.2211
     63  CG2       -1.6880  -31.1050   18.8770 C.3   124  THR124      0.0375
     64  N         -6.9540  -31.6520   18.4920 N.3   155  ILE155     -0.1245
     65  CA        -6.3530  -31.5420   17.1670 C.3   155  ILE155      0.1561
     66  C         -5.5870  -32.8550   16.9190 C.2   155  ILE155      0.2260
     67  O         -4.4820  -33.0510   17.4620 O.2   155  ILE155     -0.2867
     68  CB        -5.3570  -30.3610   17.1230 C.3   155  ILE155      0.0252
     69  CG1       -6.0380  -29.0430   17.4580 C.3   155  ILE155      0.0019
     70  CG2       -4.6430  -30.2820   15.7780 C.3   155  ILE155      0.0019
     71  CD1       -5.0780  -27.9540   17.8790 C.3   155  ILE155      0.0001
     72  N         -2.9470  -34.7880   15.2490 N.3   157  ASN157     -0.1240
     73  CA        -1.8250  -34.3800   14.4170 C.3   157  ASN157      0.1653
     74  C         -1.8850  -34.9720   13.0160 C.2   157  ASN157      0.2266
     75  O         -1.3960  -34.3570   12.0630 O.2   157  ASN157     -0.2867
     76  CB        -0.4800  -34.7320   15.0730 C.3   157  ASN157      0.1155
     77  CG         0.0330  -33.6400   16.0120 C.2   157  ASN157      0.2627
     78  OD1       -0.2590  -32.4630   15.8190 O.2   157  ASN157     -0.2716
     79  ND2        0.8390  -34.0090   16.9820 N.am  157  ASN157     -0.0877
     80  N          3.3980  -27.3500   12.0390 N.3   174  PHE174     -0.1241
     81  CA         3.1490  -27.0820   13.4440 C.3   174  PHE174      0.1605
     82  C          2.5270  -25.7110   13.6880 C.2   174  PHE174      0.2264
     83  O          1.6760  -25.5570   14.5740 O.2   174  PHE174     -0.2867
     84  CB         4.4260  -27.2220   14.2690 C.3   174  PHE174      0.0534
     85  CG         4.8740  -28.6510   14.5210 C.ar  174  PHE174     -0.0203
     86  CD1        4.1510  -29.7680   14.1280 C.ar  174  PHE174     -0.0042
     87  CD2        6.0110  -28.8630   15.2770 C.ar  174  PHE174     -0.0042
     88  CE1        4.6000  -31.0470   14.4290 C.ar  174  PHE174     -0.0003
     89  CE2        6.4510  -30.1380   15.5860 C.ar  174  PHE174     -0.0003
     90  CZ         5.7390  -31.2330   15.1470 C.ar  174  PHE174     -0.0000
     91  N         -1.2290  -25.8530   13.4630 N.3   177  ALA177     -0.1231
     92  CA        -1.8810  -26.3630   14.6600 C.3   177  ALA177      0.1694
     93  C         -1.8690  -25.2920   15.7530 C.2   177  ALA177      0.2592
     94  O         -2.8830  -25.0930   16.4380 O.2   177  ALA177     -0.2718
     95  CB        -1.2170  -27.6470   15.1300 C.3   177  ALA177      0.0304
     96  N         -0.7550  -24.5650   15.8770 N.am  178  ASP178     -0.1974
     97  CA        -0.6310  -23.4700   16.8600 C.3   178  ASP178      0.1709
     98  C         -1.7210  -22.4340   16.6800 C.2   178  ASP178      0.2293
     99  O         -2.1770  -21.8400   17.6460 O.2   178  ASP178     -0.2864
    100  CB         0.6440  -22.6580   16.6400 C.3   178  ASP178      0.1436
    101  CG         1.8910  -23.3720   16.9990 C.2   178  ASP178      0.3671
    102  OD1        1.8820  -24.4840   17.5730 O.co2 178  ASP178     -0.2456
    103  OD2        2.9440  -22.7740   16.6580 O.co2 178  ASP178     -0.2456
    104  N         -5.0960  -22.5870   18.7330 N.3   181  LEU181     -0.1245
    105  CA        -5.0240  -21.9980   20.0550 C.3   181  LEU181      0.1561
    106  C         -4.9460  -20.4800   19.9510 C.2   181  LEU181      0.2260
    107  O         -5.6650  -19.7480   20.6480 O.2   181  LEU181     -0.2867
    108  CB        -3.8120  -22.5640   20.8130 C.3   181  LEU181      0.0270
    109  CG        -3.4920  -21.9450   22.1570 C.3   181  LEU181      0.0019
    110  CD1       -4.6650  -22.1590   23.0710 C.3   181  LEU181      0.0001
    111  CD2       -2.2270  -22.5560   22.7350 C.3   181  LEU181      0.0001
@<TRIPOS>BOND
     1    80    81    1
     2    75    74    2
     3    74    73    1
     4    81    82    1
     5    81    84    1
     6    91    92    1
     7    82    83    2
     8    86    88   ar
     9    86    85   ar
    10    84    85    1
    11    73    76    1
    12    73    72    1
    13    88    90   ar
    14    85    87   ar
    15    92    95    1
    16    92    93    1
    17    76    77    1
    18    90    89   ar
    19    87    89   ar
    20    93    96   am
    21    93    94    2
    22    70    68    1
    23    78    77    2
    24    96    97    1
    25    77    79   am
    26   100    97    1
    27   100   101    1
    28   103   101   ar
    29    98    97    1
    30    98    99    2
    31    28    29    1
    32    28    27    1
    33    66    65    1
    34    66    67    2
    35   101   102   ar
    36    68    65    1
    37    68    69    1
    38    65    64    1
    39    29    30    2
    40    69    71    1
    41    30    31    1
    42    30    32    1
    43    27    26    1
    44    26    23    1
    45    25    24    2
    46   104   105    1
    47    63    61    1
    48    23    24    1
    49    23    22    1
    50    61    58    1
    51    61    62    1
    52   106   105    1
    53   106   107    2
    54   105   108    1
    55    58    59    1
    56    58    57    1
    57    59    60    2
    58    16    14   am
    59   108   109    1
    60    12    11    2
    61    13    14    1
    62    13    10    1
    63    14    15    2
    64    18    21    1
    65    18    17    1
    66    18    19    1
    67    20    19    2
    68    55    54    1
    69    11    17   am
    70    11    10    1
    71    10     9    1
    72   109   111    1
    73   109   110    1
    74     4     3    2
    75     2     3    1
    76     2     1    1
    77    54    56    1
    78    54    51    1
    79     3     5   am
    80    47    48    1
    81    47    46    1
    82    52    51    1
    83    52    53    2
    84    51    50    1
    85    38    37    1
    86    43    42    2
    87    48    49    2
    88    46    42   am
    89     5     6    1
    90    42    41    1
    91     8     7    2
    92     6     7    1
    93    37    39    1
    94    37    34    1
    95    40    41    1
    96    40    35   am
    97    41    44    1
    98    34    35    1
    99    34    33    1
   100    35    36    2
   101    44    45    1
