@<TRIPOS>MOLECULE
tmp/5xdvA01.pdb
 181 165 0 0 0
SMALL
GASTEIGER

@<TRIPOS>ATOM
      1  N        -40.4080    8.7150  115.7110 N.3    88  MET88      -0.1245
      2  CA       -40.3900    7.6990  114.6690 C.3    88  MET88       0.1570
      3  C        -38.9770    7.1610  114.5240 C.2    88  MET88       0.2261
      4  O        -38.0220    7.9370  114.4630 O.2    88  MET88      -0.2867
      5  CB       -40.8780    8.2600  113.3470 C.3    88  MET88       0.0387
      6  CG       -41.0740    7.1840  112.2580 C.3    88  MET88       0.0595
      7  SD       -41.8240    7.9720  110.8240 S.3    88  MET88      -0.1393
      8  CE       -42.3670    6.5580  109.8980 C.3    88  MET88       0.0692
      9  N        -36.5790    4.4450  112.2060 N.3    90  PHE90      -0.1241
     10  CA       -36.3620    3.4740  111.1300 C.3    90  PHE90       0.1605
     11  C        -35.2170    2.5880  111.5620 C.2    90  PHE90       0.2264
     12  O        -34.1910    3.1130  111.9950 O.2    90  PHE90      -0.2867
     13  CB       -35.9550    4.1480  109.8310 C.3    90  PHE90       0.0534
     14  CG       -37.0420    5.0030  109.2280 C.ar   90  PHE90      -0.0203
     15  CD1      -37.2620    6.2790  109.6990 C.ar   90  PHE90      -0.0042
     16  CD2      -37.8020    4.5320  108.1690 C.ar   90  PHE90      -0.0042
     17  CE1      -38.2630    7.0800  109.1390 C.ar   90  PHE90      -0.0003
     18  CE2      -38.7950    5.3080  107.6050 C.ar   90  PHE90      -0.0003
     19  CZ       -39.0200    6.5840  108.0900 C.ar   90  PHE90      -0.0000
     20  N        -40.4060    1.4940  112.1000 N.3   119  VAL119     -0.1245
     21  CA       -40.4850    0.9520  110.7480 C.3   119  VAL119      0.1561
     22  C        -39.1520    0.2350  110.5050 C.2   119  VAL119      0.2260
     23  O        -38.0860    0.8260  110.6650 O.2   119  VAL119     -0.2867
     24  CB       -40.6690    2.0520  109.7230 C.3   119  VAL119      0.0252
     25  CG1      -40.7570    1.4580  108.3170 C.3   119  VAL119      0.0019
     26  CG2      -41.9270    2.8620  110.0350 C.3   119  VAL119      0.0019
     27  N        -40.7290   -3.1370  105.7800 N.3   152  ILE152     -0.1245
     28  CA       -40.4780   -3.0910  104.3290 C.3   152  ILE152      0.1561
     29  C        -39.3760   -4.1290  104.0680 C.2   152  ILE152      0.2260
     30  O        -38.3360   -4.0240  104.6370 O.2   152  ILE152     -0.2867
     31  CB       -40.0560   -1.6830  103.8900 C.3   152  ILE152      0.0252
     32  CG1      -41.2410   -0.7220  104.1630 C.3   152  ILE152      0.0019
     33  CG2      -39.7070   -1.6400  102.4000 C.3   152  ILE152      0.0019
     34  CD1      -40.9070    0.7300  103.9340 C.3   152  ILE152      0.0001
     35  N        -37.9300    7.0740  101.7050 N.3   183  GLY183     -0.1225
     36  CA       -38.9140    6.9760  102.7930 C.3   183  GLY183      0.1811
     37  C        -38.6730    8.0300  103.8550 C.2   183  GLY183      0.2280
     38  O        -39.5960    8.7700  104.2570 O.2   183  GLY183     -0.2866
     39  N        -39.3810   11.5970  102.4500 N.3   186  SER186     -0.1202
     40  CA       -40.8130   11.8040  102.2460 C.3   186  SER186      0.2020
     41  C        -41.5430   12.0560  103.5630 C.2   186  SER186      0.2618
     42  O        -42.3590   12.9990  103.6150 O.2   186  SER186     -0.2717
     43  CB       -41.4220   10.6200  101.4980 C.3   186  SER186      0.2103
     44  OG       -40.9200   10.6060  100.1730 O.3   186  SER186     -0.2182
     45  N        -41.2580   11.2660  104.6090 N.am  187  ILE187     -0.1979
     46  CA       -41.8360   11.5540  105.9240 C.3   187  ILE187      0.1595
     47  C        -41.3480   12.9050  106.4500 C.2   187  ILE187      0.2287
     48  O        -42.1550   13.6470  107.0500 O.2   187  ILE187     -0.2864
     49  CB       -41.6390   10.4080  106.9520 C.3   187  ILE187      0.0276
     50  CG1      -42.6720   10.5200  108.0640 C.3   187  ILE187      0.0022
     51  CG2      -40.2270   10.3620  107.5300 C.3   187  ILE187      0.0022
     52  CD1      -44.0520   10.1600  107.6100 C.3   187  ILE187      0.0001
     53  N        -40.6960   15.5690  104.6440 N.3   189  ASP189     -0.1225
     54  CA       -41.5880   16.4840  103.8950 C.3   189  ASP189      0.1805
     55  C        -42.9760   16.5640  104.5120 C.2   189  ASP189      0.2597
     56  O        -43.5520   17.6730  104.6760 O.2   189  ASP189     -0.2718
     57  CB       -41.7510   16.0390  102.4390 C.3   189  ASP189      0.1424
     58  CG       -40.4600   16.0940  101.6340 C.2   189  ASP189      0.3668
     59  OD1      -39.4680   16.7240  102.0690 O.co2 189  ASP189     -0.2456
     60  OD2      -40.4700   15.5260  100.5330 O.co2 189  ASP189     -0.2456
     61  N        -43.5460   15.4070  104.8300 N.am  190  LEU190     -0.1979
     62  CA       -44.8910   15.3710  105.3890 C.3   190  LEU190      0.1596
     63  C        -44.9600   16.1390  106.7120 C.2   190  LEU190      0.2287
     64  O        -45.9390   16.8860  106.9610 O.2   190  LEU190     -0.2864
     65  CB       -45.3480   13.9260  105.5550 C.3   190  LEU190      0.0297
     66  CG       -46.7380   13.6690  106.1040 C.3   190  LEU190      0.0022
     67  CD1      -47.2120   12.3300  105.5350 C.3   190  LEU190      0.0001
     68  CD2      -46.8110   13.7480  107.6330 C.3   190  LEU190      0.0001
     69  N        -44.0870   20.3280  106.1320 N.3   193  VAL193     -0.1245
     70  CA       -44.8900   21.1740  105.2320 C.3   193  VAL193      0.1561
     71  C        -46.3660   21.1030  105.6080 C.2   193  VAL193      0.2260
     72  O        -46.8830   20.0160  105.8870 O.2   193  VAL193     -0.2867
     73  CB       -44.6930   20.7060  103.7770 C.3   193  VAL193      0.0252
     74  CG1      -45.5840   21.4790  102.8040 C.3   193  VAL193      0.0019
     75  CG2      -43.2170   20.8190  103.3810 C.3   193  VAL193      0.0019
     76  N        -49.9190   21.1160  104.2590 N.3   195  GLY195     -0.1225
     77  CA       -50.4980   20.8470  102.9610 C.3   195  GLY195      0.1811
     78  C        -51.8610   21.5390  102.7840 C.2   195  GLY195      0.2280
     79  O        -52.5630   21.7910  103.7410 O.2   195  GLY195     -0.2866
     80  N        -54.4340   20.0360  101.5350 N.3   197  VAL197     -0.1231
     81  CA       -55.1740   19.0210  102.2920 C.3   197  VAL197      0.1692
     82  C        -54.1210   18.3360  103.1460 C.2   197  VAL197      0.2592
     83  O        -53.3690   17.4900  102.6420 O.2   197  VAL197     -0.2718
     84  CB       -55.9490   18.0540  101.3790 C.3   197  VAL197      0.0266
     85  CG1      -56.7100   17.0070  102.1860 C.3   197  VAL197      0.0020
     86  CG2      -56.9000   18.8410  100.4780 C.3   197  VAL197      0.0020
     87  N        -54.0450   18.7330  104.4200 N.am  198  ASN198     -0.1960
     88  CA       -52.8710   18.3890  105.2560 C.3   198  ASN198      0.1819
     89  C        -52.9380   16.9650  105.7690 C.2   198  ASN198      0.2621
     90  O        -54.0010   16.4710  106.1700 O.2   198  ASN198     -0.2715
     91  CB       -52.7480   19.3340  106.4530 C.3   198  ASN198      0.1195
     92  CG       -51.3860   19.2420  107.1190 C.2   198  ASN198      0.2630
     93  OD1      -50.3570   19.4560  106.4730 O.2   198  ASN198     -0.2716
     94  ND2      -51.3710   18.8490  108.3810 N.am  198  ASN198     -0.0877
     95  N        -51.7840   16.2940  105.7290 N.am  199  LEU199     -0.1977
     96  CA       -51.5650   14.9910  106.4010 C.3   199  LEU199      0.1596
     97  C        -50.5320   15.2710  107.4830 C.2   199  LEU199      0.2287
     98  O        -49.5550   16.0070  107.2460 O.2   199  LEU199     -0.2864
     99  CB       -50.9860   13.9530  105.4430 C.3   199  LEU199      0.0297
    100  CG       -51.8660   13.5430  104.2650 C.3   199  LEU199      0.0022
    101  CD1      -51.2180   12.4350  103.4440 C.3   199  LEU199      0.0001
    102  CD2      -53.2290   13.0550  104.7150 C.3   199  LEU199      0.0001
    103  N        -49.8200    3.1470  109.8190 N.3   208  MET208     -0.1245
    104  CA       -48.6070    2.3350  110.0240 C.3   208  MET208      0.1570
    105  C        -48.4850    1.6370  111.3580 C.2   208  MET208      0.2261
    106  O        -47.6740    0.7050  111.4690 O.2   208  MET208     -0.2867
    107  CB       -47.3700    3.1900  109.7540 C.3   208  MET208      0.0387
    108  CG       -47.2800    3.6360  108.3080 C.3   208  MET208      0.0595
    109  SD       -45.7420    4.4750  107.9420 S.3   208  MET208     -0.1393
    110  CE       -44.6870    3.0370  107.8440 C.3   208  MET208      0.0692
    111  N        -44.4600    0.6400   99.8730 N.3   216  MET216     -0.1245
    112  CA       -44.2590    2.0700   99.8170 C.3   216  MET216      0.1570
    113  C        -43.6500    2.4040   98.4780 C.2   216  MET216      0.2261
    114  O        -42.8200    1.6590   97.9660 O.2   216  MET216     -0.2867
    115  CB       -43.3480    2.5180  100.9400 C.3   216  MET216      0.0387
    116  CG       -43.2300    4.0180  101.1070 C.3   216  MET216      0.0595
    117  SD       -41.7470    4.7460  100.3760 S.3   216  MET216     -0.1393
    118  CE       -42.1900    6.4940  100.2840 C.3   216  MET216      0.0692
    119  N        -52.0120    5.4830  102.9310 N.3   251  LEU251     -0.1245
    120  CA       -51.7330    6.9050  103.0570 C.3   251  LEU251      0.1561
    121  C        -51.2450    7.3650  101.7130 C.2   251  LEU251      0.2260
    122  O        -50.2810    6.8170  101.2040 O.2   251  LEU251     -0.2867
    123  CB       -50.6930    7.1950  104.1460 C.3   251  LEU251      0.0270
    124  CG       -50.4960    8.6400  104.5970 C.3   251  LEU251      0.0019
    125  CD1      -51.7170    9.1690  105.3260 C.3   251  LEU251      0.0001
    126  CD2      -49.2570    8.7800  105.4870 C.3   251  LEU251      0.0001
    127  N        -50.3920   10.8730   99.1810 N.3   253  ASN253     -0.1240
    128  CA       -50.2500   12.2860   98.9340 C.3   253  ASN253      0.1653
    129  C        -49.9350   12.5730   97.4650 C.2   253  ASN253      0.2266
    130  O        -49.1480   11.8650   96.8230 O.2   253  ASN253     -0.2867
    131  CB       -49.1340   12.8980   99.7860 C.3   253  ASN253      0.1155
    132  CG       -49.0180   14.4020   99.5700 C.2   253  ASN253      0.2627
    133  OD1      -49.8420   15.1790  100.0900 O.2   253  ASN253     -0.2716
    134  ND2      -48.0020   14.8260   98.7920 N.am  253  ASN253     -0.0877
    135  N        -48.4950   15.7550   95.1500 N.3   255  THR255     -0.1218
    136  CA       -47.8530   17.0510   95.1060 C.3   255  THR255      0.1862
    137  C        -47.8120   17.4820   93.6580 C.2   255  THR255      0.2287
    138  O        -47.3570   16.7330   92.7920 O.2   255  THR255     -0.2866
    139  CB       -46.4310   16.9940   95.6850 C.3   255  THR255      0.1770
    140  OG1      -46.4990   16.6560   97.0770 O.3   255  THR255     -0.2211
    141  CG2      -45.7070   18.3380   95.5830 C.3   255  THR255      0.0375
    142  N        -53.9990   13.1540  100.8880 N.3   285  GLY285     -0.1210
    143  CA       -53.4520   14.4980  101.0900 C.3   285  GLY285      0.1956
    144  C        -53.0830   15.1400   99.7660 C.2   285  GLY285      0.2613
    145  O        -52.8950   14.4300   98.7460 O.2   285  GLY285     -0.2717
    146  N        -52.9560   16.4640   99.7850 N.am  286  THR286     -0.1938
    147  CA       -52.4810   17.2280   98.6350 C.3   286  THR286      0.2028
    148  C        -51.7010   18.4510   99.0390 C.2   286  THR286      0.2642
    149  O        -52.0450   19.1410  100.0110 O.2   286  THR286     -0.2714
    150  CB       -53.6440   17.6950   97.7110 C.3   286  THR286      0.1808
    151  OG1      -54.3450   16.5710   97.2070 O.3   286  THR286     -0.2208
    152  CG2      -53.1230   18.4540   96.5240 C.3   286  THR286      0.0379
    153  N        -50.6610   18.7440   98.2770 N.am  287  VAL287     -0.1977
    154  CA       -49.8780   19.9670   98.4770 C.3   287  VAL287      0.1596
    155  C        -49.6330   20.5730   97.1110 C.2   287  VAL287      0.2287
    156  O        -49.3280   19.8600   96.1230 O.2   287  VAL287     -0.2864
    157  CB       -48.5610   19.7560   99.2710 C.3   287  VAL287      0.0276
    158  CG1      -47.8130   18.5840   98.7510 C.3   287  VAL287      0.0022
    159  CG2      -47.6650   20.9990   99.2340 C.3   287  VAL287      0.0022
    160  N        -47.1540    9.9060   96.2890 N.3   299  THR299     -0.1203
    161  CA       -46.4730    9.0770   97.3190 C.3   299  THR299      0.1994
    162  C        -47.5170    8.2100   97.9610 C.2   299  THR299      0.2618
    163  O        -48.6110    8.7120   98.2730 O.2   299  THR299     -0.2717
    164  CB       -45.7800    9.9440   98.3700 C.3   299  THR299      0.1784
    165  OG1      -44.9100   10.8610   97.6970 O.3   299  THR299     -0.2211
    166  CG2      -44.9500    9.0930   99.3510 C.3   299  THR299      0.0376
    167  N        -47.2020    6.9300   98.1280 N.am  300  VAL300     -0.1965
    168  CA       -48.1100    5.9720   98.6950 C.3   300  VAL300      0.1727
    169  C        -47.4300    5.0850   99.7330 C.2   300  VAL300      0.2616
    170  O        -46.3200    4.6090   99.5040 O.2   300  VAL300     -0.2715
    171  CB       -48.6970    5.0780   97.5790 C.3   300  VAL300      0.0290
    172  CG1      -49.4670    3.9060   98.1470 C.3   300  VAL300      0.0023
    173  CG2      -49.6010    5.8850   96.6600 C.3   300  VAL300      0.0023
    174  N        -48.0990    4.8640  100.8610 N.am  301  ILE301     -0.1977
    175  CA       -47.8240    3.6600  101.6830 C.3   301  ILE301      0.1596
    176  C        -49.1100    2.8550  101.8920 C.2   301  ILE301      0.2287
    177  O        -50.1790    3.4130  102.1930 O.2   301  ILE301     -0.2864
    178  CB       -47.0810    3.9400  103.0030 C.3   301  ILE301      0.0276
    179  CG1      -46.8300    2.6220  103.7620 C.3   301  ILE301      0.0022
    180  CG2      -47.8320    4.8940  103.8880 C.3   301  ILE301      0.0022
    181  CD1      -45.5130    2.5470  104.4710 C.3   301  ILE301      0.0001
@<TRIPOS>BOND
     1   138   137    2
     2   137   136    1
     3   136   135    1
     4   136   139    1
     5   141   139    1
     6   139   140    1
     7   156   155    2
     8   160   161    1
     9   152   150    1
    10   173   171    1
    11   130   129    2
    12   155   154    1
    13   151   150    1
    14   161   162    1
    15   161   164    1
    16   129   128    1
    17   171   172    1
    18   171   168    1
    19   165   164    1
    20   150   147    1
    21   162   167   am
    22   162   163    2
    23   114   113    2
    24   167   168    1
    25   153   154    1
    26   153   148   am
    27   164   166    1
    28   154   157    1
    29   113   112    1
    30   147   148    1
    31   147   146    1
    32   168   169    1
    33   145   144    2
    34   158   157    1
    35   134   132   am
    36   128   127    1
    37   128   131    1
    38   148   149    2
    39   159   157    1
    40   170   169    2
    41   132   131    1
    42   132   133    2
    43   169   174   am
    44   144   146   am
    45   144   143    1
    46   112   111    1
    47   112   115    1
    48    44    43    1
    49   118   117    1
    50   117   116    1
    51    86    84    1
    52    60    58   ar
    53   174   175    1
    54   142   143    1
    55   115   116    1
    56   122   121    2
    57    84    85    1
    58    84    81    1
    59    43    40    1
    60    80    81    1
    61    58    59   ar
    62    58    57    1
    63   175   176    1
    64   175   178    1
    65    35    36    1
    66   121   120    1
    67   176   177    2
    68    40    39    1
    69    40    41    1
    70    81    82    1
    71    33    31    1
    72    57    54    1
    73    83    82    2
    74    78    77    1
    75    78    79    2
    76    36    37    1
    77    74    73    1
    78   119   120    1
    79    77    76    1
    80   178   179    1
    81   178   180    1
    82   120   123    1
    83    82    87   am
    84    75    73    1
    85   101   100    1
    86    41    42    2
    87    41    45   am
    88   179   181    1
    89    73    70    1
    90    37    38    2
    91    31    32    1
    92    31    28    1
    93    54    55    1
    94    54    53    1
    95    34    32    1
    96    29    28    1
    97    29    30    2
    98   123   124    1
    99   100   102    1
   100   100    99    1
   101    28    27    1
   102    87    88    1
   103    55    56    2
   104    55    61   am
   105   124   125    1
   106   124   126    1
   107    45    46    1
   108    61    62    1
   109    70    71    1
   110    70    69    1
   111    88    89    1
   112    88    91    1
   113    62    65    1
   114    62    63    1
   115    99    96    1
   116    67    66    1
   117    65    66    1
   118    71    72    2
   119    95    89   am
   120    95    96    1
   121    89    90    2
   122    46    47    1
   123    46    49    1
   124    66    68    1
   125    96    97    1
   126    47    48    2
   127    91    92    1
   128    93    92    2
   129    63    64    2
   130    49    51    1
   131    49    50    1
   132    92    94   am
   133    98    97    2
   134    18    19   ar
   135    18    16   ar
   136    52    50    1
   137   110   109    1
   138   109   108    1
   139    19    17   ar
   140    16    14   ar
   141   108   107    1
   142    25    24    1
   143    17    15   ar
   144    14    15   ar
   145    14    13    1
   146    24    26    1
   147    24    21    1
   148   107   104    1
   149   103   104    1
   150    13    10    1
   151     8     7    1
   152   104   105    1
   153    22    23    2
   154    22    21    1
   155    21    20    1
   156     7     6    1
   157    10    11    1
   158    10     9    1
   159   105   106    2
   160    11    12    2
   161     6     5    1
   162     5     2    1
   163     4     3    2
   164     3     2    1
   165     2     1    1
