@<TRIPOS>MOLECULE
tmp/5xe0A00.pdb
 151 143 0 0 0
SMALL
GASTEIGER

@<TRIPOS>ATOM
      1  N         10.8060   -2.7420  -12.2660 N.3    57  LYS57      -0.1245
      2  CA         9.4340   -2.3440  -12.5620 C.3    57  LYS57       0.1561
      3  C          9.1660   -2.3540  -14.0610 C.2    57  LYS57       0.2260
      4  O          8.0180   -2.5300  -14.4860 O.2    57  LYS57      -0.2867
      5  CB         9.1450   -0.9610  -11.9720 C.3    57  LYS57       0.0271
      6  CG        10.0150    0.1680  -12.5170 C.3    57  LYS57       0.0035
      7  CD         9.5650    1.5160  -11.9630 C.3    57  LYS57       0.0206
      8  CE        10.3560    2.6710  -12.5620 C.3    57  LYS57       0.1093
      9  NZ         9.8430    3.9950  -12.1010 N.3    57  LYS57      -0.1314
     10  N         12.7810    7.9520   -4.4510 N.3   155  LYS155     -0.1245
     11  CA        11.8080    8.6580   -3.6290 C.3   155  LYS155      0.1561
     12  C         12.1080    8.4160   -2.1540 C.2   155  LYS155      0.2260
     13  O         12.1080    7.2700   -1.6900 O.2   155  LYS155     -0.2867
     14  CB        10.3910    8.2160   -3.9760 C.3   155  LYS155      0.0271
     15  CG         9.3200    9.0610   -3.3100 C.3   155  LYS155      0.0035
     16  CD         8.0000    8.9730   -4.0540 C.3   155  LYS155      0.0206
     17  CE         7.0130   10.0040   -3.5370 C.3   155  LYS155      0.1093
     18  NZ         6.8070    9.8780   -2.0680 N.3   155  LYS155     -0.1314
     19  N          8.5820    3.1560    3.7800 N.3   159  ARG159     -0.1245
     20  CA         8.1910    1.9220    3.1180 C.3   159  ARG159      0.1563
     21  C          8.0960    0.8160    4.1570 C.2   159  ARG159      0.2260
     22  O          8.5980    0.9420    5.2760 O.2   159  ARG159     -0.2867
     23  CB         9.1830    1.5260    2.0150 C.3   159  ARG159      0.0307
     24  CG         9.3080    2.5440    0.8970 C.3   159  ARG159      0.0489
     25  CD         8.0990    2.5250   -0.0200 C.3   159  ARG159      0.2205
     26  NE         8.2670    1.5700   -1.1110 N.pl3 159  ARG159     -0.0865
     27  CZ         7.3430    1.3180   -2.0320 C.cat 159  ARG159      0.5346
     28  NH1        6.1770    1.9470   -1.9920 N.pl3 159  ARG159      0.1354
     29  NH2        7.5860    0.4360   -2.9920 N.pl3 159  ARG159      0.1354
     30  N          9.4790   -4.1750    1.8790 N.3   163  LYS163     -0.1245
     31  CA         9.9910   -3.4450    0.7240 C.3   163  LYS163      0.1561
     32  C         11.3410   -2.7910    0.9930 C.2   163  LYS163      0.2260
     33  O         12.0510   -2.4590    0.0380 O.2   163  LYS163     -0.2867
     34  CB         8.9780   -2.3950    0.2660 C.3   163  LYS163      0.0271
     35  CG         7.8740   -2.9720   -0.6030 C.3   163  LYS163      0.0035
     36  CD         6.7750   -1.9640   -0.8830 C.3   163  LYS163      0.0206
     37  CE         5.9350   -2.3980   -2.0760 C.3   163  LYS163      0.1093
     38  NZ         4.7240   -1.5520   -2.2530 N.3   163  LYS163     -0.1314
     39  N         10.6880    3.4080   -4.5960 N.3   170  ARG170     -0.1231
     40  CA        10.0700    4.0290   -5.7540 C.3   170  ARG170      0.1694
     41  C         10.9690    5.1250   -6.3120 C.2   170  ARG170      0.2592
     42  O         11.8500    5.6520   -5.6280 O.2   170  ARG170     -0.2718
     43  CB         8.6970    4.5960   -5.3950 C.3   170  ARG170      0.0321
     44  CG         7.6750    3.5270   -5.0590 C.3   170  ARG170      0.0489
     45  CD         6.2600    4.0650   -5.1410 C.3   170  ARG170      0.2205
     46  NE         5.9940    5.1000   -4.1470 N.pl3 170  ARG170     -0.0865
     47  CZ         4.8430    5.7590   -4.0500 C.cat 170  ARG170      0.5346
     48  NH1        3.8530    5.4890   -4.8910 N.pl3 170  ARG170      0.1354
     49  NH2        4.6820    6.6860   -3.1160 N.pl3 170  ARG170      0.1354
     50  N         10.7380    5.4640   -7.5760 N.am  171  LEU171     -0.1966
     51  CA        11.5470    6.4470   -8.2790 C.3   171  LEU171      0.1728
     52  C         10.7050    7.6540   -8.6620 C.2   171  LEU171      0.2616
     53  O          9.5250    7.5210   -9.0070 O.2   171  LEU171     -0.2715
     54  CB        12.1870    5.8430   -9.5340 C.3   171  LEU171      0.0311
     55  CG        13.1900    4.7140   -9.2980 C.3   171  LEU171      0.0022
     56  CD1       13.8350    4.2910  -10.6070 C.3   171  LEU171      0.0001
     57  CD2       14.2420    5.1370   -8.2850 C.3   171  LEU171      0.0001
     58  N         11.3230    8.8300   -8.5900 N.am  172  ILE172     -0.1977
     59  CA        10.7530   10.0650   -9.1130 C.3   172  ILE172      0.1596
     60  C         11.4940   10.4150  -10.3960 C.2   172  ILE172      0.2287
     61  O         12.7120   10.6380  -10.3770 O.2   172  ILE172     -0.2864
     62  CB        10.8250   11.2150   -8.0980 C.3   172  ILE172      0.0276
     63  CG1        9.7030   11.0850   -7.0720 C.3   172  ILE172      0.0022
     64  CG2       10.7290   12.5560   -8.8060 C.3   172  ILE172      0.0022
     65  CD1        8.4130   11.7530   -7.4950 C.3   172  ILE172      0.0001
     66  N         -6.2310   -4.0250   -7.6790 N.3   229  ASP229     -0.1225
     67  CA        -4.9210   -3.4150   -7.5410 C.3   229  ASP229      0.1805
     68  C         -4.1380   -3.5500   -8.8380 C.2   229  ASP229      0.2598
     69  O         -4.3860   -4.4390   -9.6570 O.2   229  ASP229     -0.2718
     70  CB        -4.1330   -4.0550   -6.3930 C.3   229  ASP229      0.1424
     71  CG        -4.4350   -3.4180   -5.0540 C.2   229  ASP229      0.3668
     72  OD1       -5.4470   -2.6950   -4.9520 O.co2 229  ASP229     -0.2456
     73  OD2       -3.6590   -3.6450   -4.1020 O.co2 229  ASP229     -0.2456
     74  N         -3.1950   -2.6340   -9.0190 N.am  230  TYR230     -0.1962
     75  CA        -2.1780   -2.7350  -10.0530 C.3   230  TYR230      0.1771
     76  C         -0.8260   -2.9520   -9.3920 C.2   230  TYR230      0.2620
     77  O         -0.5540   -2.4010   -8.3210 O.2   230  TYR230     -0.2715
     78  CB        -2.1170   -1.4720  -10.9140 C.3   230  TYR230      0.0574
     79  CG        -3.2030   -1.3310  -11.9550 C.ar  230  TYR230     -0.0198
     80  CD1       -3.1540   -2.0540  -13.1400 C.ar  230  TYR230     -0.0009
     81  CD2       -4.2550   -0.4440  -11.7710 C.ar  230  TYR230     -0.0009
     82  CE1       -4.1360   -1.9130  -14.1040 C.ar  230  TYR230      0.0417
     83  CE2       -5.2390   -0.2940  -12.7270 C.ar  230  TYR230      0.0417
     84  CZ        -5.1770   -1.0310  -13.8910 C.ar  230  TYR230      0.1957
     85  OH        -6.1590   -0.8810  -14.8420 O.3   230  TYR230     -0.2866
     86  N          0.0150   -3.7590  -10.0260 N.am  231  THR231     -0.1937
     87  CA         1.4160   -3.8730   -9.6470 C.3   231  THR231      0.2028
     88  C          2.2440   -3.1320  -10.6890 C.2   231  THR231      0.2643
     89  O          2.2140   -3.4870  -11.8720 O.2   231  THR231     -0.2714
     90  CB         1.8560   -5.3320   -9.5470 C.3   231  THR231      0.1808
     91  OG1        1.0650   -6.0050   -8.5600 O.3   231  THR231     -0.2208
     92  CG2        3.3250   -5.4130   -9.1560 C.3   231  THR231      0.0379
     93  N          2.9620   -2.1000  -10.2490 N.am  232  GLY232     -0.1939
     94  CA         3.7700   -1.2880  -11.1390 C.3   232  GLY232      0.2014
     95  C          3.0060   -0.7610  -12.3360 C.2   232  GLY232      0.2639
     96  O          3.3910   -1.0100  -13.4810 O.2   232  GLY232     -0.2714
     97  N          1.9220   -0.0260  -12.0760 N.am  233  TYR233     -0.1959
     98  CA         1.0410    0.4370  -13.1460 C.3   233  TYR233      0.1771
     99  C          1.7850    1.3220  -14.1400 C.2   233  TYR233      0.2620
    100  O          1.8480    1.0140  -15.3350 O.2   233  TYR233     -0.2715
    101  CB        -0.1480    1.1800  -12.5360 C.3   233  TYR233      0.0574
    102  CG        -1.0920    1.8410  -13.5220 C.ar  233  TYR233     -0.0198
    103  CD1       -0.8900    3.1520  -13.9350 C.ar  233  TYR233     -0.0009
    104  CD2       -2.2090    1.1700  -14.0030 C.ar  233  TYR233     -0.0009
    105  CE1       -1.7570    3.7670  -14.8220 C.ar  233  TYR233      0.0417
    106  CE2       -3.0850    1.7780  -14.8890 C.ar  233  TYR233      0.0417
    107  CZ        -2.8540    3.0770  -15.2940 C.ar  233  TYR233      0.1957
    108  OH        -3.7200    3.6880  -16.1740 O.3   233  TYR233     -0.2866
    109  N          2.3470    2.4370  -13.6580 N.am  234  ASP234     -0.1957
    110  CA         3.0170    3.4000  -14.5290 C.3   234  ASP234      0.1840
    111  C          4.0200    2.7180  -15.4520 C.2   234  ASP234      0.2621
    112  O          3.9430    2.8400  -16.6800 O.2   234  ASP234     -0.2715
    113  CB         3.7200    4.4710  -13.6900 C.3   234  ASP234      0.1450
    114  CG         2.7520    5.3600  -12.9370 C.2   234  ASP234      0.3671
    115  OD1        1.5540    5.0160  -12.8600 O.co2 234  ASP234     -0.2456
    116  OD2        3.1920    6.4050  -12.4100 O.co2 234  ASP234     -0.2456
    117  N          4.9690    1.9820  -14.8700 N.am  235  ALA235     -0.1977
    118  CA         6.0290    1.3720  -15.6630 C.3   235  ALA235      0.1597
    119  C          5.5320    0.2200  -16.5270 C.2   235  ALA235      0.2287
    120  O          6.2040   -0.1350  -17.5000 O.2   235  ALA235     -0.2864
    121  CB         7.1580    0.8900  -14.7500 C.3   235  ALA235      0.0319
    122  N          7.0910    9.3840  -13.3010 N.3   284  SER284     -0.1217
    123  CA         6.3840    9.5800  -12.0430 C.3   284  SER284      0.1889
    124  C          6.0880   11.0490  -11.7740 C.2   284  SER284      0.2288
    125  O          5.0180   11.4020  -11.2650 O.2   284  SER284     -0.2866
    126  CB         7.2420    9.0100  -10.9170 C.3   284  SER284      0.2089
    127  OG         8.3910    9.8030  -10.7480 O.3   284  SER284     -0.2183
    128  N         -3.5200    4.9550  -11.0370 N.3   324  ASP324     -0.1239
    129  CA        -3.8710    3.5420  -11.0980 C.3   324  ASP324      0.1674
    130  C         -5.0360    3.1770  -10.1870 C.2   324  ASP324      0.2266
    131  O         -5.6930    2.1580  -10.4240 O.2   324  ASP324     -0.2867
    132  CB        -2.6600    2.6800  -10.7400 C.3   324  ASP324      0.1410
    133  CG        -2.1960    2.8830   -9.3140 C.2   324  ASP324      0.3668
    134  OD1       -2.2210    4.0350   -8.8330 O.co2 324  ASP324     -0.2456
    135  OD2       -1.8020    1.8840   -8.6740 O.co2 324  ASP324     -0.2456
    136  N         -4.3340   -7.3390   -9.6290 N.3   351  THR351     -0.1218
    137  CA        -4.4220   -8.2550   -8.5010 C.3   351  THR351      0.1862
    138  C         -5.5500   -7.8190   -7.5800 C.2   351  THR351      0.2287
    139  O         -6.0810   -6.7120   -7.7160 O.2   351  THR351     -0.2866
    140  CB        -3.0760   -8.2940   -7.7540 C.3   351  THR351      0.1770
    141  OG1       -2.5150   -6.9780   -7.6920 O.3   351  THR351     -0.2211
    142  CG2       -2.1050   -9.2240   -8.4610 C.3   351  THR351      0.0375
    143  N         -4.1210   -5.6200   -1.7130 N.3   355  LYS355     -0.1245
    144  CA        -3.1160   -6.6340   -1.3870 C.3   355  LYS355      0.1561
    145  C         -3.7160   -7.9350   -0.8560 C.2   355  LYS355      0.2260
    146  O         -3.0080   -8.7290   -0.2280 O.2   355  LYS355     -0.2867
    147  CB        -2.0930   -6.0890   -0.3820 C.3   355  LYS355      0.0271
    148  CG        -1.6870   -4.6400   -0.6120 C.3   355  LYS355      0.0035
    149  CD        -0.5660   -4.5170   -1.6260 C.3   355  LYS355      0.0206
    150  CE         0.0640   -3.1370   -1.5700 C.3   355  LYS355      0.1093
    151  NZ        -0.7940   -2.1060   -2.2160 N.3   355  LYS355     -0.1314
@<TRIPOS>BOND
     1   120   119    2
     2   112   111    2
     3   119   118    1
     4   108   107    1
     5   118   117    1
     6   118   121    1
     7   111   117   am
     8   111   110    1
     9   100    99    2
    10   107   106   ar
    11   107   105   ar
    12   106   104   ar
    13    85    84    1
    14   105   103   ar
    15   110   113    1
    16   110   109    1
    17     4     3    2
    18    99   109   am
    19    99    98    1
    20    82    84   ar
    21    82    80   ar
    22     3     2    1
    23   104   102   ar
    24   103   102   ar
    25    84    83   ar
    26   113   114    1
    27   102   101    1
    28    96    95    2
    29   122   123    1
    30    98   101    1
    31    98    97    1
    32    80    79   ar
    33   114   115   ar
    34   114   116   ar
    35    83    81   ar
    36     8     9    1
    37     8     7    1
    38     2     1    1
    39     2     5    1
    40     6     5    1
    41     6     7    1
    42    95    97   am
    43    95    94    1
    44   123   124    1
    45   123   126    1
    46    79    81   ar
    47    79    78    1
    48    89    88    2
    49   124   125    2
    50    94    93    1
    51   129   128    1
    52   129   132    1
    53   129   130    1
    54   126   127    1
    55    78    75    1
    56   132   133    1
    57    88    93   am
    58    88    87    1
    59    56    55    1
    60   131   130    2
    61    60    61    2
    62    60    59    1
    63    75    76    1
    64    75    74    1
    65    86    87    1
    66    86    76   am
    67    69    68    2
    68    87    90    1
    69   136   137    1
    70    90    92    1
    71    90    91    1
    72    54    55    1
    73    54    51    1
    74    76    77    2
    75   133   134   ar
    76   133   135   ar
    77    55    57    1
    78    59    58    1
    79    59    62    1
    80    74    68   am
    81    53    52    2
    82    68    67    1
    83    64    62    1
    84    52    58   am
    85    52    51    1
    86   137   140    1
    87   137   138    1
    88   142   140    1
    89    51    50    1
    90    62    63    1
    91   140   141    1
    92   139   138    2
    93    66    67    1
    94    50    41   am
    95    67    70    1
    96    65    63    1
    97    70    71    1
    98    41    40    1
    99    41    42    2
   100    40    43    1
   101    40    39    1
   102    43    44    1
   103    45    44    1
   104    45    46    1
   105    71    72   ar
   106    71    73   ar
   107    48    47    1
   108    10    11    1
   109    46    47    2
   110    16    17    1
   111    16    15    1
   112    47    49    1
   113    14    11    1
   114    14    15    1
   115    11    12    1
   116    17    18    1
   117    29    27    1
   118    38    37    1
   119   151   150    1
   120    12    13    2
   121    37    36    1
   122    27    28    1
   123    27    26    2
   124   143   144    1
   125   149   150    1
   126   149   148    1
   127   144   145    1
   128   144   147    1
   129    26    25    1
   130    36    35    1
   131   145   146    2
   132   148   147    1
   133    35    34    1
   134    25    24    1
   135    33    32    2
   136    34    31    1
   137    31    32    1
   138    31    30    1
   139    24    23    1
   140    23    20    1
   141    20    19    1
   142    20    21    1
   143    21    22    2
