@<TRIPOS>MOLECULE
tmp/5xe1B01.pdb
 120 115 0 0 0
SMALL
GASTEIGER

@<TRIPOS>ATOM
      1  N        -30.3600    1.1180  -17.4480 N.3   115  TYR115     -0.1241
      2  CA       -29.8950    0.4250  -16.2430 C.3   115  TYR115      0.1605
      3  C        -30.6190    0.9430  -15.0250 C.2   115  TYR115      0.2264
      4  O        -31.0570    0.1580  -14.1870 O.2   115  TYR115     -0.2867
      5  CB       -28.3900    0.6230  -16.0760 C.3   115  TYR115      0.0534
      6  CG       -27.7020   -0.1750  -14.9890 C.ar  115  TYR115     -0.0201
      7  CD1      -27.3410   -1.5020  -15.1730 C.ar  115  TYR115     -0.0009
      8  CD2      -27.3560    0.4220  -13.7990 C.ar  115  TYR115     -0.0009
      9  CE1      -26.6730   -2.2090  -14.1880 C.ar  115  TYR115      0.0417
     10  CE2      -26.6750   -0.2700  -12.8160 C.ar  115  TYR115      0.0417
     11  CZ       -26.3240   -1.5870  -13.0070 C.ar  115  TYR115      0.1957
     12  OH       -25.6490   -2.2950  -12.0380 O.3   115  TYR115     -0.2866
     13  N        -34.3530   -0.9060  -15.2440 N.3   118  CYS118     -0.1221
     14  CA       -34.5090   -2.3640  -15.1390 C.3   118  CYS118      0.1808
     15  C        -33.5750   -3.0610  -14.1400 C.2   118  CYS118      0.2601
     16  O        -33.7530   -4.2470  -13.8880 O.2   118  CYS118     -0.2717
     17  CB       -34.3880   -3.0250  -16.5200 C.3   118  CYS118      0.0970
     18  SG       -32.9090   -2.5730  -17.4450 S.3   118  CYS118     -0.0800
     19  N        -32.5940   -2.3500  -13.5890 N.am  119  VAL119     -0.1979
     20  CA       -31.7990   -2.8790  -12.4900 C.3   119  VAL119      0.1595
     21  C        -32.1320   -2.0970  -11.2220 C.2   119  VAL119      0.2287
     22  O        -32.7140   -2.6640  -10.3010 O.2   119  VAL119     -0.2864
     23  CB       -30.2840   -2.8540  -12.8040 C.3   119  VAL119      0.0276
     24  CG1      -29.4820   -3.4210  -11.6380 C.3   119  VAL119      0.0022
     25  CG2      -29.9930   -3.6320  -14.0790 C.3   119  VAL119      0.0022
     26  N        -30.3960  -12.0630  -14.1590 N.3   152  PHE152     -0.1227
     27  CA       -29.5560  -11.0460  -14.7730 C.3   152  PHE152      0.1736
     28  C        -29.6700   -9.7360  -14.0040 C.2   152  PHE152      0.2595
     29  O        -28.6710   -9.2130  -13.5070 O.2   152  PHE152     -0.2718
     30  CB       -29.9690  -10.8840  -16.2400 C.3   152  PHE152      0.0547
     31  CG       -29.0490  -10.0280  -17.0600 C.ar  152  PHE152     -0.0202
     32  CD1      -27.6740  -10.2030  -17.0090 C.ar  152  PHE152     -0.0042
     33  CD2      -29.5640   -9.0790  -17.9400 C.ar  152  PHE152     -0.0042
     34  CE1      -26.8420   -9.4130  -17.7750 C.ar  152  PHE152     -0.0003
     35  CE2      -28.7260   -8.3100  -18.7280 C.ar  152  PHE152     -0.0003
     36  CZ       -27.3610   -8.4700  -18.6360 C.ar  152  PHE152     -0.0000
     37  N        -30.9010   -9.2630  -13.8510 N.am  153  PHE153     -0.1976
     38  CA       -31.1520   -8.0150  -13.1480 C.3   153  PHE153      0.1639
     39  C        -30.7290   -8.0750  -11.6800 C.2   153  PHE153      0.2290
     40  O        -30.0670   -7.1530  -11.1930 O.2   153  PHE153     -0.2864
     41  CB       -32.6290   -7.5960  -13.2490 C.3   153  PHE153      0.0560
     42  CG       -33.0960   -7.2840  -14.6530 C.ar  153  PHE153     -0.0200
     43  CD1      -32.2900   -6.5980  -15.5520 C.ar  153  PHE153     -0.0042
     44  CD2      -34.3680   -7.6600  -15.0680 C.ar  153  PHE153     -0.0042
     45  CE1      -32.7320   -6.3130  -16.8320 C.ar  153  PHE153     -0.0003
     46  CE2      -34.8230   -7.3660  -16.3470 C.ar  153  PHE153     -0.0003
     47  CZ       -34.0010   -6.6920  -17.2300 C.ar  153  PHE153     -0.0000
     48  N        -26.7850   -8.2830  -11.1350 N.3   156  SER156     -0.1217
     49  CA       -26.2800   -6.9460  -11.4050 C.3   156  SER156      0.1889
     50  C        -26.5440   -6.0010  -10.2410 C.2   156  SER156      0.2288
     51  O        -25.6270   -5.3330   -9.7450 O.2   156  SER156     -0.2866
     52  CB       -26.9210   -6.3830  -12.6640 C.3   156  SER156      0.2089
     53  OG       -26.5380   -7.1550  -13.7810 O.3   156  SER156     -0.2183
     54  N        -29.8490  -15.7600  -22.3900 N.3   215  PHE215     -0.1241
     55  CA       -29.4420  -14.3520  -22.4360 C.3   215  PHE215      0.1605
     56  C        -29.1960  -13.8270  -23.8610 C.2   215  PHE215      0.2264
     57  O        -29.8610  -12.8840  -24.2900 O.2   215  PHE215     -0.2867
     58  CB       -28.1930  -14.0940  -21.6030 C.3   215  PHE215      0.0534
     59  CG       -27.6190  -12.7410  -21.8440 C.ar  215  PHE215     -0.0203
     60  CD1      -28.2530  -11.6170  -21.3470 C.ar  215  PHE215     -0.0042
     61  CD2      -26.4900  -12.5800  -22.6440 C.ar  215  PHE215     -0.0042
     62  CE1      -27.7320  -10.3530  -21.5810 C.ar  215  PHE215     -0.0003
     63  CE2      -25.9780  -11.3220  -22.9070 C.ar  215  PHE215     -0.0003
     64  CZ       -26.6000  -10.2070  -22.3740 C.ar  215  PHE215     -0.0000
     65  N        -31.1070  -10.2590  -24.3650 N.3   220  ARG220     -0.1245
     66  CA       -30.2880   -9.2740  -25.0960 C.3   220  ARG220      0.1563
     67  C        -31.0600   -8.4630  -26.1430 C.2   220  ARG220      0.2260
     68  O        -30.7730   -7.2870  -26.3320 O.2   220  ARG220     -0.2867
     69  CB       -29.1230   -9.9780  -25.7930 C.3   220  ARG220      0.0307
     70  CG       -28.0640   -9.0430  -26.3630 C.3   220  ARG220      0.0489
     71  CD       -26.9530   -9.8400  -27.0160 C.3   220  ARG220      0.2205
     72  NE       -27.4870  -10.3900  -28.2830 N.pl3 220  ARG220     -0.0865
     73  CZ       -27.0550  -10.1840  -29.5300 C.cat 220  ARG220      0.5346
     74  NH1      -25.9870   -9.4440  -29.8040 N.pl3 220  ARG220      0.1354
     75  NH2      -27.7050  -10.7830  -30.5350 N.pl3 220  ARG220      0.1354
     76  N        -33.2340   -5.5970  -24.6770 N.3   223  LEU223     -0.1245
     77  CA       -32.4150   -4.5060  -24.1330 C.3   223  LEU223      0.1561
     78  C        -31.7570   -3.6380  -25.2090 C.2   223  LEU223      0.2260
     79  O        -31.1750   -2.6220  -24.8850 O.2   223  LEU223     -0.2867
     80  CB       -31.3420   -5.0780  -23.2130 C.3   223  LEU223      0.0270
     81  CG       -31.9160   -5.8060  -21.9980 C.3   223  LEU223      0.0019
     82  CD1      -30.9050   -6.7860  -21.4410 C.3   223  LEU223      0.0001
     83  CD2      -32.3850   -4.8250  -20.9350 C.3   223  LEU223      0.0001
     84  N        -29.6810   -0.5730  -23.1600 N.3   251  GLY251     -0.1210
     85  CA       -29.1040   -0.8360  -21.8400 C.3   251  GLY251      0.1956
     86  C        -27.6970   -1.4370  -21.8280 C.2   251  GLY251      0.2613
     87  O        -27.4140   -2.4360  -22.5030 O.2   251  GLY251     -0.2717
     88  N        -26.8310   -0.8150  -21.0390 N.am  252  SER252     -0.1938
     89  CA       -25.4520   -1.2540  -20.8260 C.3   252  SER252      0.2055
     90  C        -25.1610   -0.9580  -19.3790 C.2   252  SER252      0.2643
     91  O        -25.7610   -0.0230  -18.8340 O.2   252  SER252     -0.2714
     92  CB       -24.4750   -0.4850  -21.7280 C.3   252  SER252      0.2130
     93  OG       -24.2080   -1.1660  -22.9450 O.3   252  SER252     -0.2179
     94  N        -24.2030   -1.6530  -18.7820 N.am  253  ALA253     -0.1963
     95  CA       -23.8410   -1.3840  -17.4020 C.3   253  ALA253      0.1728
     96  C        -22.7160   -0.3510  -17.4220 C.2   253  ALA253      0.2616
     97  O        -22.1600   -0.0100  -16.3760 O.2   253  ALA253     -0.2715
     98  CB       -23.4210   -2.6220  -16.6460 C.3   253  ALA253      0.0334
     99  N        -22.3800    0.1570  -18.6110 N.am  254  GLY254     -0.1955
    100  CA       -21.7020    1.4500  -18.7320 C.3   254  GLY254      0.1869
    101  C        -22.5030    2.5590  -18.0670 C.2   254  GLY254      0.2309
    102  O        -21.9430    3.5720  -17.6390 O.2   254  GLY254     -0.2863
    103  N        -15.1130   -9.6040  -15.6970 N.3   335  HIS335     -0.1241
    104  CA       -16.1040   -9.1190  -16.6300 C.3   335  HIS335      0.1621
    105  C        -15.8760   -9.6500  -18.0430 C.2   335  HIS335      0.2264
    106  O        -16.8130  -10.1560  -18.6560 O.2   335  HIS335     -0.2867
    107  CB       -16.1490   -7.5990  -16.6460 C.3   335  HIS335      0.0745
    108  CG       -17.2250   -7.0530  -17.5260 C.ar  335  HIS335      0.0817
    109  ND1      -17.0580   -6.8740  -18.8790 N.ar  335  HIS335     -0.2268
    110  CD2      -18.4880   -6.6620  -17.2480 C.ar  335  HIS335      0.1154
    111  CE1      -18.1720   -6.3900  -19.3980 C.ar  335  HIS335      0.1986
    112  NE2      -19.0620   -6.2310  -18.4290 N.ar  335  HIS335     -0.2212
    113  N        -21.7680  -13.5240  -24.5710 N.3   343  ILE343     -0.1245
    114  CA       -21.9040  -12.9690  -25.9170 C.3   343  ILE343      0.1561
    115  C        -21.0220  -13.7060  -26.9110 C.2   343  ILE343      0.2260
    116  O        -21.4950  -14.1240  -27.9710 O.2   343  ILE343     -0.2867
    117  CB       -21.5940  -11.4600  -25.9530 C.3   343  ILE343      0.0252
    118  CG1      -22.7710  -10.6770  -25.3540 C.3   343  ILE343      0.0019
    119  CG2      -21.3090  -10.9870  -27.3810 C.3   343  ILE343      0.0019
    120  CD1      -22.5890   -9.1700  -25.3120 C.3   343  ILE343      0.0001
@<TRIPOS>BOND
     1    75    73    1
     2    74    73    1
     3    73    72    2
     4    72    71    1
     5   116   115    2
     6   119   117    1
     7    71    70    1
     8   115   114    1
     9    70    69    1
    10    68    67    2
    11    67    66    1
    12   117   114    1
    13   117   118    1
    14   114   113    1
    15    69    66    1
    16   118   120    1
    17    78    79    2
    18    78    77    1
    19    66    65    1
    20    76    77    1
    21    57    56    2
    22    77    80    1
    23    56    55    1
    24    80    81    1
    25    84    85    1
    26    93    92    1
    27    63    61   ar
    28    63    64   ar
    29    61    59   ar
    30    87    86    2
    31    55    54    1
    32    55    58    1
    33    64    62   ar
    34    81    82    1
    35    81    83    1
    36    59    58    1
    37    59    60   ar
    38    85    86    1
    39    86    88   am
    40    92    89    1
    41    62    60   ar
    42    88    89    1
    43    89    90    1
    44   111   109   ar
    45   111   112   ar
    46    90    91    2
    47    90    94   am
    48   109   108   ar
    49    94    95    1
    50   100    99    1
    51   100   101    1
    52    35    36   ar
    53    35    33   ar
    54   106   105    2
    55    36    34   ar
    56    99    96   am
    57   112   110   ar
    58   101   102    2
    59   105   104    1
    60    33    31   ar
    61    34    32   ar
    62   108   110   ar
    63   108   107    1
    64     1     2    1
    65    18    17    1
    66    96    95    1
    67    96    97    2
    68    95    98    1
    69    47    45   ar
    70    47    46   ar
    71    31    32   ar
    72    31    30    1
    73    45    43   ar
    74   107   104    1
    75   104   103    1
    76    17    14    1
    77    46    44   ar
    78     2     5    1
    79     2     3    1
    80    30    27    1
    81     5     6    1
    82    43    42   ar
    83    13    14    1
    84     7     6   ar
    85     7     9   ar
    86    14    15    1
    87    44    42   ar
    88     3     4    2
    89     6     8   ar
    90    27    26    1
    91    27    28    1
    92    42    41    1
    93     9    11   ar
    94    15    16    2
    95    15    19   am
    96    25    23    1
    97    28    37   am
    98    28    29    2
    99    37    38    1
   100     8    10   ar
   101    53    52    1
   102    19    20    1
   103    41    38    1
   104    38    39    1
   105    11    10   ar
   106    11    12    1
   107    23    20    1
   108    23    24    1
   109    52    49    1
   110    20    21    1
   111    39    40    2
   112    49    48    1
   113    49    50    1
   114    21    22    2
   115    50    51    2
