@<TRIPOS>MOLECULE
tmp/5xe9B00.pdb
 124 119 0 0 0
SMALL
GASTEIGER

@<TRIPOS>ATOM
      1  N         11.8240   -9.1670    1.6970 N.3    46  GLU46      -0.1245
      2  CA        12.2620   -9.7490    2.9430 C.3    46  GLU46       0.1567
      3  C         12.0950   -8.6460    3.9890 C.2    46  GLU46       0.2260
      4  O         12.6390   -7.5460    3.8350 O.2    46  GLU46      -0.2867
      5  CB        13.7230  -10.1860    2.8400 C.3    46  GLU46       0.0388
      6  CG        14.1240  -11.1860    3.9120 C.3    46  GLU46       0.1160
      7  CD        15.6100  -11.1800    4.2250 C.2    46  GLU46       0.3649
      8  OE1       16.4070  -10.6720    3.4090 O.co2  46  GLU46      -0.2457
      9  OE2       15.9820  -11.6910    5.3030 O.co2  46  GLU46      -0.2457
     10  N         12.3210   -7.5100    8.0290 N.3    48  ARG48      -0.1245
     11  CA        12.7780   -7.6630    9.4140 C.3    48  ARG48       0.1563
     12  C         12.3310   -6.4090   10.1660 C.2    48  ARG48       0.2260
     13  O         12.6120   -5.2960    9.7450 O.2    48  ARG48      -0.2867
     14  CB        14.3050   -7.8320    9.4680 C.3    48  ARG48       0.0307
     15  CG        14.9760   -7.6000   10.8280 C.3    48  ARG48       0.0489
     16  CD        15.2100   -8.8850   11.6240 C.3    48  ARG48       0.2205
     17  NE        16.3350   -9.6710   11.1050 N.pl3  48  ARG48      -0.0865
     18  CZ        17.6200   -9.4710   11.4000 C.cat  48  ARG48       0.5346
     19  NH1       17.9870   -8.4980   12.2250 N.pl3  48  ARG48       0.1354
     20  NH2       18.5560  -10.2480   10.8600 N.pl3  48  ARG48       0.1354
     21  N         12.1600   -4.6960   14.1120 N.3    50  ILE50      -0.1231
     22  CA        12.6810   -4.8250   15.4390 C.3    50  ILE50       0.1692
     23  C         12.4770   -3.5690   16.2560 C.2    50  ILE50       0.2592
     24  O         12.3730   -2.4780   15.7090 O.2    50  ILE50      -0.2718
     25  CB        14.1730   -5.1700   15.4100 C.3    50  ILE50       0.0266
     26  CG1       14.9350   -4.1520   14.5830 C.3    50  ILE50       0.0019
     27  CG2       14.3870   -6.5870   14.8720 C.3    50  ILE50       0.0020
     28  CD1       16.3840   -4.5480   14.3690 C.3    50  ILE50       0.0001
     29  N         12.3930   -3.7610   17.5750 N.am   51  LYS51      -0.1966
     30  CA        12.4410   -2.6760   18.5270 C.3    51  LYS51       0.1728
     31  C         13.8770   -2.3690   18.7580 C.2    51  LYS51       0.2616
     32  O         14.6090   -3.2090   19.2860 O.2    51  LYS51      -0.2715
     33  CB        11.8380   -3.0460   19.8890 C.3    51  LYS51       0.0311
     34  CG        10.4010   -2.5800   20.0980 C.3    51  LYS51       0.0038
     35  CD        10.2110   -1.1020   20.2350 C.3    51  LYS51       0.0206
     36  CE        10.8570   -0.5470   21.3970 C.3    51  LYS51       0.1093
     37  NZ        10.0510   -0.5350   22.5170 N.3    51  LYS51      -0.1314
     38  N         14.3010   -1.1740   18.3840 N.am   52  ALA52      -0.1963
     39  CA        15.6240   -0.7450   18.7590 C.3    52  ALA52       0.1728
     40  C         15.5660    0.5170   19.5960 C.2    52  ALA52       0.2616
     41  O         14.4950    1.0560   19.8650 O.2    52  ALA52      -0.2715
     42  CB        16.4880   -0.5490   17.5230 C.3    52  ALA52       0.0334
     43  N         16.7520    0.9450   20.0210 N.am   53  ASP53      -0.1971
     44  CA        16.9880    2.2830   20.5520 C.3    53  ASP53       0.1709
     45  C         17.9670    3.0040   19.6090 C.2    53  ASP53       0.2293
     46  O         18.2320    2.5170   18.4990 O.2    53  ASP53      -0.2864
     47  CB        17.5170    2.1930   21.9880 C.3    53  ASP53       0.1436
     48  CG        18.8910    1.5990   22.0650 C.2    53  ASP53       0.3671
     49  OD1       19.6830    1.8740   21.1420 O.co2  53  ASP53      -0.2456
     50  OD2       19.2000    0.8740   23.0360 O.co2  53  ASP53      -0.2456
     51  N         21.1180    3.4090   19.6550 N.3    55  THR55      -0.1203
     52  CA        22.3230    2.6320   19.3560 C.3    55  THR55       0.1994
     53  C         22.2440    1.9670   17.9900 C.2    55  THR55       0.2617
     54  O         23.2520    1.7740   17.3460 O.2    55  THR55      -0.2717
     55  CB        22.5870    1.5130   20.3710 C.3    55  THR55       0.1784
     56  OG1       21.5160    0.5570   20.3120 O.3    55  THR55      -0.2211
     57  CG2       22.7760    2.0740   21.7860 C.3    55  THR55       0.0376
     58  N         21.0560    1.6250   17.5350 N.am   56  LEU56      -0.1979
     59  CA        20.9310    1.0630   16.2170 C.3    56  LEU56       0.1596
     60  C         21.7410    1.8110   15.1570 C.2    56  LEU56       0.2287
     61  O         22.3500    1.2010   14.2710 O.2    56  LEU56      -0.2864
     62  CB        19.4820    1.0900   15.8080 C.3    56  LEU56       0.0297
     63  CG        19.2230    0.4740   14.4410 C.3    56  LEU56       0.0022
     64  CD1       19.5110   -1.0170   14.4580 C.3    56  LEU56       0.0001
     65  CD2       17.7830    0.7580   14.0670 C.3    56  LEU56       0.0001
     66  N         25.5270    1.2080   13.8990 N.3    59  TYR59      -0.1241
     67  CA        25.8210   -0.0210   13.1880 C.3    59  TYR59       0.1605
     68  C         26.2250    0.2560   11.7550 C.2    59  TYR59       0.2264
     69  O         25.4750    0.8600   10.9780 O.2    59  TYR59      -0.2867
     70  CB        24.6330   -0.9690   13.2390 C.3    59  TYR59       0.0534
     71  CG        24.4400   -1.6050   14.5980 C.ar   59  TYR59      -0.0201
     72  CD1       24.2060   -0.8280   15.7140 C.ar   59  TYR59      -0.0009
     73  CD2       24.4870   -2.9800   14.7640 C.ar   59  TYR59      -0.0009
     74  CE1       24.0250   -1.3930   16.9530 C.ar   59  TYR59       0.0417
     75  CE2       24.3100   -3.5490   16.0070 C.ar   59  TYR59       0.0417
     76  CZ        24.0810   -2.7450   17.0960 C.ar   59  TYR59       0.1957
     77  OH        23.9070   -3.2760   18.3500 O.3    59  TYR59      -0.2866
     78  N         26.6720   -1.9150    9.4660 N.3    61  ASP61      -0.1225
     79  CA        25.8970   -2.7570    8.5500 C.3    61  ASP61       0.1805
     80  C         24.5960   -2.1010    8.0940 C.2    61  ASP61       0.2598
     81  O         23.9860   -2.5180    7.1110 O.2    61  ASP61      -0.2718
     82  CB        25.5560   -4.0910    9.2210 C.3    61  ASP61       0.1424
     83  CG        26.7680   -4.9630    9.4290 C.2    61  ASP61       0.3668
     84  OD1       27.8620   -4.4020    9.6590 O.co2  61  ASP61      -0.2456
     85  OD2       26.6240   -6.2050    9.3630 O.co2  61  ASP61      -0.2456
     86  N         24.1710   -1.0760    8.8110 N.am   62  LEU62      -0.1966
     87  CA        22.8190   -0.5820    8.6690 C.3    62  LEU62       0.1728
     88  C         22.3950   -0.4170    7.2040 C.2    62  LEU62       0.2616
     89  O         22.8310    0.5030    6.5060 O.2    62  LEU62      -0.2715
     90  CB        22.6540    0.7240    9.4440 C.3    62  LEU62       0.0311
     91  CG        21.2310    1.1320    9.7940 C.3    62  LEU62       0.0022
     92  CD1       20.4620   -0.0330   10.3760 C.3    62  LEU62       0.0001
     93  CD2       21.2610    2.2610   10.8010 C.3    62  LEU62       0.0001
     94  N         21.5310   -1.3230    6.7560 N.am   63  THR63      -0.1951
     95  CA        21.0500   -1.3070    5.3780 C.3    63  THR63       0.1897
     96  C         19.9880   -0.2310    5.2040 C.2    63  THR63       0.2313
     97  O         18.8310   -0.4670    5.5020 O.2    63  THR63      -0.2863
     98  CB        20.4540   -2.6760    4.9300 C.3    63  THR63       0.1794
     99  OG1       19.0660   -2.7590    5.2420 O.3    63  THR63      -0.2208
    100  CG2       21.1800   -3.8620    5.5550 C.3    63  THR63       0.0378
    101  N         13.0140   -3.1340    8.2910 N.3   119  PHE119     -0.1227
    102  CA        14.0340   -3.2090    7.2580 C.3   119  PHE119      0.1736
    103  C         13.5620   -4.0710    6.1310 C.2   119  PHE119      0.2595
    104  O         13.0240   -5.1550    6.3660 O.2   119  PHE119     -0.2718
    105  CB        15.2920   -3.8280    7.8150 C.3   119  PHE119      0.0547
    106  CG        15.9320   -3.0030    8.8520 C.ar  119  PHE119     -0.0202
    107  CD1       16.8020   -2.0080    8.4810 C.ar  119  PHE119     -0.0042
    108  CD2       15.6460   -3.1980   10.1930 C.ar  119  PHE119     -0.0042
    109  CE1       17.4060   -1.2080    9.4240 C.ar  119  PHE119     -0.0003
    110  CE2       16.2510   -2.4130   11.1520 C.ar  119  PHE119     -0.0003
    111  CZ        17.1310   -1.4050   10.7640 C.ar  119  PHE119     -0.0000
    112  N         13.8010   -3.6020    4.9080 N.am  120  LEU120     -0.1966
    113  CA        13.3860   -4.3170    3.7090 C.3   120  LEU120      0.1728
    114  C         14.5330   -4.5330    2.7460 C.2   120  LEU120      0.2616
    115  O         15.4440   -3.7020    2.6620 O.2   120  LEU120     -0.2715
    116  CB        12.2820   -3.5410    3.0020 C.3   120  LEU120      0.0311
    117  CG        11.0190   -3.3500    3.8460 C.3   120  LEU120      0.0022
    118  CD1        9.9630   -2.5970    3.0600 C.3   120  LEU120      0.0001
    119  CD2       10.4730   -4.6990    4.3180 C.3   120  LEU120      0.0001
    120  N         14.4790   -5.6600    2.0370 N.am  121  ALA121     -0.1977
    121  CA        15.3030   -5.8870    0.8490 C.3   121  ALA121      0.1597
    122  C         14.5780   -6.8120   -0.1320 C.2   121  ALA121      0.2287
    123  O         13.7350   -7.6390    0.2870 O.2   121  ALA121     -0.2864
    124  CB        16.6600   -6.4720    1.2210 C.3   121  ALA121      0.0319
@<TRIPOS>BOND
     1   122   123    2
     2   122   121    1
     3   121   124    1
     4   121   120    1
     5     1     2    1
     6   120   114   am
     7   115   114    2
     8   114   113    1
     9     5     2    1
    10     5     6    1
    11     2     3    1
    12   116   113    1
    13   116   117    1
    14   118   117    1
    15     8     7   ar
    16   113   112    1
    17     4     3    2
    18   117   119    1
    19     6     7    1
    20     7     9   ar
    21   112   103   am
    22    98    99    1
    23    98    95    1
    24    98   100    1
    25    96    95    1
    26    96    97    2
    27    95    94    1
    28   103   104    2
    29   103   102    1
    30    89    88    2
    31    94    88   am
    32    81    80    2
    33    88    87    1
    34   102   105    1
    35   102   101    1
    36   105   106    1
    37    10    11    1
    38    80    79    1
    39    80    86   am
    40   107   106   ar
    41   107   109   ar
    42    79    82    1
    43    79    78    1
    44    87    86    1
    45    87    90    1
    46   106   108   ar
    47    82    83    1
    48    85    83   ar
    49    11    14    1
    50    11    12    1
    51   109   111   ar
    52    83    84   ar
    53    90    91    1
    54    14    15    1
    55    13    12    2
    56    91    92    1
    57    91    93    1
    58   108   110   ar
    59   111   110   ar
    60    15    16    1
    61    20    18    1
    62    69    68    2
    63    17    18    2
    64    17    16    1
    65    18    19    1
    66    68    67    1
    67    67    70    1
    68    67    66    1
    69    70    71    1
    70    65    63    1
    71    21    22    1
    72    61    60    2
    73    28    26    1
    74    63    64    1
    75    63    62    1
    76    26    25    1
    77    71    73   ar
    78    71    72   ar
    79    73    75   ar
    80    27    25    1
    81    60    59    1
    82    25    22    1
    83    22    23    1
    84    24    23    2
    85    72    74   ar
    86    62    59    1
    87    75    76   ar
    88    59    58    1
    89    23    29   am
    90    74    76   ar
    91    76    77    1
    92    54    53    2
    93    42    39    1
    94    58    53   am
    95    29    30    1
    96    53    52    1
    97    38    31   am
    98    38    39    1
    99    46    45    2
   100    30    31    1
   101    30    33    1
   102    31    32    2
   103    39    40    1
   104    52    51    1
   105    52    55    1
   106    40    41    2
   107    40    43   am
   108    45    44    1
   109    33    34    1
   110    43    44    1
   111    34    35    1
   112    35    36    1
   113    56    55    1
   114    55    57    1
   115    44    47    1
   116    49    48   ar
   117    36    37    1
   118    47    48    1
   119    48    50   ar
