@<TRIPOS>MOLECULE
tmp/5xeaC02.pdb
 106 102 0 0 0
SMALL
GASTEIGER

@<TRIPOS>ATOM
      1  N         -3.2080   20.8890   68.6510 N.3    29  SER29      -0.1202
      2  CA        -4.4760   20.9420   67.9490 C.3    29  SER29       0.2020
      3  C         -4.2160   21.0080   66.4510 C.2    29  SER29       0.2619
      4  O         -3.3160   21.7140   65.9890 O.2    29  SER29      -0.2717
      5  CB        -5.3010   22.1500   68.3950 C.3    29  SER29       0.2103
      6  OG        -5.5560   22.1200   69.7900 O.3    29  SER29      -0.2182
      7  N         -5.0000   20.2530   65.6960 N.am   30  ALA30      -0.1965
      8  CA        -4.8110   20.1930   64.2600 C.3    30  ALA30       0.1728
      9  C         -6.1460   19.9060   63.6040 C.2    30  ALA30       0.2616
     10  O         -7.0110   19.2420   64.1820 O.2    30  ALA30      -0.2715
     11  CB        -3.7860   19.1230   63.8650 C.3    30  ALA30       0.0334
     12  N         -6.3140   20.4360   62.4000 N.am   31  THR31      -0.1951
     13  CA        -7.3740   19.9790   61.5210 C.3    31  THR31       0.1897
     14  C         -6.8160   18.8480   60.6730 C.2    31  THR31       0.2313
     15  O         -5.7720   19.0000   60.0290 O.2    31  THR31      -0.2863
     16  CB        -7.8910   21.1080   60.6320 C.3    31  THR31       0.1794
     17  OG1       -8.1670   22.2570   61.4330 O.3    31  THR31      -0.2208
     18  CG2       -9.1670   20.6820   59.9300 C.3    31  THR31       0.0378
     19  N         -7.3850   15.9100   57.7080 N.3    33  TYR33      -0.1241
     20  CA        -8.1220   15.5350   56.5080 C.3    33  TYR33       0.1605
     21  C         -7.7840   14.0890   56.1820 C.2    33  TYR33       0.2264
     22  O         -6.6090   13.7540   56.0030 O.2    33  TYR33      -0.2867
     23  CB        -7.7690   16.4690   55.3550 C.3    33  TYR33       0.0534
     24  CG        -8.2810   17.8850   55.5560 C.ar   33  TYR33      -0.0201
     25  CD1       -9.5270   18.2670   55.0730 C.ar   33  TYR33      -0.0009
     26  CD2       -7.5250   18.8340   56.2420 C.ar   33  TYR33      -0.0009
     27  CE1      -10.0060   19.5610   55.2550 C.ar   33  TYR33       0.0417
     28  CE2       -7.9930   20.1310   56.4260 C.ar   33  TYR33       0.0417
     29  CZ        -9.2380   20.4890   55.9340 C.ar   33  TYR33       0.1957
     30  OH        -9.7180   21.7730   56.1200 O.3    33  TYR33      -0.2866
     31  N         -1.3500   18.6980   50.2490 N.3   155  TRP155     -0.1241
     32  CA        -1.6690   20.1160   50.1670 C.3   155  TRP155      0.1605
     33  C         -1.2150   20.6620   48.8130 C.2   155  TRP155      0.2264
     34  O         -0.0330   20.5650   48.4630 O.2   155  TRP155     -0.2867
     35  CB        -0.9820   20.8900   51.2920 C.3   155  TRP155      0.0550
     36  CG        -1.5870   20.7230   52.6650 C.ar  155  TRP155      0.0003
     37  CD1       -1.0450   20.0460   53.7180 C.ar  155  TRP155      0.0946
     38  CD2       -2.8310   21.2520   53.1270 C.ar  155  TRP155      0.0152
     39  NE1       -1.8790   20.1140   54.8090 N.ar  155  TRP155     -0.2442
     40  CE2       -2.9800   20.8540   54.4770 C.ar  155  TRP155      0.0810
     41  CE3       -3.8290   22.0320   52.5400 C.ar  155  TRP155      0.0012
     42  CZ2       -4.0910   21.2050   55.2420 C.ar  155  TRP155      0.0191
     43  CZ3       -4.9300   22.3720   53.2940 C.ar  155  TRP155      0.0001
     44  CH2       -5.0560   21.9600   54.6350 C.ar  155  TRP155      0.0015
     45  N         -3.0950   25.3340   49.6410 N.3   158  ASN158     -0.1240
     46  CA        -4.1000   25.5040   50.6860 C.3   158  ASN158      0.1653
     47  C         -5.4050   24.7540   50.4200 C.2   158  ASN158      0.2266
     48  O         -6.4570   25.1430   50.9380 O.2   158  ASN158     -0.2867
     49  CB        -4.3830   26.9920   50.9320 C.3   158  ASN158      0.1155
     50  CG        -3.1500   27.7360   51.3890 C.2   158  ASN158      0.2627
     51  OD1       -2.4460   27.2820   52.2920 O.2   158  ASN158     -0.2716
     52  ND2       -2.8670   28.8710   50.7570 N.am  158  ASN158     -0.0877
     53  N        -13.0080   16.1300   57.1910 N.3   199  ARG199     -0.1245
     54  CA       -12.1620   16.9190   58.0720 C.3   199  ARG199      0.1563
     55  C        -12.6280   16.7800   59.5120 C.2   199  ARG199      0.2260
     56  O        -13.8180   16.6050   59.7860 O.2   199  ARG199     -0.2867
     57  CB       -12.1300   18.3970   57.6660 C.3   199  ARG199      0.0307
     58  CG       -13.4190   19.1640   57.8370 C.3   199  ARG199      0.0489
     59  CD       -13.1900   20.6430   57.5270 C.3   199  ARG199      0.2205
     60  NE       -12.6070   21.3620   58.6590 N.pl3 199  ARG199     -0.0865
     61  CZ       -12.0520   22.5700   58.5800 C.cat 199  ARG199      0.5346
     62  NH1      -11.9870   23.1980   57.4140 N.pl3 199  ARG199      0.1354
     63  NH2      -11.5520   23.1460   59.6690 N.pl3 199  ARG199      0.1354
     64  N        -11.4450   18.2420   63.6590 N.3   201  GLU201     -0.1245
     65  CA       -10.5510   18.8570   64.6290 C.3   201  GLU201      0.1567
     66  C        -10.0950   17.7690   65.5880 C.2   201  GLU201      0.2260
     67  O        -10.9240   17.0550   66.1610 O.2   201  GLU201     -0.2867
     68  CB       -11.2420   19.9980   65.3660 C.3   201  GLU201      0.0388
     69  CG       -11.6730   21.1260   64.4580 C.3   201  GLU201      0.1160
     70  CD       -10.5120   21.7160   63.6800 C.2   201  GLU201      0.3649
     71  OE1       -9.4040   21.8220   64.2530 O.co2 201  GLU201     -0.2457
     72  OE2      -10.7060   22.0650   62.4940 O.co2 201  GLU201     -0.2457
     73  N          1.6330   23.0420   57.7890 N.3   231  GLN231     -0.1245
     74  CA         0.8140   22.3440   56.8040 C.3   231  GLN231      0.1566
     75  C          1.5790   21.0950   56.3860 C.2   231  GLN231      0.2260
     76  O          2.7040   21.1960   55.8870 O.2   231  GLN231     -0.2867
     77  CB         0.5330   23.2290   55.5900 C.3   231  GLN231      0.0367
     78  CG        -0.8710   23.7980   55.5120 C.3   231  GLN231      0.0905
     79  CD        -1.1630   24.4460   54.1590 C.2   231  GLN231      0.2608
     80  OE1       -0.3190   24.4470   53.2560 O.2   231  GLN231     -0.2717
     81  NE2       -2.3630   24.9930   54.0170 N.am  231  GLN231     -0.0878
     82  N         -3.1580   20.6200   59.2670 N.3   240  ASN240     -0.1225
     83  CA        -2.7320   21.9900   59.5630 C.3   240  ASN240      0.1785
     84  C         -2.6730   22.1410   61.0780 C.2   240  ASN240      0.2597
     85  O         -3.7060   22.0550   61.7540 O.2   240  ASN240     -0.2718
     86  CB        -3.6900   23.0340   58.9760 C.3   240  ASN240      0.1169
     87  CG        -5.1100   22.5790   59.0630 C.2   240  ASN240      0.2627
     88  OD1       -5.3470   21.3890   58.8930 O.2   240  ASN240     -0.2716
     89  ND2       -6.0700   23.4620   59.3630 N.am  240  ASN240     -0.0877
     90  N         -1.4730   22.3500   61.6080 N.am  241  PHE241     -0.1962
     91  CA        -1.3000   22.6260   63.0260 C.3   241  PHE241      0.1771
     92  C         -1.3920   24.1350   63.2880 C.2   241  PHE241      0.2620
     93  O         -1.4790   24.9480   62.3630 O.2   241  PHE241     -0.2715
     94  CB         0.0320   22.0620   63.5200 C.3   241  PHE241      0.0574
     95  CG         0.1310   20.5610   63.4360 C.ar  241  PHE241     -0.0200
     96  CD1        0.5720   19.9460   62.2760 C.ar  241  PHE241     -0.0042
     97  CD2       -0.1910   19.7640   64.5270 C.ar  241  PHE241     -0.0042
     98  CE1        0.6790   18.5690   62.2030 C.ar  241  PHE241     -0.0003
     99  CE2       -0.0850   18.3810   64.4550 C.ar  241  PHE241     -0.0003
    100  CZ         0.3490   17.7880   63.2890 C.ar  241  PHE241     -0.0000
    101  N         -1.3710   24.5120   64.5720 N.am  242  SER242     -0.1950
    102  CA        -1.6200   25.9070   64.9270 C.3   242  SER242      0.1924
    103  C         -0.4250   26.5780   65.5960 C.2   242  SER242      0.2314
    104  O          0.3380   27.2970   64.9420 O.2   242  SER242     -0.2863
    105  CB        -2.8500   26.0040   65.8310 C.3   242  SER242      0.2116
    106  OG        -3.1780   27.3590   66.0830 O.3   242  SER242     -0.2180
@<TRIPOS>BOND
     1    34    33    2
     2    33    32    1
     3    45    46    1
     4    32    31    1
     5    32    35    1
     6    47    46    1
     7    47    48    2
     8    46    49    1
     9    52    50   am
    10    49    50    1
    11    35    36    1
    12    50    51    2
    13    41    38   ar
    14    41    43   ar
    15    36    38   ar
    16    36    37   ar
    17    38    40   ar
    18    80    79    2
    19    43    44   ar
    20    37    39   ar
    21    81    79   am
    22    79    78    1
    23    40    39   ar
    24    40    42   ar
    25    44    42   ar
    26    25    27   ar
    27    25    24   ar
    28    27    29   ar
    29    23    24    1
    30    23    20    1
    31    78    77    1
    32    24    26   ar
    33    77    74    1
    34    76    75    2
    35    29    30    1
    36    29    28   ar
    37    22    21    2
    38    21    20    1
    39    26    28   ar
    40    75    74    1
    41    20    19    1
    42    74    73    1
    43    53    54    1
    44    62    61    1
    45    59    58    1
    46    59    60    1
    47    57    58    1
    48    57    54    1
    49    54    55    1
    50    61    60    2
    51    61    63    1
    52    88    87    2
    53    86    87    1
    54    86    83    1
    55    87    89   am
    56    82    83    1
    57    55    56    2
    58    83    84    1
    59    18    16    1
    60    15    14    2
    61    16    17    1
    62    16    13    1
    63    14    13    1
    64    84    90   am
    65    84    85    2
    66    13    12    1
    67    90    91    1
    68    98    96   ar
    69    98   100   ar
    70    96    95   ar
    71    93    92    2
    72    12     9   am
    73    72    70   ar
    74    91    92    1
    75    91    94    1
    76    92   101   am
    77   100    99   ar
    78    95    94    1
    79    95    97   ar
    80     9    10    2
    81     9     8    1
    82    64    65    1
    83    70    71   ar
    84    70    69    1
    85    11     8    1
    86     8     7    1
    87    99    97   ar
    88    69    68    1
    89   101   102    1
    90    65    68    1
    91    65    66    1
    92   102   103    1
    93   102   105    1
    94   104   103    2
    95    66    67    2
    96     7     3   am
    97   105   106    1
    98     4     3    2
    99     3     2    1
   100     2     5    1
   101     2     1    1
   102     5     6    1
