@<TRIPOS>MOLECULE
tmp/5xeaB02.pdb
 95 92 0 0 0
SMALL
GASTEIGER

@<TRIPOS>ATOM
      1  N          3.8200  -26.8290   71.1890 N.3    31  THR31      -0.1218
      2  CA         4.5050  -27.7590   70.3080 C.3    31  THR31       0.1862
      3  C          5.0320  -26.9650   69.1190 C.2    31  THR31       0.2287
      4  O          4.2620  -26.3000   68.4190 O.2    31  THR31      -0.2866
      5  CB         3.5670  -28.8710   69.8440 C.3    31  THR31       0.1770
      6  OG1        2.9760  -29.5140   70.9820 O.3    31  THR31      -0.2211
      7  CG2        4.3360  -29.8980   69.0390 C.3    31  THR31       0.0375
      8  N          7.1990  -26.9730   65.5200 N.3    33  TYR33      -0.1241
      9  CA         7.6680  -27.7560   64.3830 C.3    33  TYR33       0.1605
     10  C          8.6130  -26.8950   63.5570 C.2    33  TYR33       0.2264
     11  O          8.2180  -25.8290   63.0760 O.2    33  TYR33      -0.2867
     12  CB         6.5000  -28.2230   63.5220 C.3    33  TYR33       0.0534
     13  CG         5.4660  -29.0430   64.2440 C.ar   33  TYR33      -0.0201
     14  CD1        5.5420  -30.4340   64.2630 C.ar   33  TYR33      -0.0009
     15  CD2        4.4000  -28.4340   64.8930 C.ar   33  TYR33      -0.0009
     16  CE1        4.5840  -31.1980   64.9240 C.ar   33  TYR33       0.0417
     17  CE2        3.4400  -29.1830   65.5480 C.ar   33  TYR33       0.0417
     18  CZ         3.5360  -30.5660   65.5630 C.ar   33  TYR33       0.1957
     19  OH         2.5790  -31.3090   66.2170 O.3    33  TYR33      -0.2866
     20  N          0.1840  -24.6830   58.6460 N.3   155  TRP155     -0.1241
     21  CA        -0.8070  -25.6420   59.1080 C.3   155  TRP155      0.1605
     22  C         -1.8470  -25.8490   58.0220 C.2   155  TRP155      0.2264
     23  O         -2.4910  -24.8870   57.5940 O.2   155  TRP155     -0.2867
     24  CB        -1.5010  -25.1530   60.3730 C.3   155  TRP155      0.0550
     25  CG        -0.7120  -25.2360   61.6310 C.ar  155  TRP155      0.0003
     26  CD1       -0.1210  -24.2090   62.2760 C.ar  155  TRP155      0.0946
     27  CD2       -0.4880  -26.4000   62.4370 C.ar  155  TRP155      0.0152
     28  NE1        0.4890  -24.6490   63.4150 N.ar  155  TRP155     -0.2442
     29  CE2        0.2760  -25.9950   63.5420 C.ar  155  TRP155      0.0810
     30  CE3       -0.8510  -27.7480   62.3230 C.ar  155  TRP155      0.0012
     31  CZ2        0.6850  -26.8870   64.5450 C.ar  155  TRP155      0.0191
     32  CZ3       -0.4390  -28.6330   63.3100 C.ar  155  TRP155      0.0001
     33  CH2        0.3220  -28.1980   64.4030 C.ar  155  TRP155      0.0015
     34  N         -4.7850  -29.4650   60.3170 N.3   158  ASN158     -0.1240
     35  CA        -4.2100  -30.0200   61.5400 C.3   158  ASN158      0.1653
     36  C         -2.8870  -30.7440   61.3200 C.2   158  ASN158      0.2266
     37  O         -2.4570  -31.5090   62.1930 O.2   158  ASN158     -0.2867
     38  CB        -5.2050  -30.9470   62.2460 C.3   158  ASN158      0.1155
     39  CG        -6.5630  -30.3060   62.4150 C.2   158  ASN158      0.2627
     40  OD1       -6.6720  -29.2000   62.9410 O.2   158  ASN158     -0.2716
     41  ND2       -7.6070  -30.9850   61.9460 N.am  158  ASN158     -0.0877
     42  N          9.5300  -32.1810   65.5720 N.3   199  ARG199     -0.1245
     43  CA         8.5860  -31.7870   66.6100 C.3   199  ARG199      0.1563
     44  C          9.3190  -31.6090   67.9360 C.2   199  ARG199      0.2260
     45  O         10.3270  -32.2700   68.1960 O.2   199  ARG199     -0.2867
     46  CB         7.4850  -32.8440   66.7350 C.3   199  ARG199      0.0307
     47  CG         6.4270  -32.5840   67.7810 C.3   199  ARG199      0.0489
     48  CD         5.6940  -33.8720   68.1230 C.3   199  ARG199      0.2205
     49  NE         4.7940  -33.7010   69.2570 N.pl3 199  ARG199     -0.0865
     50  CZ         3.4710  -33.7820   69.1770 C.cat 199  ARG199      0.5346
     51  NH1        2.8900  -34.0410   68.0120 N.pl3 199  ARG199      0.1354
     52  NH2        2.7280  -33.6120   70.2640 N.pl3 199  ARG199      0.1354
     53  N         -3.0650  -22.0630   66.8600 N.3   233  GLN233     -0.1245
     54  CA        -2.3820  -22.8700   65.8610 C.3   233  GLN233      0.1566
     55  C         -1.8420  -21.9100   64.8050 C.2   233  GLN233      0.2260
     56  O         -2.6120  -21.3120   64.0460 O.2   233  GLN233     -0.2867
     57  CB        -3.3580  -23.8810   65.2710 C.3   233  GLN233      0.0367
     58  CG        -2.7450  -24.9910   64.4850 C.3   233  GLN233      0.0905
     59  CD        -3.7050  -26.1440   64.3290 C.2   233  GLN233      0.2608
     60  OE1       -3.9970  -26.8500   65.2940 O.2   233  GLN233     -0.2717
     61  NE2       -4.2270  -26.3260   63.1200 N.am  233  GLN233     -0.0878
     62  N          1.8330  -24.9110   68.0040 N.3   242  ASN242     -0.1225
     63  CA         0.5270  -25.2930   68.5310 C.3   242  ASN242      0.1785
     64  C          0.5700  -24.9760   70.0250 C.2   242  ASN242      0.2597
     65  O          1.1900  -25.7080   70.8050 O.2   242  ASN242     -0.2718
     66  CB         0.2130  -26.7600   68.2670 C.3   242  ASN242      0.1169
     67  CG        -1.1860  -27.1370   68.6940 C.2   242  ASN242      0.2627
     68  OD1       -2.1160  -26.3420   68.5850 O.2   242  ASN242     -0.2716
     69  ND2       -1.3430  -28.3560   69.1870 N.am  242  ASN242     -0.0877
     70  N         -0.0450  -23.8560   70.4000 N.am  243  PHE243     -0.1962
     71  CA        -0.0930  -23.4000   71.7810 C.3   243  PHE243      0.1771
     72  C         -1.2700  -24.0600   72.4840 C.2   243  PHE243      0.2620
     73  O         -2.3740  -24.1240   71.9280 O.2   243  PHE243     -0.2715
     74  CB        -0.2500  -21.8780   71.8510 C.3   243  PHE243      0.0574
     75  CG         0.9710  -21.1120   71.4370 C.ar  243  PHE243     -0.0200
     76  CD1        1.8730  -20.6550   72.3830 C.ar  243  PHE243     -0.0042
     77  CD2        1.2090  -20.8300   70.1020 C.ar  243  PHE243     -0.0042
     78  CE1        2.9930  -19.9440   72.0080 C.ar  243  PHE243     -0.0003
     79  CE2        2.3270  -20.1170   69.7230 C.ar  243  PHE243     -0.0003
     80  CZ         3.2250  -19.6770   70.6800 C.ar  243  PHE243     -0.0000
     81  N         -1.0360  -24.5400   73.7030 N.am  244  SER244     -0.1936
     82  CA        -2.1410  -24.9970   74.5390 C.3   244  SER244      0.2055
     83  C         -3.1360  -23.8620   74.7160 C.2   244  SER244      0.2642
     84  O         -2.7630  -22.7590   75.1320 O.2   244  SER244     -0.2714
     85  CB        -1.6240  -25.4740   75.8950 C.3   244  SER244      0.2130
     86  OG        -2.6500  -26.1260   76.6200 O.3   244  SER244     -0.2179
     87  N         -4.3980  -24.1180   74.3730 N.am  245  LYS245     -0.1977
     88  CA        -5.3640  -23.0310   74.3380 C.3   245  LYS245      0.1596
     89  C         -6.0070  -22.7680   75.6920 C.2   245  LYS245      0.2287
     90  O         -6.5490  -21.6780   75.8970 O.2   245  LYS245     -0.2864
     91  CB        -6.4370  -23.3020   73.2780 C.3   245  LYS245      0.0298
     92  CG        -7.5450  -24.2380   73.7040 C.3   245  LYS245      0.0038
     93  CD        -8.6170  -24.3280   72.6250 C.3   245  LYS245      0.0206
     94  CE        -9.5940  -25.4580   72.9210 C.3   245  LYS245      0.1093
     95  NZ        -8.9400  -26.8000   72.8620 N.3   245  LYS245     -0.1314
@<TRIPOS>BOND
     1    23    22    2
     2    22    21    1
     3    20    21    1
     4    21    24    1
     5    34    35    1
     6    24    25    1
     7    36    35    1
     8    36    37    2
     9    35    38    1
    10    25    26   ar
    11    25    27   ar
    12    41    39   am
    13    38    39    1
    14    26    28   ar
    15    30    27   ar
    16    30    32   ar
    17    39    40    2
    18    27    29   ar
    19    11    10    2
    20    61    59   am
    21    32    33   ar
    22    28    29   ar
    23    12    13    1
    24    12     9    1
    25    29    31   ar
    26    10     9    1
    27    56    55    2
    28    13    14   ar
    29    13    15   ar
    30    14    16   ar
    31    59    58    1
    32    59    60    2
    33     9     8    1
    34    33    31   ar
    35    58    57    1
    36    55    54    1
    37    15    17   ar
    38    16    18   ar
    39    57    54    1
    40    17    18   ar
    41    18    19    1
    42    42    43    1
    43    54    53    1
    44    43    46    1
    45    43    44    1
    46    46    47    1
    47    47    48    1
    48    44    45    2
    49    62    63    1
    50    51    50    1
    51    48    49    1
    52    66    63    1
    53    66    67    1
    54     4     3    2
    55    63    64    1
    56    68    67    2
    57    67    69   am
    58     7     5    1
    59     3     2    1
    60    50    49    2
    61    50    52    1
    62    79    77   ar
    63    79    80   ar
    64     5     2    1
    65     5     6    1
    66    64    70   am
    67    64    65    2
    68    77    75   ar
    69     2     1    1
    70    70    71    1
    71    80    78   ar
    72    75    74    1
    73    75    76   ar
    74    71    74    1
    75    71    72    1
    76    73    72    2
    77    78    76   ar
    78    72    81   am
    79    93    94    1
    80    93    92    1
    81    95    94    1
    82    91    92    1
    83    91    88    1
    84    81    82    1
    85    88    87    1
    86    88    89    1
    87    87    83   am
    88    82    83    1
    89    82    85    1
    90    83    84    2
    91    89    90    2
    92    85    86    1
