@<TRIPOS>MOLECULE
tmp/5xegA00.pdb
 162 152 0 0 0
SMALL
GASTEIGER

@<TRIPOS>ATOM
      1  N         19.5460   31.5260    9.2650 N.3    42  ARG42      -0.1245
      2  CA        20.8850   32.0530    9.3200 C.3    42  ARG42       0.1563
      3  C         21.3540   32.3160    7.9290 C.2    42  ARG42       0.2260
      4  O         21.1070   31.5040    7.0460 O.2    42  ARG42      -0.2867
      5  CB        21.8750   31.0560    9.9610 C.3    42  ARG42       0.0307
      6  CG        21.6970   30.8530   11.4810 C.3    42  ARG42       0.0489
      7  CD        21.9660   32.0910   12.3500 C.3    42  ARG42       0.2205
      8  NE        23.3450   32.4920   12.2080 N.pl3  42  ARG42      -0.0865
      9  CZ        24.3640   32.2400   13.0220 C.cat  42  ARG42       0.5346
     10  NH1       24.2070   31.7470   14.2520 N.pl3  42  ARG42       0.1354
     11  NH2       25.5480   32.5900   12.6110 N.pl3  42  ARG42       0.1354
     12  N         21.3420   39.6320   18.8130 N.3    58  TRP58      -0.1241
     13  CA        21.4190   39.6690   17.3530 C.3    58  TRP58       0.1605
     14  C         20.2390   38.8540   16.7850 C.2    58  TRP58       0.2264
     15  O         20.2400   37.6250   16.8490 O.2    58  TRP58      -0.2867
     16  CB        22.7480   39.0940   16.8660 C.3    58  TRP58       0.0550
     17  CG        22.8360   38.9700   15.3760 C.ar   58  TRP58       0.0003
     18  CD1       22.7790   39.9830   14.4640 C.ar   58  TRP58       0.0946
     19  CD2       22.9970   37.7610   14.6230 C.ar   58  TRP58       0.0152
     20  NE1       22.8950   39.4800   13.1900 N.ar   58  TRP58      -0.2442
     21  CE2       23.0290   38.1190   13.2610 C.ar   58  TRP58       0.0810
     22  CE3       23.1160   36.4110   14.9690 C.ar   58  TRP58       0.0012
     23  CZ2       23.1760   37.1760   12.2450 C.ar   58  TRP58       0.0191
     24  CZ3       23.2620   35.4780   13.9590 C.ar   58  TRP58       0.0001
     25  CH2       23.2910   35.8640   12.6140 C.ar   58  TRP58       0.0015
     26  N         28.0720   36.0950   20.1300 N.3   115  LEU115     -0.1245
     27  CA        27.1670   35.0940   19.6460 C.3   115  LEU115      0.1561
     28  C         27.7890   33.7360   20.0540 C.2   115  LEU115      0.2260
     29  O         28.9630   33.4300   19.7100 O.2   115  LEU115     -0.2867
     30  CB        27.0780   35.2020   18.1570 C.3   115  LEU115      0.0270
     31  CG        25.9430   34.6010   17.3800 C.3   115  LEU115      0.0019
     32  CD1       26.2390   34.8270   15.8960 C.3   115  LEU115      0.0001
     33  CD2       25.6590   33.1530   17.7050 C.3   115  LEU115      0.0001
     34  N         27.2900   29.8830   19.4900 N.3   117  ASN117     -0.1240
     35  CA        26.7890   28.8940   18.5720 C.3   117  ASN117      0.1653
     36  C         27.1330   27.5100   19.1170 C.2   117  ASN117      0.2266
     37  O         28.3160   27.2290   19.4180 O.2   117  ASN117     -0.2867
     38  CB        27.5130   29.0520   17.2110 C.3   117  ASN117      0.1155
     39  CG        27.1470   30.2990   16.4770 C.2   117  ASN117      0.2627
     40  OD1       25.9710   30.5060   16.1380 O.2   117  ASN117     -0.2716
     41  ND2       28.1310   31.1370   16.1950 N.am  117  ASN117     -0.0877
     42  N         27.0240   23.5730   17.8440 N.3   119  TYR119     -0.1241
     43  CA        26.7980   22.6340   16.7750 C.3   119  TYR119      0.1605
     44  C         26.8590   21.2060   17.3060 C.2   119  TYR119      0.2264
     45  O         27.8150   20.8960   18.0220 O.2   119  TYR119     -0.2867
     46  CB        27.9450   22.7500   15.7660 C.3   119  TYR119      0.0534
     47  CG        28.1710   24.0730   15.1200 C.ar  119  TYR119     -0.0201
     48  CD1       28.8670   25.0850   15.8020 C.ar  119  TYR119     -0.0009
     49  CD2       27.7580   24.3110   13.8060 C.ar  119  TYR119     -0.0009
     50  CE1       29.1100   26.3170   15.2390 C.ar  119  TYR119      0.0417
     51  CE2       27.9770   25.5790   13.2440 C.ar  119  TYR119      0.0417
     52  CZ        28.7130   26.5300   13.9500 C.ar  119  TYR119      0.1957
     53  OH        28.9010   27.7280   13.3140 O.3   119  TYR119     -0.2866
     54  N         27.3700   25.5820    8.9840 N.3   125  LEU125     -0.1245
     55  CA        26.9360   27.0020    8.8470 C.3   125  LEU125      0.1561
     56  C         27.4890   27.4760    7.5160 C.2   125  LEU125      0.2260
     57  O         28.7040   27.4130    7.3180 O.2   125  LEU125     -0.2867
     58  CB        27.4690   27.8650    9.9750 C.3   125  LEU125      0.0270
     59  CG        27.0350   29.3350    9.9590 C.3   125  LEU125      0.0019
     60  CD1       25.5380   29.5410    9.9290 C.3   125  LEU125      0.0001
     61  CD2       27.7020   30.1210   11.0780 C.3   125  LEU125      0.0001
     62  N         28.9510   33.1910    4.7300 N.3   128  HIS128     -0.1241
     63  CA        28.3040   34.4820    4.9050 C.3   128  HIS128      0.1621
     64  C         29.3640   35.4830    5.3450 C.2   128  HIS128      0.2264
     65  O         30.4510   35.0830    5.7950 O.2   128  HIS128     -0.2867
     66  CB        27.1940   34.4260    6.0060 C.3   128  HIS128      0.0745
     67  CG        27.7470   34.0900    7.3410 C.ar  128  HIS128      0.0817
     68  ND1       28.1540   32.8070    7.6470 N.ar  128  HIS128     -0.2268
     69  CD2       28.1010   34.8620    8.3870 C.ar  128  HIS128      0.1154
     70  CE1       28.6970   32.8100    8.8460 C.ar  128  HIS128      0.1986
     71  NE2       28.7140   34.0420    9.2920 N.ar  128  HIS128     -0.2212
     72  N         29.9130   38.7600    8.0760 N.3   130  ASP130     -0.1239
     73  CA        29.4480   39.4410    9.2990 C.3   130  ASP130      0.1674
     74  C         29.2790   40.8880    8.8940 C.2   130  ASP130      0.2266
     75  O         30.1490   41.7100    9.0110 O.2   130  ASP130     -0.2867
     76  CB        30.4400   39.2790   10.4460 C.3   130  ASP130      0.1410
     77  CG        30.4400   37.8500   11.0350 C.2   130  ASP130      0.3668
     78  OD1       29.7510   36.9330   10.5470 O.co2 130  ASP130     -0.2456
     79  OD2       31.1350   37.6940   12.0200 O.co2 130  ASP130     -0.2456
     80  N         36.9150   34.9820   17.5320 N.3   146  SER146     -0.1217
     81  CA        36.1310   33.7460   17.6120 C.3   146  SER146      0.1889
     82  C         36.8700   32.6820   18.4390 C.2   146  SER146      0.2288
     83  O         38.0130   32.3050   18.1030 O.2   146  SER146     -0.2866
     84  CB        35.9160   33.1980   16.2170 C.3   146  SER146      0.2089
     85  OG        35.4330   31.8470   16.1520 O.3   146  SER146     -0.2183
     86  N         36.6670   25.1230    8.9210 N.3   155  PHE155     -0.1241
     87  CA        36.1970   26.4900    8.7260 C.3   155  PHE155      0.1605
     88  C         36.6020   26.9560    7.3520 C.2   155  PHE155      0.2264
     89  O         37.8030   26.9120    6.9830 O.2   155  PHE155     -0.2867
     90  CB        36.8440   27.3590    9.8200 C.3   155  PHE155      0.0534
     91  CG        36.4490   28.7880    9.8200 C.ar  155  PHE155     -0.0203
     92  CD1       35.2500   29.1870   10.4100 C.ar  155  PHE155     -0.0042
     93  CD2       37.2900   29.7600    9.2830 C.ar  155  PHE155     -0.0042
     94  CE1       34.9020   30.5350   10.4350 C.ar  155  PHE155     -0.0003
     95  CE2       36.9230   31.0930    9.2970 C.ar  155  PHE155     -0.0003
     96  CZ        35.7810   31.4850    9.9150 C.ar  155  PHE155     -0.0000
     97  N         39.6870   24.5900   12.9720 N.3   171  LEU171     -0.1245
     98  CA        39.6040   25.2690   14.2500 C.3   171  LEU171      0.1561
     99  C         39.3890   24.2200   15.2720 C.2   171  LEU171      0.2260
    100  O         38.3470   23.5530   15.3010 O.2   171  LEU171     -0.2867
    101  CB        38.4780   26.2930   14.2390 C.3   171  LEU171      0.0270
    102  CG        38.6380   27.3800   13.1480 C.3   171  LEU171      0.0019
    103  CD1       37.4240   28.3330   13.2190 C.3   171  LEU171      0.0001
    104  CD2       39.8890   28.1900   13.3420 C.3   171  LEU171      0.0001
    105  N         32.6500   33.3800    5.2140 N.3   188  HIS188     -0.1226
    106  CA        33.1790   32.3530    6.0760 C.3   188  HIS188      0.1752
    107  C         32.0460   31.4680    6.5650 C.2   188  HIS188      0.2597
    108  O         30.8510   31.8160    6.4630 O.2   188  HIS188     -0.2718
    109  CB        33.9740   32.9120    7.2740 C.3   188  HIS188      0.0759
    110  CG        33.1600   33.7990    8.1310 C.ar  188  HIS188      0.0818
    111  ND1       32.8660   35.1110    7.7740 N.ar  188  HIS188     -0.2268
    112  CD2       32.4790   33.5580    9.2730 C.ar  188  HIS188      0.1154
    113  CE1       32.0580   35.6290    8.6660 C.ar  188  HIS188      0.1986
    114  NE2       31.8590   34.7400    9.6190 N.ar  188  HIS188     -0.2212
    115  N         32.4320   30.2850    6.9990 N.am  189  GLY189     -0.1942
    116  CA        31.4080   29.3750    7.5010 C.3   189  GLY189      0.2014
    117  C         32.0440   28.0630    7.9890 C.2   189  GLY189      0.2638
    118  O         33.2490   27.9390    8.0160 O.2   189  GLY189     -0.2714
    119  N         31.1980   27.1210    8.4080 N.am  190  VAL190     -0.1977
    120  CA        31.6520   25.8620    9.0060 C.3   190  VAL190      0.1596
    121  C         31.0890   24.7290    8.0970 C.2   190  VAL190      0.2287
    122  O         29.8820   24.5730    7.9960 O.2   190  VAL190     -0.2864
    123  CB        31.1740   25.7260   10.4680 C.3   190  VAL190      0.0276
    124  CG1       31.5290   24.3390   10.9860 C.3   190  VAL190      0.0022
    125  CG2       31.8240   26.7610   11.3360 C.3   190  VAL190      0.0022
    126  N         30.4950   21.0320   19.1230 N.3   212  ARG212     -0.1245
    127  CA        31.4160   22.1620   19.1810 C.3   212  ARG212      0.1563
    128  C         30.7080   23.4150   19.6850 C.2   212  ARG212      0.2260
    129  O         29.5900   23.7030   19.2510 O.2   212  ARG212     -0.2867
    130  CB        31.9760   22.4690   17.8060 C.3   212  ARG212      0.0307
    131  CG        32.8500   23.6970   17.7580 C.3   212  ARG212      0.0489
    132  CD        33.4880   23.8270   16.3860 C.3   212  ARG212      0.2205
    133  NE        34.1830   25.1160   16.2250 N.pl3 212  ARG212     -0.0865
    134  CZ        33.6670   26.2360   15.6820 C.cat 212  ARG212      0.5346
    135  NH1       32.4310   26.3080   15.1900 N.pl3 212  ARG212      0.1354
    136  NH2       34.4220   27.3170   15.6080 N.pl3 212  ARG212      0.1354
    137  N         31.1370   27.4880   19.8100 N.3   214  ASN214     -0.1240
    138  CA        31.8410   28.6450   19.2980 C.3   214  ASN214      0.1653
    139  C         31.3000   29.8730   20.0120 C.2   214  ASN214      0.2266
    140  O         30.1050   29.9350   20.2790 O.2   214  ASN214     -0.2867
    141  CB        31.5770   28.7800   17.7940 C.3   214  ASN214      0.1155
    142  CG        31.8990   30.1730   17.2650 C.2   214  ASN214      0.2627
    143  OD1       31.0230   30.9900   17.0270 O.2   214  ASN214     -0.2716
    144  ND2       33.1850   30.4530   17.1000 N.am  214  ASN214     -0.0877
    145  N         31.5310   34.0010   19.2560 N.3   216  THR216     -0.1218
    146  CA        31.9850   34.9580   18.2780 C.3   216  THR216      0.1862
    147  C         31.6790   36.3600   18.8350 C.2   216  THR216      0.2287
    148  O         30.5170   36.6590   19.0790 O.2   216  THR216     -0.2866
    149  CB        31.2900   34.7310   16.9420 C.3   216  THR216      0.1770
    150  OG1       31.8320   33.5020   16.4210 O.3   216  THR216     -0.2211
    151  CG2       31.6170   35.8670   15.9960 C.3   216  THR216      0.0375
    152  N         31.9750   40.6080   18.6710 N.3   218  ARG218     -0.1245
    153  CA        32.0220   41.7270   17.7580 C.3   218  ARG218      0.1563
    154  C         31.6530   43.0410   18.5020 C.2   218  ARG218      0.2260
    155  O         31.1740   42.9730   19.6230 O.2   218  ARG218     -0.2867
    156  CB        31.0110   41.5110   16.6210 C.3   218  ARG218      0.0307
    157  CG        31.2090   40.1800   15.8750 C.3   218  ARG218      0.0489
    158  CD        30.5140   40.1120   14.5350 C.3   218  ARG218      0.2205
    159  NE        29.1100   39.8390   14.7190 N.pl3 218  ARG218     -0.0865
    160  CZ        28.4660   38.6810   14.5000 C.cat 218  ARG218      0.5346
    161  NH1       29.0380   37.5820   14.0550 N.pl3 218  ARG218      0.1354
    162  NH2       27.1770   38.6580   14.7480 N.pl3 218  ARG218      0.1354
@<TRIPOS>BOND
     1    62    63    1
     2    63    64    1
     3    63    66    1
     4   105   106    1
     5    64    65    2
     6    66    67    1
     7   106   107    1
     8   106   109    1
     9   108   107    2
    10   107   115   am
    11    89    88    2
    12   115   116    1
    13     4     3    2
    14   109   110    1
    15    57    56    2
    16    67    68   ar
    17    67    69   ar
    18    88    87    1
    19   116   117    1
    20    56    55    1
    21    68    70   ar
    22   111   110   ar
    23   111   113   ar
    24     3     2    1
    25   117   118    2
    26   117   119   am
    27   122   121    2
    28    72    73    1
    29   121   120    1
    30   110   112   ar
    31    69    71   ar
    32   119   120    1
    33   113   114   ar
    34    87    86    1
    35    87    90    1
    36    70    71   ar
    37    55    54    1
    38    55    58    1
    39    74    75    2
    40    74    73    1
    41   120   123    1
    42     1     2    1
    43   112   114   ar
    44    93    95   ar
    45    93    91   ar
    46    95    96   ar
    47    73    76    1
    48     2     5    1
    49    90    91    1
    50    91    92   ar
    51    96    94   ar
    52    60    59    1
    53    59    58    1
    54    59    61    1
    55     5     6    1
    56    92    94   ar
    57    76    77    1
    58   123   124    1
    59   123   125    1
    60    78    77   ar
    61    77    79   ar
    62     6     7    1
    63     8     7    1
    64     8     9    2
    65    23    25   ar
    66    23    21   ar
    67    11     9    1
    68    25    24   ar
    69    97    98    1
    70     9    10    1
    71   102   103    1
    72   102   104    1
    73   102   101    1
    74    20    21   ar
    75    20    18   ar
    76    51    49   ar
    77    51    52   ar
    78    21    19   ar
    79    53    52    1
    80    49    47   ar
    81    52    50   ar
    82    24    22   ar
    83   161   160    1
    84   101    98    1
    85    98    99    1
    86    18    17   ar
    87   160   159    2
    88   160   162    1
    89   158   159    1
    90   158   157    1
    91    19    22   ar
    92    19    17   ar
    93    47    46    1
    94    47    48   ar
    95   135   134    1
    96    50    48   ar
    97    99   100    2
    98    17    16    1
    99   136   134    1
   100   134   133    2
   101    46    43    1
   102   157   156    1
   103    32    31    1
   104   151   149    1
   105    40    39    2
   106    85    84    1
   107    41    39   am
   108    84    81    1
   109   133   132    1
   110   132   131    1
   111   150   149    1
   112    39    38    1
   113   156   153    1
   114    43    44    1
   115    43    42    1
   116    14    15    2
   117    14    13    1
   118    16    13    1
   119   149   146    1
   120   143   142    2
   121   144   142   am
   122    38    35    1
   123   142   141    1
   124    44    45    2
   125    13    12    1
   126    31    33    1
   127    31    30    1
   128    80    81    1
   129    81    82    1
   130   153   154    1
   131   153   152    1
   132   131   130    1
   133   141   138    1
   134   130   127    1
   135    83    82    2
   136    30    27    1
   137   146   147    1
   138   146   145    1
   139   154   155    2
   140    35    36    1
   141    35    34    1
   142   147   148    2
   143    36    37    2
   144   126   127    1
   145   127   128    1
   146   129   128    2
   147   138   137    1
   148   138   139    1
   149    27    28    1
   150    27    26    1
   151    29    28    2
   152   139   140    2
