@<TRIPOS>MOLECULE
tmp/5xemB01.pdb
 139 132 0 0 0
SMALL
GASTEIGER

@<TRIPOS>ATOM
      1  N         37.5050   40.5600   21.8650 N.3    41  LYS41      -0.1245
      2  CA        37.5410   39.1040   21.6600 C.3    41  LYS41       0.1561
      3  C         36.1780   38.4380   21.8980 C.2    41  LYS41       0.2260
      4  O         35.9810   37.2710   21.5120 O.2    41  LYS41      -0.2867
      5  CB        38.6250   38.4390   22.5240 C.3    41  LYS41       0.0271
      6  CG        40.0500   39.0450   22.4520 C.3    41  LYS41       0.0035
      7  CD        40.6100   39.1890   21.0410 C.3    41  LYS41       0.0206
      8  CE        41.9380   39.9990   21.0230 C.3    41  LYS41       0.1093
      9  NZ        43.0160   39.3440   21.8560 N.3    41  LYS41      -0.1314
     10  N         45.4880   31.1980   24.9380 N.3    68  THR68      -0.1203
     11  CA        45.2000   32.6150   24.9520 C.3    68  THR68       0.1994
     12  C         46.1480   33.3920   25.8740 C.2    68  THR68       0.2618
     13  O         46.6700   32.8580   26.8560 O.2    68  THR68      -0.2717
     14  CB        43.7330   32.8580   25.3750 C.3    68  THR68       0.1784
     15  OG1       43.4950   34.2590   25.4800 O.3    68  THR68      -0.2211
     16  CG2       43.4370   32.2410   26.7420 C.3    68  THR68       0.0376
     17  N         46.3200   34.6910   25.5840 N.am   69  SER69      -0.1951
     18  CA        47.0580   35.5460   26.4730 C.3    69  SER69       0.1924
     19  C         46.0880   36.1120   27.5120 C.2    69  SER69       0.2314
     20  O         46.5070   36.8010   28.4440 O.2    69  SER69      -0.2863
     21  CB        47.7580   36.6720   25.6970 C.3    69  SER69       0.2116
     22  OG        46.7850   37.4480   25.0430 O.3    69  SER69      -0.2180
     23  N         42.3580   37.6460   26.8630 N.3    71  ASN71      -0.1225
     24  CA        41.0720   38.1870   26.4300 C.3    71  ASN71       0.1785
     25  C         40.2270   37.2040   25.6370 C.2    71  ASN71       0.2597
     26  O         39.0230   37.1100   25.8460 O.2    71  ASN71      -0.2718
     27  CB        41.2160   39.5100   25.7140 C.3    71  ASN71       0.1169
     28  CG        41.4500   40.6550   26.6730 C.2    71  ASN71       0.2627
     29  OD1       40.7840   40.7520   27.6980 O.2    71  ASN71      -0.2716
     30  ND2       42.4080   41.5150   26.3630 N.am   71  ASN71      -0.0877
     31  N         40.8440   36.4470   24.7520 N.am   72  THR72      -0.1953
     32  CA        40.0650   35.4260   24.0250 C.3    72  THR72       0.1897
     33  C         39.5160   34.3990   25.0260 C.2    72  THR72       0.2313
     34  O         38.3950   33.9750   24.8920 O.2    72  THR72      -0.2863
     35  CB        40.9020   34.7400   22.9410 C.3    72  THR72       0.1794
     36  OG1       41.3740   35.7440   22.0330 O.3    72  THR72      -0.2208
     37  CG2       40.0660   33.7110   22.1640 C.3    72  THR72       0.0378
     38  N         51.0060   36.9900   32.2730 N.3    95  MET95      -0.1245
     39  CA        49.8910   37.9030   32.0110 C.3    95  MET95       0.1570
     40  C         49.2250   38.3370   33.3340 C.2    95  MET95       0.2261
     41  O         49.3500   37.6650   34.3600 O.2    95  MET95      -0.2867
     42  CB        48.8690   37.2250   31.0740 C.3    95  MET95       0.0387
     43  CG        49.4650   36.6140   29.7940 C.3    95  MET95       0.0595
     44  SD        50.3630   37.8260   28.7820 S.3    95  MET95      -0.1393
     45  CE        51.0650   36.8020   27.4760 C.3    95  MET95       0.0692
     46  N         53.5320   32.0530   23.6270 N.3   119  MET119     -0.1245
     47  CA        52.3050   31.3740   23.2890 C.3   119  MET119      0.1570
     48  C         52.5760   30.0190   22.6650 C.2   119  MET119      0.2261
     49  O         51.7120   29.1360   22.7120 O.2   119  MET119     -0.2867
     50  CB        51.4480   32.2540   22.3630 C.3   119  MET119      0.0387
     51  CG        50.8450   33.4650   23.0680 C.3   119  MET119      0.0595
     52  SD        49.7470   33.0970   24.4440 S.3   119  MET119     -0.1393
     53  CE        48.7150   31.8330   23.6910 C.3   119  MET119      0.0692
     54  N         42.1600   30.4990   17.5650 N.3   141  GLN141     -0.1231
     55  CA        42.1080   31.8610   17.0730 C.3   141  GLN141      0.1698
     56  C         43.2750   32.2130   16.1370 C.2   141  GLN141      0.2592
     57  O         43.1840   33.1930   15.4000 O.2   141  GLN141     -0.2718
     58  CB        42.1120   32.8220   18.2690 C.3   141  GLN141      0.0381
     59  CG        43.3440   32.6930   19.1660 C.3   141  GLN141      0.0905
     60  CD        43.3990   33.7640   20.2620 C.2   141  GLN141      0.2608
     61  OE1       42.9270   34.9070   20.0680 O.2   141  GLN141     -0.2717
     62  NE2       44.0110   33.4160   21.4080 N.am  141  GLN141     -0.0878
     63  N         44.3770   31.4600   16.2120 N.am  142  PHE142     -0.1976
     64  CA        45.5340   31.6910   15.3330 C.3   142  PHE142      0.1639
     65  C         45.2930   31.2740   13.9040 C.2   142  PHE142      0.2290
     66  O         45.9780   31.7890   13.0050 O.2   142  PHE142     -0.2864
     67  CB        46.7800   31.0020   15.8850 C.3   142  PHE142      0.0560
     68  CG        47.0890   31.4480   17.2740 C.ar  142  PHE142     -0.0200
     69  CD1       47.6780   32.6700   17.4570 C.ar  142  PHE142     -0.0042
     70  CD2       46.6540   30.7380   18.3670 C.ar  142  PHE142     -0.0042
     71  CE1       47.9110   33.1620   18.7240 C.ar  142  PHE142     -0.0003
     72  CE2       46.8890   31.2270   19.6600 C.ar  142  PHE142     -0.0003
     73  CZ        47.5370   32.4360   19.8180 C.ar  142  PHE142     -0.0000
     74  N         48.1910   40.8300   17.6490 N.3   175  GLY175     -0.1210
     75  CA        48.6380   39.6810   18.3760 C.3   175  GLY175      0.1956
     76  C         48.4350   38.4960   17.4560 C.2   175  GLY175      0.2612
     77  O         49.4090   37.9740   16.8870 O.2   175  GLY175     -0.2717
     78  N         47.1810   38.0730   17.2750 N.am  176  THR176     -0.1952
     79  CA        46.8600   37.1490   16.1930 C.3   176  THR176      0.1897
     80  C         46.8840   37.8240   14.8290 C.2   176  THR176      0.2313
     81  O         47.1560   37.1870   13.8260 O.2   176  THR176     -0.2863
     82  CB        45.4880   36.4510   16.3370 C.3   176  THR176      0.1794
     83  OG1       44.3840   37.3460   16.1660 O.3   176  THR176     -0.2208
     84  CG2       45.3830   35.6750   17.7170 C.3   176  THR176      0.0378
     85  N         58.3720   41.5500   25.8600 N.3   215  HIS215     -0.1241
     86  CA        57.7570   42.8660   25.9140 C.3   215  HIS215      0.1621
     87  C         56.6230   42.8370   26.9190 C.2   215  HIS215      0.2264
     88  O         56.2040   41.7510   27.3790 O.2   215  HIS215     -0.2867
     89  CB        57.2880   43.2670   24.5290 C.3   215  HIS215      0.0745
     90  CG        56.0910   42.5090   24.0710 C.ar  215  HIS215      0.0817
     91  ND1       54.8320   42.9320   24.3250 N.ar  215  HIS215     -0.2268
     92  CD2       55.9780   41.2730   23.4380 C.ar  215  HIS215      0.1154
     93  CE1       53.9630   42.0360   23.8380 C.ar  215  HIS215      0.1986
     94  NE2       54.6570   41.0260   23.2820 N.ar  215  HIS215     -0.2212
     95  N         48.9030   41.2040   25.2930 N.3   219  GLY219     -0.1210
     96  CA        47.9430   40.9110   24.2490 C.3   219  GLY219      0.1956
     97  C         48.5100   41.0890   22.8710 C.2   219  GLY219      0.2612
     98  O         48.1280   40.3830   21.9160 O.2   219  GLY219     -0.2717
     99  N         49.4170   42.0380   22.7420 N.am  220  MET220     -0.1965
    100  CA        50.1240   42.2420   21.4810 C.3   220  MET220      0.1736
    101  C         51.3440   41.3470   21.3690 C.2   220  MET220      0.2617
    102  O         51.7530   40.7120   22.3370 O.2   220  MET220     -0.2715
    103  CB        50.4900   43.7250   21.3180 C.3   220  MET220      0.0427
    104  CG        49.3000   44.5390   20.8550 C.3   220  MET220      0.0599
    105  SD        49.5610   46.3200   20.7230 S.3   220  MET220     -0.1393
    106  CE        51.1390   46.3410   19.8510 C.3   220  MET220      0.0692
    107  N         51.9370   41.3220   20.1870 N.am  221  GLY221     -0.1940
    108  CA        53.1160   40.5200   19.9180 C.3   221  GLY221      0.2014
    109  C         52.7280   39.1550   19.3980 C.2   221  GLY221      0.2639
    110  O         51.6000   38.6690   19.6180 O.2   221  GLY221     -0.2714
    111  N         53.6780   38.5450   18.7100 N.am  222  MET222     -0.1963
    112  CA        53.4940   37.2610   18.0500 C.3   222  MET222      0.1736
    113  C         54.5120   36.2830   18.5900 C.2   222  MET222      0.2617
    114  O         55.7050   36.3970   18.2880 O.2   222  MET222     -0.2715
    115  CB        53.6880   37.4520   16.5480 C.3   222  MET222      0.0427
    116  CG        52.5510   38.2180   15.9390 C.3   222  MET222      0.0599
    117  SD        52.8080   38.7070   14.2250 S.3   222  MET222     -0.1393
    118  CE        51.2030   39.3570   13.8170 C.3   222  MET222      0.0692
    119  N         54.0600   35.3350   19.4150 N.am  223  SER223     -0.1936
    120  CA        54.9890   34.4170   20.0580 C.3   223  SER223      0.2055
    121  C         54.6680   32.9390   19.8730 C.2   223  SER223      0.2642
    122  O         55.1230   32.1230   20.6750 O.2   223  SER223     -0.2714
    123  CB        55.1480   34.7700   21.5530 C.3   223  SER223      0.2130
    124  OG        53.9370   34.5100   22.2640 O.3   223  SER223     -0.2179
    125  N         53.9300   32.5740   18.8190 N.am  224  ILE224     -0.1977
    126  CA        53.6320   31.1400   18.5720 C.3   224  ILE224      0.1596
    127  C         54.7370   30.4570   17.7590 C.2   224  ILE224      0.2287
    128  O         54.6750   29.2550   17.5360 O.2   224  ILE224     -0.2864
    129  CB        52.2580   30.8610   17.9110 C.3   224  ILE224      0.0276
    130  CG1       52.1860   31.3000   16.4390 C.3   224  ILE224      0.0022
    131  CG2       51.1200   31.4870   18.7210 C.3   224  ILE224      0.0022
    132  CD1       50.9220   30.8340   15.7200 C.3   224  ILE224      0.0001
    133  N         51.0100   34.5050   12.5440 N.3   228  PRO228     -0.2116
    134  CA        49.7860   33.7230   12.4070 C.3   228  PRO228      0.1372
    135  C         49.1080   33.7870   11.0450 C.2   228  PRO228      0.2244
    136  O         49.1280   34.8210   10.3810 O.2   228  PRO228     -0.2868
    137  CB        48.8460   34.3270   13.4610 C.3   228  PRO228      0.0268
    138  CG        49.7330   35.0030   14.4300 C.3   228  PRO228      0.0207
    139  CD        50.8980   35.5140   13.6100 C.3   228  PRO228      0.0892
@<TRIPOS>BOND
     1   136   135    2
     2   135   134    1
     3   134   133    1
     4   134   137    1
     5   133   139    1
     6    66    65    2
     7   137   138    1
     8   139   138    1
     9   118   117    1
    10    81    80    2
    11    65    64    1
    12   117   116    1
    13    80    79    1
    14    64    67    1
    15    64    63    1
    16    57    56    2
    17   132   130    1
    18    67    68    1
    19   116   115    1
    20    56    63   am
    21    56    55    1
    22    83    82    1
    23    79    82    1
    24    79    78    1
    25    82    84    1
    26   130   129    1
    27   115   112    1
    28    77    76    2
    29    55    54    1
    30    55    58    1
    31    68    69   ar
    32    68    70   ar
    33    78    76   am
    34    76    75    1
    35    69    71   ar
    36   128   127    2
    37    74    75    1
    38   127   126    1
    39   129   126    1
    40   129   131    1
    41   112   113    1
    42   112   111    1
    43    58    59    1
    44   114   113    2
    45    70    72   ar
    46   126   125    1
    47   113   119   am
    48   111   109   am
    49    71    73   ar
    50   125   121   am
    51    59    60    1
    52   109   110    2
    53   109   108    1
    54   119   120    1
    55    72    73   ar
    56   106   105    1
    57   121   120    1
    58   121   122    2
    59   108   107    1
    60   120   123    1
    61    61    60    2
    62   107   101   am
    63    60    62   am
    64   105   104    1
    65   104   103    1
    66     8     7    1
    67     8     9    1
    68     7     6    1
    69   103   100    1
    70   101   100    1
    71   101   102    2
    72   100    99    1
    73     4     3    2
    74   123   124    1
    75     2     1    1
    76     2     3    1
    77     2     5    1
    78    98    97    2
    79    36    35    1
    80    37    35    1
    81    50    51    1
    82    50    47    1
    83     6     5    1
    84    48    49    2
    85    48    47    1
    86    99    97   am
    87    97    96    1
    88    35    32    1
    89    51    52    1
    90    94    92   ar
    91    94    93   ar
    92    47    46    1
    93    92    90   ar
    94    53    52    1
    95    93    91   ar
    96    32    31    1
    97    32    33    1
    98    90    91   ar
    99    90    89    1
   100    96    95    1
   101    89    86    1
   102    31    25   am
   103    34    33    2
   104    10    11    1
   105    11    14    1
   106    11    12    1
   107    22    21    1
   108    14    15    1
   109    14    16    1
   110    17    12   am
   111    17    18    1
   112    25    26    2
   113    25    24    1
   114    21    18    1
   115    27    24    1
   116    27    28    1
   117    85    86    1
   118    12    13    2
   119    86    87    1
   120    30    28   am
   121    24    23    1
   122    18    19    1
   123    28    29    2
   124    87    88    2
   125    45    44    1
   126    19    20    2
   127    44    43    1
   128    43    42    1
   129    42    39    1
   130    39    38    1
   131    39    40    1
   132    40    41    2
