@<TRIPOS>MOLECULE
tmp/5xenB01.pdb
 80 74 0 0 0
SMALL
GASTEIGER

@<TRIPOS>ATOM
      1  N         37.5270   40.7230   21.8350 N.3    41  LYS41      -0.1245
      2  CA        37.5870   39.3040   21.6070 C.3    41  LYS41       0.1561
      3  C         36.2150   38.6320   21.8390 C.2    41  LYS41       0.2260
      4  O         36.0060   37.5000   21.4100 O.2    41  LYS41      -0.2867
      5  CB        38.6970   38.6700   22.4460 C.3    41  LYS41       0.0271
      6  CG        40.0630   39.3600   22.3560 C.3    41  LYS41       0.0035
      7  CD        40.5320   39.5650   20.9350 C.3    41  LYS41       0.0206
      8  CE        41.9570   40.1940   20.9180 C.3    41  LYS41       0.1093
      9  NZ        42.9140   39.5120   21.8340 N.3    41  LYS41      -0.1314
     10  N         45.4800   31.3300   24.9170 N.3    68  THR68      -0.1203
     11  CA        45.1280   32.7400   24.8690 C.3    68  THR68       0.1994
     12  C         46.0870   33.5330   25.7630 C.2    68  THR68       0.2618
     13  O         46.5910   32.9960   26.7720 O.2    68  THR68      -0.2717
     14  CB        43.6690   32.9760   25.3390 C.3    68  THR68       0.1784
     15  OG1       43.3710   34.3700   25.4150 O.3    68  THR68      -0.2211
     16  CG2       43.4280   32.4060   26.7160 C.3    68  THR68       0.0376
     17  N         46.3040   34.8040   25.4170 N.am   69  SER69      -0.1951
     18  CA        46.9910   35.7170   26.3190 C.3    69  SER69       0.1924
     19  C         45.9970   36.3450   27.3150 C.2    69  SER69       0.2314
     20  O         46.4140   37.1020   28.2050 O.2    69  SER69      -0.2863
     21  CB        47.7580   36.7940   25.5370 C.3    69  SER69       0.2116
     22  OG        46.8860   37.5940   24.7710 O.3    69  SER69      -0.2180
     23  N         42.2950   37.7910   26.8340 N.3    71  ASN71      -0.1225
     24  CA        41.0040   38.3330   26.4430 C.3    71  ASN71       0.1785
     25  C         40.1600   37.3540   25.6330 C.2    71  ASN71       0.2597
     26  O         38.9640   37.2680   25.8500 O.2    71  ASN71      -0.2718
     27  CB        41.1470   39.6510   25.7360 C.3    71  ASN71       0.1169
     28  CG        41.3780   40.7920   26.7140 C.2    71  ASN71       0.2627
     29  OD1       40.7290   40.8350   27.7580 O.2    71  ASN71      -0.2716
     30  ND2       42.2800   41.7180   26.3870 N.am   71  ASN71      -0.0877
     31  N         40.7570   36.6070   24.7130 N.am   72  THR72      -0.1953
     32  CA        39.9520   35.6020   24.0080 C.3    72  THR72       0.1897
     33  C         39.4050   34.5620   25.0030 C.2    72  THR72       0.2313
     34  O         38.2830   34.1190   24.8690 O.2    72  THR72      -0.2863
     35  CB        40.7420   34.9100   22.9000 C.3    72  THR72       0.1794
     36  OG1       41.1090   35.9070   21.9340 O.3    72  THR72      -0.2208
     37  CG2       39.8680   33.8690   22.2050 C.3    72  THR72       0.0378
     38  N         53.5800   32.1950   23.6290 N.3   119  MET119     -0.1245
     39  CA        52.3440   31.5110   23.3070 C.3   119  MET119      0.1570
     40  C         52.6070   30.1300   22.6940 C.2   119  MET119      0.2261
     41  O         51.7410   29.2560   22.7300 O.2   119  MET119     -0.2867
     42  CB        51.4940   32.3800   22.3730 C.3   119  MET119      0.0387
     43  CG        50.9180   33.6280   23.0340 C.3   119  MET119      0.0595
     44  SD        49.8480   33.2800   24.4630 S.3   119  MET119     -0.1393
     45  CE        48.6850   32.1230   23.7300 C.3   119  MET119      0.0692
     46  N         42.1960   30.5370   17.5420 N.3   141  GLN141     -0.1231
     47  CA        42.1390   31.9110   17.0680 C.3   141  GLN141      0.1698
     48  C         43.3050   32.3250   16.1280 C.2   141  GLN141      0.2592
     49  O         43.1690   33.2670   15.3880 O.2   141  GLN141     -0.2718
     50  CB        42.1110   32.8600   18.2640 C.3   141  GLN141      0.0381
     51  CG        43.3610   32.8000   19.1270 C.3   141  GLN141      0.0905
     52  CD        43.3280   33.8340   20.2490 C.2   141  GLN141      0.2608
     53  OE1       42.7940   34.9480   20.0750 O.2   141  GLN141     -0.2717
     54  NE2       43.9330   33.4990   21.3850 N.am  141  GLN141     -0.0878
     55  N         44.4410   31.6360   16.1980 N.am  142  PHE142     -0.1976
     56  CA        45.5990   31.9420   15.3610 C.3   142  PHE142      0.1639
     57  C         45.3860   31.5220   13.9050 C.2   142  PHE142      0.2290
     58  O         46.0480   32.0670   13.0220 O.2   142  PHE142     -0.2864
     59  CB        46.8560   31.2680   15.9240 C.3   142  PHE142      0.0560
     60  CG        47.0650   31.5580   17.3880 C.ar  142  PHE142     -0.0200
     61  CD1       47.6070   32.7610   17.7910 C.ar  142  PHE142     -0.0042
     62  CD2       46.6210   30.6680   18.3450 C.ar  142  PHE142     -0.0042
     63  CE1       47.7560   33.0590   19.1400 C.ar  142  PHE142     -0.0003
     64  CE2       46.7540   30.9680   19.6950 C.ar  142  PHE142     -0.0003
     65  CZ        47.3370   32.1610   20.0780 C.ar  142  PHE142     -0.0000
     66  N         48.1490   41.0190   17.7360 N.3   175  GLY175     -0.1210
     67  CA        48.6200   39.8260   18.4310 C.3   175  GLY175      0.1956
     68  C         48.4090   38.6670   17.4670 C.2   175  GLY175      0.2612
     69  O         49.3810   38.1680   16.8810 O.2   175  GLY175     -0.2717
     70  N         47.1650   38.2080   17.2930 N.am  176  THR176     -0.1952
     71  CA        46.8600   37.2670   16.2100 C.3   176  THR176      0.1897
     72  C         46.9220   37.9570   14.8590 C.2   176  THR176      0.2313
     73  O         47.2120   37.3210   13.8520 O.2   176  THR176     -0.2863
     74  CB        45.4760   36.5890   16.3110 C.3   176  THR176      0.1794
     75  OG1       44.4060   37.5380   16.1150 O.3   176  THR176     -0.2208
     76  CG2       45.3790   35.8070   17.6260 C.3   176  THR176      0.0378
     77  N         48.8320   41.3570   25.1880 N.3   219  GLY219     -0.1225
     78  CA        47.9110   41.0830   24.0940 C.3   219  GLY219      0.1811
     79  C         48.5500   41.2760   22.7400 C.2   219  GLY219      0.2280
     80  O         48.1240   40.6520   21.7600 O.2   219  GLY219     -0.2866
@<TRIPOS>BOND
     1    58    57    2
     2    73    72    2
     3    57    56    1
     4    72    71    1
     5    56    59    1
     6    56    55    1
     7    49    48    2
     8    59    60    1
     9    75    74    1
    10    48    55   am
    11    48    47    1
    12    71    74    1
    13    71    70    1
    14    74    76    1
    15    69    68    2
    16    47    46    1
    17    47    50    1
    18    70    68   am
    19    60    61   ar
    20    60    62   ar
    21    68    67    1
    22    66    67    1
    23    61    63   ar
    24    50    51    1
    25    62    64   ar
    26    51    52    1
    27    63    65   ar
    28    64    65   ar
    29    53    52    2
    30    52    54   am
    31     8     7    1
    32     8     9    1
    33     7     6    1
    34     4     3    2
    35     2     1    1
    36     2     3    1
    37     2     5    1
    38    80    79    2
    39    36    35    1
    40    37    35    1
    41     6     5    1
    42    42    43    1
    43    42    39    1
    44    40    41    2
    45    40    39    1
    46    79    78    1
    47    35    32    1
    48    43    44    1
    49    39    38    1
    50    45    44    1
    51    32    31    1
    52    32    33    1
    53    78    77    1
    54    31    25   am
    55    22    21    1
    56    11    10    1
    57    11    14    1
    58    11    12    1
    59    34    33    2
    60    14    15    1
    61    14    16    1
    62    17    12   am
    63    17    18    1
    64    21    18    1
    65    25    26    2
    66    25    24    1
    67    27    24    1
    68    27    28    1
    69    12    13    2
    70    18    19    1
    71    30    28   am
    72    24    23    1
    73    28    29    2
    74    19    20    2
