@<TRIPOS>MOLECULE
tmp/5xeoA00.pdb
 160 152 0 0 0
SMALL
GASTEIGER

@<TRIPOS>ATOM
      1  N         26.2570   52.8750   37.9740 N.3    45  THR45      -0.1203
      2  CA        25.1740   53.8090   37.8400 C.3    45  THR45       0.1994
      3  C         25.5740   55.2120   38.3230 C.2    45  THR45       0.2617
      4  O         24.9440   56.1850   37.9480 O.2    45  THR45      -0.2717
      5  CB        23.9090   53.3320   38.6090 C.3    45  THR45       0.1784
      6  OG1       22.7700   53.8030   37.9400 O.3    45  THR45      -0.2211
      7  CG2       23.8590   53.8110   40.0760 C.3    45  THR45       0.0376
      8  N         26.5920   55.2960   39.1660 N.am   46  LYS46      -0.1979
      9  CA        26.9960   56.5660   39.7310 C.3    46  LYS46       0.1596
     10  C         27.5050   57.5600   38.6810 C.2    46  LYS46       0.2287
     11  O         27.4730   58.7670   38.9400 O.2    46  LYS46      -0.2864
     12  CB        28.0280   56.4160   40.8250 C.3    46  LYS46       0.0298
     13  CG        27.6630   55.4780   41.9590 C.3    46  LYS46       0.0038
     14  CD        26.3860   55.9290   42.6950 C.3    46  LYS46       0.0206
     15  CE        25.8490   54.8570   43.5960 C.3    46  LYS46       0.1093
     16  NZ        26.8080   54.2550   44.5450 N.3    46  LYS46      -0.1314
     17  N         24.7290   60.1160   38.2380 N.3    49  ILE49      -0.1245
     18  CA        24.5880   61.1240   39.2910 C.3    49  ILE49       0.1561
     19  C         25.8060   62.0660   39.3150 C.2    49  ILE49       0.2260
     20  O         25.6620   63.2690   39.5670 O.2    49  ILE49      -0.2867
     21  CB        24.2450   60.5370   40.6980 C.3    49  ILE49       0.0252
     22  CG1       25.4350   59.8830   41.3930 C.3    49  ILE49       0.0019
     23  CG2       23.0210   59.6310   40.6040 C.3    49  ILE49       0.0019
     24  CD1       25.2230   59.5990   42.8840 C.3    49  ILE49       0.0001
     25  N         31.9400   54.1140   44.1510 N.3    76  ASN76      -0.1240
     26  CA        31.6930   54.3560   42.7680 C.3    76  ASN76       0.1653
     27  C         31.4210   55.8120   42.4330 C.2    76  ASN76       0.2266
     28  O         31.7290   56.2470   41.3160 O.2    76  ASN76      -0.2867
     29  CB        30.5450   53.5100   42.2760 C.3    76  ASN76       0.1155
     30  CG        30.9760   52.0690   42.0090 C.2    76  ASN76       0.2627
     31  OD1       32.0660   51.8420   41.4530 O.2    76  ASN76      -0.2716
     32  ND2       30.1390   51.1130   42.3770 N.am   76  ASN76      -0.0877
     33  N         26.5290   63.4790   47.4770 N.3   144  GLN144     -0.1245
     34  CA        25.5570   62.4980   46.9530 C.3   144  GLN144      0.1566
     35  C         24.4230   62.1540   47.9190 C.2   144  GLN144      0.2260
     36  O         23.3320   61.7640   47.4920 O.2   144  GLN144     -0.2867
     37  CB        26.2730   61.2200   46.5440 C.3   144  GLN144      0.0367
     38  CG        26.9710   60.4940   47.6710 C.3   144  GLN144      0.0905
     39  CD        27.6770   59.2400   47.1830 C.2   144  GLN144      0.2608
     40  OE1       27.2430   58.5960   46.2220 O.2   144  GLN144     -0.2717
     41  NE2       28.7600   58.8950   47.8340 N.am  144  GLN144     -0.0878
     42  N         21.0620   63.6110   42.5160 N.3   150  ASN150     -0.1240
     43  CA        21.2340   62.1580   42.6140 C.3   150  ASN150      0.1653
     44  C         19.9180   61.4640   42.2190 C.2   150  ASN150      0.2266
     45  O         19.8420   60.8760   41.1120 O.2   150  ASN150     -0.2867
     46  CB        21.8590   61.7930   43.9860 C.3   150  ASN150      0.1155
     47  CG        21.8330   60.3060   44.2960 C.2   150  ASN150      0.2627
     48  OD1       21.3110   59.4750   43.5230 O.2   150  ASN150     -0.2716
     49  ND2       22.3810   59.9660   45.4470 N.am  150  ASN150     -0.0877
     50  N         18.1270   59.6500   38.0200 N.3   154  HIS154     -0.1241
     51  CA        17.4580   58.3720   37.8390 C.3   154  HIS154      0.1621
     52  C         15.9740   58.5100   37.4550 C.2   154  HIS154      0.2264
     53  O         15.4610   57.7720   36.6140 O.2   154  HIS154     -0.2867
     54  CB        17.5960   57.5810   39.1410 C.3   154  HIS154      0.0745
     55  CG        18.9990   57.1750   39.4300 C.ar  154  HIS154      0.0817
     56  ND1       19.6890   56.2890   38.6260 N.ar  154  HIS154     -0.2268
     57  CD2       19.8390   57.5120   40.4290 C.ar  154  HIS154      0.1154
     58  CE1       20.8890   56.0860   39.1360 C.ar  154  HIS154      0.1986
     59  NE2       21.0040   56.8000   40.2410 N.ar  154  HIS154     -0.2212
     60  N         19.0670   47.9690   45.0520 N.3   176  GLY176     -0.1210
     61  CA        19.8570   48.1110   46.2550 C.3   176  GLY176      0.1956
     62  C         19.9620   49.5610   46.7330 C.2   176  GLY176      0.2613
     63  O         19.8210   50.4740   45.9320 O.2   176  GLY176     -0.2717
     64  N         20.1780   49.7780   48.0300 N.am  177  THR177     -0.1938
     65  CA        20.2810   51.1300   48.5620 C.3   177  THR177      0.2028
     66  C         21.5590   51.3690   49.2960 C.2   177  THR177      0.2643
     67  O         22.0610   50.4920   50.0250 O.2   177  THR177     -0.2714
     68  CB        19.1020   51.4930   49.5240 C.3   177  THR177      0.1808
     69  OG1       19.0760   50.5940   50.6380 O.3   177  THR177     -0.2208
     70  CG2       17.8520   51.4310   48.8130 C.3   177  THR177      0.0379
     71  N         22.0890   52.5720   49.0770 N.am  178  GLY178     -0.1939
     72  CA        23.2020   53.1370   49.8130 C.3   178  GLY178      0.2014
     73  C         22.8310   54.5770   50.1320 C.2   178  GLY178      0.2640
     74  O         22.4380   54.8840   51.2640 O.2   178  GLY178     -0.2714
     75  N         22.9070   55.4570   49.1270 N.am  179  THR179     -0.1936
     76  CA        22.3000   56.7820   49.2750 C.3   179  THR179      0.2028
     77  C         20.7860   56.7060   49.2650 C.2   179  THR179      0.2643
     78  O         20.1130   57.5350   49.8640 O.2   179  THR179     -0.2714
     79  CB        22.7310   57.7820   48.1880 C.3   179  THR179      0.1808
     80  OG1       22.1650   57.4030   46.9290 O.3   179  THR179     -0.2208
     81  CG2       24.2450   57.8920   48.1380 C.3   179  THR179      0.0379
     82  N         20.2570   55.7280   48.5420 N.am  180  GLY180     -0.1939
     83  CA        18.8560   55.6040   48.2930 C.3   180  GLY180      0.2014
     84  C         18.3850   56.3320   47.0570 C.2   180  GLY180      0.2639
     85  O         17.2050   56.2970   46.7400 O.2   180  GLY180     -0.2714
     86  N         19.3040   56.9370   46.3050 N.am  181  GLY181     -0.1939
     87  CA        18.9150   57.7660   45.1670 C.3   181  GLY181      0.2014
     88  C         18.4490   57.0240   43.9580 C.2   181  GLY181      0.2640
     89  O         17.4680   57.4260   43.3290 O.2   181  GLY181     -0.2714
     90  N         19.1420   55.9300   43.6000 N.am  182  SER182     -0.1935
     91  CA        18.7190   55.1360   42.4550 C.3   182  SER182      0.2055
     92  C         17.3590   54.5070   42.7100 C.2   182  SER182      0.2643
     93  O         16.4920   54.5350   41.8210 O.2   182  SER182     -0.2714
     94  CB        19.7630   54.0570   42.0680 C.3   182  SER182      0.2130
     95  OG        20.0500   53.2420   43.1640 O.3   182  SER182     -0.2179
     96  N         17.1460   53.9710   43.9090 N.am  183  PHE183     -0.1973
     97  CA        15.8130   53.4430   44.2440 C.3   183  PHE183      0.1639
     98  C         14.7330   54.5420   44.1680 C.2   183  PHE183      0.2290
     99  O         13.6890   54.3960   43.5000 O.2   183  PHE183     -0.2864
    100  CB        15.7570   52.8260   45.6510 C.3   183  PHE183      0.0560
    101  CG        14.3480   52.5700   46.1020 C.ar  183  PHE183     -0.0200
    102  CD1       13.6000   51.5560   45.5080 C.ar  183  PHE183     -0.0042
    103  CD2       13.7270   53.4160   47.0250 C.ar  183  PHE183     -0.0042
    104  CE1       12.2680   51.3440   45.8730 C.ar  183  PHE183     -0.0003
    105  CE2       12.3980   53.2130   47.3910 C.ar  183  PHE183     -0.0003
    106  CZ        11.6680   52.1860   46.8040 C.ar  183  PHE183     -0.0000
    107  N         29.3700   45.8310   49.2220 N.3   221  GLN221     -0.1231
    108  CA        29.9760   47.1370   48.8770 C.3   221  GLN221      0.1698
    109  C         29.0280   48.0400   48.0690 C.2   221  GLN221      0.2593
    110  O         28.3830   47.5950   47.1010 O.2   221  GLN221     -0.2718
    111  CB        31.3100   46.9600   48.1600 C.3   221  GLN221      0.0381
    112  CG        32.4020   46.4740   49.1070 C.3   221  GLN221      0.0905
    113  CD        33.7640   46.3050   48.4600 C.2   221  GLN221      0.2608
    114  OE1       34.2550   47.2100   47.7800 O.2   221  GLN221     -0.2717
    115  NE2       34.4000   45.1540   48.6950 N.am  221  GLN221     -0.0878
    116  N         28.9130   49.2880   48.5140 N.am  222  GLY222     -0.1942
    117  CA        28.0250   50.2810   47.9070 C.3   222  GLY222      0.2014
    118  C         26.6550   50.3640   48.5640 C.2   222  GLY222      0.2638
    119  O         25.9460   51.3740   48.4310 O.2   222  GLY222     -0.2714
    120  N         26.2340   49.3030   49.2460 N.am  223  MET223     -0.1976
    121  CA        24.9520   49.3480   49.9230 C.3   223  MET223      0.1605
    122  C         25.1800   49.6450   51.4110 C.2   223  MET223      0.2287
    123  O         26.2990   49.6800   51.8690 O.2   223  MET223     -0.2864
    124  CB        24.1810   48.0460   49.7010 C.3   223  MET223      0.0413
    125  CG        23.4720   47.9520   48.3510 C.3   223  MET223      0.0598
    126  SD        22.7110   46.3430   47.9720 S.3   223  MET223     -0.1393
    127  CE        21.8600   46.0500   49.5330 C.3   223  MET223      0.0692
    128  N         26.5900   44.0980   45.1460 N.3   268  SER268     -0.1217
    129  CA        25.2370   44.6190   45.3320 C.3   268  SER268      0.1889
    130  C         24.2760   44.0630   44.3060 C.2   268  SER268      0.2288
    131  O         23.0790   43.9990   44.5710 O.2   268  SER268     -0.2866
    132  CB        25.1910   46.1800   45.3630 C.3   268  SER268      0.2089
    133  OG        25.3370   46.7680   44.0750 O.3   268  SER268     -0.2183
    134  N         23.8920   47.5880   39.8310 N.3   295  THR295     -0.1203
    135  CA        24.4780   48.9020   40.0290 C.3   295  THR295      0.1994
    136  C         25.8890   49.0500   39.4640 C.2   295  THR295      0.2617
    137  O         26.1880   50.1070   38.9380 O.2   295  THR295     -0.2717
    138  CB        24.3780   49.3590   41.5010 C.3   295  THR295      0.1784
    139  OG1       22.9770   49.3770   41.8520 O.3   295  THR295     -0.2211
    140  CG2       24.9550   50.7570   41.6970 C.3   295  THR295      0.0376
    141  N         26.7300   48.0160   39.5330 N.am  296  ASP296     -0.1973
    142  CA        28.0470   48.0960   38.8960 C.3   296  ASP296      0.1709
    143  C         28.4700   46.7380   38.3940 C.2   296  ASP296      0.2293
    144  O         27.8190   45.7370   38.6750 O.2   296  ASP296     -0.2864
    145  CB        29.1090   48.7470   39.8130 C.3   296  ASP296      0.1436
    146  CG        29.5710   47.8890   40.9600 C.2   296  ASP296      0.3671
    147  OD1       28.8730   46.9100   41.3100 O.co2 296  ASP296     -0.2456
    148  OD2       30.6040   48.2420   41.5690 O.co2 296  ASP296     -0.2456
    149  N         35.7530   43.6890   42.1820 N.3   301  TYR301     -0.1241
    150  CA        35.6240   42.8700   43.3990 C.3   301  TYR301      0.1605
    151  C         36.3210   41.5310   43.2710 C.2   301  TYR301      0.2264
    152  O         36.3640   40.7870   44.2430 O.2   301  TYR301     -0.2867
    153  CB        34.1600   42.6090   43.7400 C.3   301  TYR301      0.0534
    154  CG        33.3540   43.8690   43.8010 C.ar  301  TYR301     -0.0201
    155  CD1       33.4770   44.7490   44.8820 C.ar  301  TYR301     -0.0009
    156  CD2       32.5410   44.2500   42.7280 C.ar  301  TYR301     -0.0009
    157  CE1       32.7620   45.9420   44.9080 C.ar  301  TYR301      0.0417
    158  CE2       31.8220   45.4340   42.7570 C.ar  301  TYR301      0.0417
    159  CZ        31.9280   46.2770   43.8580 C.ar  301  TYR301      0.1957
    160  OH        31.2160   47.4720   43.9000 O.3   301  TYR301     -0.2866
@<TRIPOS>BOND
     1    53    52    2
     2    52    51    1
     3    51    50    1
     4    51    54    1
     5     2     1    1
     6     2     3    1
     7     2     5    1
     8     6     5    1
     9     4     3    2
    10    17    18    1
    11     3     8   am
    12   143   144    2
    13   143   142    1
    14     5     7    1
    15    56    58   ar
    16    56    55   ar
    17    10    11    2
    18    10     9    1
    19   142   141    1
    20   142   145    1
    21   137   136    2
    22    58    59   ar
    23    54    55    1
    24     8     9    1
    25    18    19    1
    26    18    21    1
    27    19    20    2
    28    55    57   ar
    29   136   141   am
    30   136   135    1
    31     9    12    1
    32   145   146    1
    33   134   135    1
    34   135   138    1
    35    59    57   ar
    36    23    21    1
    37    21    22    1
    38    12    13    1
    39   146   147   ar
    40   146   148   ar
    41    45    44    2
    42    28    27    2
    43    22    24    1
    44    31    30    2
    45   138   140    1
    46   138   139    1
    47    93    92    2
    48    13    14    1
    49    30    29    1
    50    30    32   am
    51    94    91    1
    52    94    95    1
    53   149   150    1
    54    44    43    1
    55    29    26    1
    56    27    26    1
    57    91    92    1
    58    91    90    1
    59    42    43    1
    60    43    46    1
    61    14    15    1
    62    92    96   am
    63   156   158   ar
    64   156   154   ar
    65   158   159   ar
    66    26    25    1
    67   151   150    1
    68   151   152    2
    69    89    88    2
    70   150   153    1
    71    99    98    2
    72    48    47    2
    73    15    16    1
    74    90    88   am
    75   153   154    1
    76   154   155   ar
    77   159   160    1
    78   159   157   ar
    79    96    97    1
    80    88    87    1
    81    46    47    1
    82   133   132    1
    83    98    97    1
    84    97   100    1
    85    47    49   am
    86   130   131    2
    87   130   129    1
    88   155   157   ar
    89    60    61    1
    90   128   129    1
    91    87    86    1
    92   129   132    1
    93   102   104   ar
    94   102   101   ar
    95   100   101    1
    96   104   106   ar
    97    63    62    2
    98   101   103   ar
    99    40    39    2
   100    61    62    1
   101    86    84   am
   102    37    34    1
   103    37    38    1
   104    62    64   am
   105    85    84    2
   106   106   105   ar
   107    80    79    1
   108    34    33    1
   109    34    35    1
   110   103   105   ar
   111    84    83    1
   112   110   109    2
   113    39    38    1
   114    39    41   am
   115    36    35    2
   116   114   113    2
   117   117   116    1
   118   117   118    1
   119   126   125    1
   120   126   127    1
   121    64    65    1
   122   109   116   am
   123   109   108    1
   124    81    79    1
   125   111   108    1
   126   111   112    1
   127    79    76    1
   128    83    82    1
   129   125   124    1
   130   119   118    2
   131   113   115   am
   132   113   112    1
   133    82    77   am
   134    65    66    1
   135    65    68    1
   136   118   120   am
   137    70    68    1
   138   108   107    1
   139    71    66   am
   140    71    72    1
   141    75    76    1
   142    75    73   am
   143   120   121    1
   144    77    76    1
   145    77    78    2
   146    66    67    2
   147    68    69    1
   148   124   121    1
   149    72    73    1
   150   121   122    1
   151    73    74    2
   152   122   123    2
