@<TRIPOS>MOLECULE
tmp/5xexD01.pdb
 91 83 0 0 0
SMALL
GASTEIGER

@<TRIPOS>ATOM
      1  N         15.4960  -61.1760   16.8200 N.3   368  ARG368     -0.1245
      2  CA        16.9520  -61.0520   16.7350 C.3   368  ARG368      0.1563
      3  C         17.5670  -60.2740   17.9070 C.2   368  ARG368      0.2260
      4  O         18.5380  -60.7190   18.5120 O.2   368  ARG368     -0.2867
      5  CB        17.3320  -60.4010   15.4200 C.3   368  ARG368      0.0307
      6  CG        18.8250  -60.1900   15.2640 C.3   368  ARG368      0.0489
      7  CD        19.1880  -59.8070   13.8310 C.3   368  ARG368      0.2205
      8  NE        20.6110  -59.4710   13.7490 N.pl3 368  ARG368     -0.0865
      9  CZ        21.1510  -58.3170   14.1400 C.cat 368  ARG368      0.5346
     10  NH1       22.4600  -58.1400   14.0420 N.pl3 368  ARG368      0.1354
     11  NH2       20.4020  -57.3400   14.6330 N.pl3 368  ARG368      0.1354
     12  N         20.2690  -61.8260   20.5570 N.3   372  HIS372     -0.1241
     13  CA        21.5970  -61.2750   20.8550 C.3   372  HIS372      0.1621
     14  C         21.7610  -60.7710   22.2650 C.2   372  HIS372      0.2264
     15  O         22.8290  -60.9390   22.8490 O.2   372  HIS372     -0.2867
     16  CB        21.9850  -60.2390   19.8390 C.3   372  HIS372      0.0745
     17  CG        22.0930  -60.8170   18.4720 C.ar  372  HIS372      0.0817
     18  ND1       22.3290  -60.0630   17.3460 N.ar  372  HIS372     -0.2268
     19  CD2       21.9590  -62.0930   18.0490 C.ar  372  HIS372      0.1154
     20  CE1       22.3350  -60.8510   16.2860 C.ar  372  HIS372      0.1986
     21  NE2       22.1210  -62.0890   16.6860 N.ar  372  HIS372     -0.2212
     22  N         27.0740  -51.2720   12.2730 N.3   403  SER403     -0.1217
     23  CA        27.0610  -52.7060   12.1450 C.3   403  SER403      0.1889
     24  C         27.4610  -53.1970   10.7810 C.2   403  SER403      0.2288
     25  O         26.9200  -52.7790    9.7570 O.2   403  SER403     -0.2866
     26  CB        25.6800  -53.2330   12.5070 C.3   403  SER403      0.2089
     27  OG        25.5840  -54.6020   12.2360 O.3   403  SER403     -0.2183
     28  N         29.4070  -56.5760   11.2460 N.3   405  GLY405     -0.1210
     29  CA        30.0370  -57.8030   11.6220 C.3   405  GLY405      0.1956
     30  C         29.3330  -58.5920   12.6740 C.2   405  GLY405      0.2613
     31  O         28.4680  -59.3930   12.3950 O.2   405  GLY405     -0.2717
     32  N         29.7540  -58.4320   13.9100 N.am  406  SER406     -0.1938
     33  CA        29.0500  -59.0970   14.9470 C.3   406  SER406      0.2055
     34  C         28.9020  -58.1690   16.1020 C.2   406  SER406      0.2644
     35  O         29.7450  -58.1130   17.0260 O.2   406  SER406     -0.2714
     36  CB        29.6740  -60.3960   15.3630 C.3   406  SER406      0.2130
     37  OG        28.7390  -61.0880   16.1780 O.3   406  SER406     -0.2179
     38  N         27.8120  -57.4200   15.9650 N.am  407  SER407     -0.1935
     39  CA        27.1940  -56.6070   16.9800 C.3   407  SER407      0.2055
     40  C         27.1180  -57.3470   18.2620 C.2   407  SER407      0.2643
     41  O         27.4440  -56.7790   19.2980 O.2   407  SER407     -0.2714
     42  CB        25.7540  -56.3200   16.5560 C.3   407  SER407      0.2130
     43  OG        25.6780  -56.0180   15.1790 O.3   407  SER407     -0.2179
     44  N         26.6440  -58.6040   18.2130 N.am  408  SER408     -0.1949
     45  CA        26.4360  -59.3710   19.4550 C.3   408  SER408      0.1924
     46  C         27.7580  -59.5720   20.1470 C.2   408  SER408      0.2314
     47  O         27.8330  -59.4920   21.3810 O.2   408  SER408     -0.2863
     48  CB        25.7470  -60.7390   19.2380 C.3   408  SER408      0.2116
     49  OG        26.2110  -61.4350   18.0780 O.3   408  SER408     -0.2180
     50  N         29.0750  -63.6970    6.1650 N.3   455  ASP455     -0.1239
     51  CA        27.9810  -64.4790    6.7230 C.3   455  ASP455      0.1674
     52  C         26.9770  -64.7910    5.6250 C.2   455  ASP455      0.2266
     53  O         26.5560  -65.9350    5.4540 O.2   455  ASP455     -0.2867
     54  CB        27.2800  -63.7080    7.8410 C.3   455  ASP455      0.1410
     55  CG        26.0590  -64.4430    8.3930 C.2   455  ASP455      0.3668
     56  OD1       25.8070  -65.6090    8.0170 O.co2 455  ASP455     -0.2456
     57  OD2       25.3540  -63.8580    9.2370 O.co2 455  ASP455     -0.2456
     58  N         28.2290  -69.1520   10.5470 N.3   461  ASP461     -0.1239
     59  CA        28.3120  -68.0000   11.3850 C.3   461  ASP461      0.1674
     60  C         28.4420  -68.5850   12.7680 C.2   461  ASP461      0.2266
     61  O         27.4550  -68.9850   13.3690 O.2   461  ASP461     -0.2867
     62  CB        27.0230  -67.1770   11.2490 C.3   461  ASP461      0.1410
     63  CG        27.1150  -65.8170   11.9140 C.2   461  ASP461      0.3668
     64  OD1       27.8250  -65.6540   12.9400 O.co2 461  ASP461     -0.2456
     65  OD2       26.4710  -64.8940   11.3870 O.co2 461  ASP461     -0.2456
     66  N         29.7920  -68.1990   16.5210 N.3   463  LYS463     -0.1245
     67  CA        30.1460  -67.1890   17.4700 C.3   463  LYS463      0.1561
     68  C         30.6380  -67.8490   18.6920 C.2   463  LYS463      0.2260
     69  O         29.9760  -68.7420   19.2110 O.2   463  LYS463     -0.2867
     70  CB        28.9400  -66.3410   17.8170 C.3   463  LYS463      0.0271
     71  CG        28.1740  -65.9200   16.5890 C.3   463  LYS463      0.0035
     72  CD        27.1510  -64.8420   16.8990 C.3   463  LYS463      0.0206
     73  CE        27.0200  -63.9210   15.7050 C.3   463  LYS463      0.1093
     74  NZ        25.6240  -63.5090   15.4840 N.3   463  LYS463     -0.1314
     75  N         27.1490  -69.8300   19.8730 N.3   475  GLN475     -0.1245
     76  CA        25.9550  -69.9050   19.0860 C.3   475  GLN475      0.1566
     77  C         26.3820  -70.0160   17.6250 C.2   475  GLN475      0.2260
     78  O         27.0790  -69.1570   17.1230 O.2   475  GLN475     -0.2867
     79  CB        25.0450  -68.6740   19.3030 C.3   475  GLN475      0.0367
     80  CG        23.9130  -68.5580   18.2860 C.3   475  GLN475      0.0905
     81  CD        23.0080  -67.3410   18.5130 C.2   475  GLN475      0.2608
     82  OE1       22.7660  -66.5810   17.5920 O.2   475  GLN475     -0.2717
     83  NE2       22.4890  -67.1820   19.7340 N.am  475  GLN475     -0.0878
     84  N         25.1090  -71.3060   13.5440 N.3   477  ASP477     -0.1239
     85  CA        24.2400  -71.8490   12.5280 C.3   477  ASP477      0.1674
     86  C         24.9810  -71.8850   11.2020 C.2   477  ASP477      0.2266
     87  O         26.0080  -71.2210   11.0550 O.2   477  ASP477     -0.2867
     88  CB        22.9500  -71.0270   12.4170 C.3   477  ASP477      0.1410
     89  CG        23.1980  -69.5570   12.0520 C.2   477  ASP477      0.3668
     90  OD1       23.5500  -69.2700   10.8830 O.co2 477  ASP477     -0.2456
     91  OD2       23.0280  -68.6920   12.9400 O.co2 477  ASP477     -0.2456
@<TRIPOS>BOND
     1    53    52    2
     2    52    51    1
     3    50    51    1
     4    51    54    1
     5    54    55    1
     6    56    55   ar
     7    55    57   ar
     8    25    24    2
     9    58    59    1
    10    24    23    1
    11    90    89   ar
    12    87    86    2
    13    86    85    1
    14    28    29    1
    15    62    59    1
    16    62    63    1
    17    59    60    1
    18    65    63   ar
    19    29    30    1
    20    63    64   ar
    21    89    88    1
    22    89    91   ar
    23    23    22    1
    24    23    26    1
    25    27    26    1
    26    31    30    2
    27    88    85    1
    28    85    84    1
    29    30    32   am
    30    60    61    2
    31     8     7    1
    32     8     9    2
    33     7     6    1
    34    32    33    1
    35    10     9    1
    36     9    11    1
    37    33    36    1
    38    33    34    1
    39    43    42    1
    40     6     5    1
    41    36    37    1
    42     5     2    1
    43    74    73    1
    44    73    72    1
    45    38    34   am
    46    38    39    1
    47    34    35    2
    48    20    21   ar
    49    20    18   ar
    50    66    67    1
    51    42    39    1
    52    71    72    1
    53    71    70    1
    54    21    19   ar
    55     2     1    1
    56     2     3    1
    57    39    40    1
    58    78    77    2
    59    18    17   ar
    60    67    70    1
    61    67    68    1
    62    82    81    2
    63    77    76    1
    64     3     4    2
    65    19    17   ar
    66    49    48    1
    67    44    40   am
    68    44    45    1
    69    40    41    2
    70    80    81    1
    71    80    79    1
    72    17    16    1
    73    81    83   am
    74    68    69    2
    75    76    79    1
    76    76    75    1
    77    48    45    1
    78    45    46    1
    79    16    13    1
    80    46    47    2
    81    12    13    1
    82    13    14    1
    83    14    15    2
