@<TRIPOS>MOLECULE
tmp/5xeyB00.pdb
 200 192 0 0 0
SMALL
GASTEIGER

@<TRIPOS>ATOM
      1  N         45.3240   36.7160  128.9550 N.3   105  PHE105     -0.1241
      2  CA        45.7970   35.7490  129.9400 C.3   105  PHE105      0.1605
      3  C         44.7160   35.2070  130.8690 C.2   105  PHE105      0.2264
      4  O         44.9440   34.1840  131.5050 O.2   105  PHE105     -0.2867
      5  CB        46.9580   36.3240  130.7530 C.3   105  PHE105      0.0534
      6  CG        48.2830   35.7320  130.3670 C.ar  105  PHE105     -0.0203
      7  CD1       48.8980   36.0950  129.1850 C.ar  105  PHE105     -0.0042
      8  CD2       48.8780   34.7670  131.1500 C.ar  105  PHE105     -0.0042
      9  CE1       50.1090   35.5230  128.8090 C.ar  105  PHE105     -0.0003
     10  CE2       50.0900   34.1980  130.7810 C.ar  105  PHE105     -0.0003
     11  CZ        50.7030   34.5750  129.6170 C.ar  105  PHE105     -0.0000
     12  N         41.7320   33.1390  127.6090 N.3   108  HIS108     -0.1241
     13  CA        42.0730   31.8750  126.9580 C.3   108  HIS108      0.1621
     14  C         41.8520   30.6810  127.8740 C.2   108  HIS108      0.2264
     15  O         41.7310   29.5540  127.4020 O.2   108  HIS108     -0.2867
     16  CB        43.5310   31.8700  126.5050 C.3   108  HIS108      0.0745
     17  CG        44.4880   31.5810  127.6150 C.ar  108  HIS108      0.0817
     18  ND1       45.0660   32.5750  128.3730 N.ar  108  HIS108     -0.2268
     19  CD2       44.9360   30.4080  128.1260 C.ar  108  HIS108      0.1154
     20  CE1       45.8440   32.0280  129.2930 C.ar  108  HIS108      0.1986
     21  NE2       45.7770   30.7140  129.1670 N.ar  108  HIS108     -0.2212
     22  N         42.6930   28.1790  124.1580 N.3   115  TYR115     -0.1241
     23  CA        44.0820   27.8750  124.4710 C.3   115  TYR115      0.1605
     24  C         44.8080   27.3450  123.2210 C.2   115  TYR115      0.2264
     25  O         45.9390   27.7530  122.9370 O.2   115  TYR115     -0.2867
     26  CB        44.1230   26.8750  125.6350 C.3   115  TYR115      0.0534
     27  CG        45.5160   26.5390  126.1640 C.ar  115  TYR115     -0.0201
     28  CD1       46.4210   27.5350  126.5080 C.ar  115  TYR115     -0.0009
     29  CD2       45.8970   25.2150  126.3440 C.ar  115  TYR115     -0.0009
     30  CE1       47.6950   27.2110  126.9960 C.ar  115  TYR115      0.0417
     31  CE2       47.1480   24.8810  126.8320 C.ar  115  TYR115      0.0417
     32  CZ        48.0420   25.8730  127.1490 C.ar  115  TYR115      0.1957
     33  OH        49.2890   25.5110  127.6150 O.3   115  TYR115     -0.2866
     34  N         46.5410   29.6920  120.5100 N.3   118  TRP118     -0.1241
     35  CA        47.8160   30.2600  120.9300 C.3   118  TRP118      0.1605
     36  C         48.9920   29.4250  120.4260 C.2   118  TRP118      0.2264
     37  O         49.9700   29.9400  119.9120 O.2   118  TRP118     -0.2867
     38  CB        47.7950   30.3230  122.4460 C.3   118  TRP118      0.0550
     39  CG        48.8480   31.0700  123.1370 C.ar  118  TRP118      0.0003
     40  CD1       49.9310   31.7110  122.6010 C.ar  118  TRP118      0.0946
     41  CD2       48.9160   31.2570  124.5430 C.ar  118  TRP118      0.0152
     42  NE1       50.6770   32.2810  123.6130 N.ar  118  TRP118     -0.2442
     43  CE2       50.0600   32.0220  124.8110 C.ar  118  TRP118      0.0810
     44  CE3       48.1230   30.8300  125.6080 C.ar  118  TRP118      0.0012
     45  CZ2       50.4230   32.3720  126.0960 C.ar  118  TRP118      0.0191
     46  CZ3       48.4770   31.1980  126.8840 C.ar  118  TRP118      0.0001
     47  CH2       49.6150   31.9550  127.1170 C.ar  118  TRP118      0.0015
     48  N         49.2580   22.9190  122.3680 N.3   123  HIS123     -0.1241
     49  CA        48.2920   23.0970  123.4540 C.3   123  HIS123      0.1621
     50  C         47.1470   22.1110  123.4010 C.2   123  HIS123      0.2264
     51  O         46.3580   22.1340  122.4690 O.2   123  HIS123     -0.2867
     52  CB        47.7260   24.5080  123.4360 C.3   123  HIS123      0.0745
     53  CG        48.7000   25.5440  123.8830 C.ar  123  HIS123      0.0817
     54  ND1       48.4420   26.8910  123.7820 N.ar  123  HIS123     -0.2268
     55  CD2       49.9330   25.4330  124.4300 C.ar  123  HIS123      0.1154
     56  CE1       49.4690   27.5700  124.2560 C.ar  123  HIS123      0.1986
     57  NE2       50.3910   26.7090  124.6500 N.ar  123  HIS123     -0.2212
     58  N         46.1890   27.6000  136.5810 N.3   144  HIS144     -0.1241
     59  CA        45.7740   27.0180  135.3080 C.3   144  HIS144      0.1621
     60  C         46.3160   25.6030  135.1950 C.2   144  HIS144      0.2264
     61  O         47.5230   25.3960  135.2520 O.2   144  HIS144     -0.2867
     62  CB        46.2710   27.8630  134.1370 C.3   144  HIS144      0.0745
     63  CG        45.7100   29.2510  134.0970 C.ar  144  HIS144      0.0817
     64  ND1       46.0220   30.1430  133.0920 N.ar  144  HIS144     -0.2268
     65  CD2       44.8600   29.9030  134.9280 C.ar  144  HIS144      0.1154
     66  CE1       45.3830   31.2810  133.3010 C.ar  144  HIS144      0.1986
     67  NE2       44.6750   31.1640  134.4110 N.ar  144  HIS144     -0.2212
     68  N         47.1040   22.5960  133.0010 N.3   146  ILE146     -0.1245
     69  CA        47.4310   22.6130  131.5870 C.3   146  ILE146      0.1561
     70  C         48.0010   21.2820  131.1350 C.2   146  ILE146      0.2260
     71  O         48.7860   20.6730  131.8450 O.2   146  ILE146     -0.2867
     72  CB        48.4570   23.7510  131.2870 C.3   146  ILE146      0.0252
     73  CG1       47.7190   25.0880  131.2080 C.3   146  ILE146      0.0019
     74  CG2       49.2120   23.4940  130.0120 C.3   146  ILE146      0.0019
     75  CD1       48.6380   26.3180  131.2360 C.3   146  ILE146      0.0001
     76  N         50.1300   20.2120  127.7990 N.3   148  GLU148     -0.1245
     77  CA        50.7440   20.7620  126.5940 C.3   148  GLU148      0.1567
     78  C         52.0910   20.1000  126.3320 C.2   148  GLU148      0.2260
     79  O         52.6720   19.4760  127.2210 O.2   148  GLU148     -0.2867
     80  CB        50.9410   22.2790  126.7010 C.3   148  GLU148      0.0388
     81  CG        52.0560   22.6930  127.6750 C.3   148  GLU148      0.1160
     82  CD        52.4720   24.1400  127.5220 C.2   148  GLU148      0.3649
     83  OE1       52.3360   24.6890  126.4080 O.co2 148  GLU148     -0.2457
     84  OE2       52.9310   24.7390  128.5210 O.co2 148  GLU148     -0.2457
     85  N         56.0260   20.6930  125.4680 N.3   150  ILE150     -0.1245
     86  CA        57.1700   21.5940  125.4130 C.3   150  ILE150      0.1561
     87  C         58.3750   20.7250  125.0720 C.2   150  ILE150      0.2260
     88  O         59.2700   20.5330  125.8940 O.2   150  ILE150     -0.2867
     89  CB        57.4130   22.3630  126.7450 C.3   150  ILE150      0.0252
     90  CG1       56.0860   22.8330  127.3340 C.3   150  ILE150      0.0019
     91  CG2       58.3390   23.5580  126.5010 C.3   150  ILE150      0.0019
     92  CD1       56.2050   23.6630  128.6370 C.3   150  ILE150      0.0001
     93  N         50.9270   20.2410  133.7860 N.3   157  ILE157     -0.1245
     94  CA        51.5550   21.2550  134.6250 C.3   157  ILE157      0.1561
     95  C         50.5050   22.1640  135.2310 C.2   157  ILE157      0.2260
     96  O         49.3660   22.2140  134.7750 O.2   157  ILE157     -0.2867
     97  CB        52.5790   22.0930  133.8330 C.3   157  ILE157      0.0252
     98  CG1       51.8910   22.8490  132.6980 C.3   157  ILE157      0.0019
     99  CG2       53.6700   21.1890  133.2420 C.3   157  ILE157      0.0019
    100  CD1       52.8490   23.7150  131.8830 C.3   157  ILE157      0.0001
    101  N         50.0850   26.1340  136.5460 N.3   159  ILE159     -0.1245
    102  CA        50.6600   27.4710  136.5790 C.3   159  ILE159      0.1561
    103  C         49.8410   28.3590  137.4940 C.2   159  ILE159      0.2260
    104  O         48.6610   28.6020  137.2440 O.2   159  ILE159     -0.2867
    105  CB        50.7170   28.1010  135.1820 C.3   159  ILE159      0.0252
    106  CG1       51.3600   27.1270  134.1930 C.3   159  ILE159      0.0019
    107  CG2       51.4860   29.4390  135.2250 C.3   159  ILE159      0.0019
    108  CD1       51.6470   27.7560  132.8600 C.3   159  ILE159      0.0001
    109  N         49.5640   32.1100  139.0640 N.3   161  PHE161     -0.1241
    110  CA        50.0560   33.4560  138.8440 C.3   161  PHE161      0.1605
    111  C         50.0530   34.2220  140.1620 C.2   161  PHE161      0.2264
    112  O         49.1500   34.0480  140.9890 O.2   161  PHE161     -0.2867
    113  CB        49.2150   34.1690  137.7740 C.3   161  PHE161      0.0534
    114  CG        49.2630   33.4890  136.4330 C.ar  161  PHE161     -0.0203
    115  CD1       50.2780   33.7790  135.5320 C.ar  161  PHE161     -0.0042
    116  CD2       48.3230   32.5310  136.0950 C.ar  161  PHE161     -0.0042
    117  CE1       50.3460   33.1300  134.3100 C.ar  161  PHE161     -0.0003
    118  CE2       48.3820   31.8850  134.8640 C.ar  161  PHE161     -0.0003
    119  CZ        49.3940   32.1880  133.9790 C.ar  161  PHE161     -0.0000
    120  N         55.4790   27.3930  137.6770 N.3   187  VAL187     -0.1245
    121  CA        55.0180   26.2870  136.8560 C.3   187  VAL187      0.1561
    122  C         55.4250   24.9850  137.5410 C.2   187  VAL187      0.2260
    123  O         56.6120   24.6800  137.6070 O.2   187  VAL187     -0.2867
    124  CB        55.6250   26.3240  135.4350 C.3   187  VAL187      0.0252
    125  CG1       54.9480   25.2880  134.5590 C.3   187  VAL187      0.0019
    126  CG2       55.4770   27.7170  134.8140 C.3   187  VAL187      0.0019
    127  N         59.3160   25.5370  136.3050 N.3   197  ALA197     -0.1245
    128  CA        59.8370   26.8830  136.0460 C.3   197  ALA197      0.1562
    129  C         59.3440   27.9910  136.9900 C.2   197  ALA197      0.2260
    130  O         58.1900   27.9910  137.4210 O.2   197  ALA197     -0.2867
    131  CB        59.5040   27.2900  134.5910 C.3   197  ALA197      0.0290
    132  N         58.5730   31.7480  136.1780 N.3   199  MET199     -0.1245
    133  CA        58.2420   32.3350  134.8870 C.3   199  MET199      0.1570
    134  C         57.8840   33.8020  135.0230 C.2   199  MET199      0.2261
    135  O         57.0940   34.1770  135.8920 O.2   199  MET199     -0.2867
    136  CB        57.0770   31.5590  134.2520 C.3   199  MET199      0.0387
    137  CG        56.5510   32.1330  132.9510 C.3   199  MET199      0.0595
    138  SD        55.1170   31.1790  132.3610 S.3   199  MET199     -0.1393
    139  CE        53.8300   31.7570  133.4510 C.3   199  MET199      0.0692
    140  N         56.5820   37.1230  132.5630 N.3   201  HIS201     -0.1241
    141  CA        56.2050   37.7600  131.3040 C.3   201  HIS201      0.1621
    142  C         55.9240   39.2340  131.5900 C.2   201  HIS201      0.2264
    143  O         55.0340   39.5350  132.3860 O.2   201  HIS201     -0.2867
    144  CB        54.9540   37.1350  130.6960 C.3   201  HIS201      0.0745
    145  CG        55.0870   35.6870  130.3330 C.ar  201  HIS201      0.0817
    146  ND1       55.9550   35.2380  129.3620 N.ar  201  HIS201     -0.2268
    147  CD2       54.4070   34.5960  130.7640 C.ar  201  HIS201      0.1154
    148  CE1       55.8300   33.9280  129.2330 C.ar  201  HIS201      0.1986
    149  NE2       54.8950   33.5130  130.0710 N.ar  201  HIS201     -0.2212
    150  N         62.5200   32.6020  131.9990 N.3   216  TYR216     -0.1241
    151  CA        62.1750   31.3520  132.6720 C.3   216  TYR216      0.1605
    152  C         63.4110   30.7950  133.3440 C.2   216  TYR216      0.2264
    153  O         64.4340   30.6430  132.6950 O.2   216  TYR216     -0.2867
    154  CB        61.6690   30.2810  131.7090 C.3   216  TYR216      0.0534
    155  CG        60.5700   30.6660  130.7540 C.ar  216  TYR216     -0.0201
    156  CD1       60.8350   31.4690  129.6380 C.ar  216  TYR216     -0.0009
    157  CD2       59.2830   30.1770  130.9250 C.ar  216  TYR216     -0.0009
    158  CE1       59.8380   31.7950  128.7480 C.ar  216  TYR216      0.0417
    159  CE2       58.2720   30.5010  130.0310 C.ar  216  TYR216      0.0417
    160  CZ        58.5580   31.3030  128.9470 C.ar  216  TYR216      0.1957
    161  OH        57.5570   31.6220  128.0590 O.3   216  TYR216     -0.2866
    162  N         61.9060   25.4390  125.6840 N.3   250  GLN250     -0.1245
    163  CA        61.0920   26.5560  126.1310 C.3   250  GLN250      0.1566
    164  C         61.3550   27.7990  125.2740 C.2   250  GLN250      0.2260
    165  O         60.4340   28.5700  124.9990 O.2   250  GLN250     -0.2867
    166  CB        61.3610   26.8590  127.6070 C.3   250  GLN250      0.0367
    167  CG        60.4250   27.8850  128.1820 C.3   250  GLN250      0.0905
    168  CD        58.9720   27.4360  128.1380 C.2   250  GLN250      0.2608
    169  OE1       58.1220   28.0650  127.4850 O.2   250  GLN250     -0.2717
    170  NE2       58.6780   26.3540  128.8330 N.am  250  GLN250     -0.0878
    171  N         59.5140   27.1410  122.0750 N.3   253  HIS253     -0.1241
    172  CA        58.0930   27.1800  122.4110 C.3   253  HIS253      0.1621
    173  C         57.5690   28.6210  122.5720 C.2   253  HIS253      0.2264
    174  O         56.5530   28.9980  121.9630 O.2   253  HIS253     -0.2867
    175  CB        57.8760   26.3640  123.6940 C.3   253  HIS253      0.0745
    176  CG        56.4420   26.1550  124.0670 C.ar  253  HIS253      0.0817
    177  ND1       55.7090   25.0730  123.6210 N.ar  253  HIS253     -0.2268
    178  CD2       55.6220   26.8520  124.8920 C.ar  253  HIS253      0.1154
    179  CE1       54.4960   25.1200  124.1460 C.ar  253  HIS253      0.1986
    180  NE2       54.4150   26.1920  124.9170 N.ar  253  HIS253     -0.2212
    181  N         54.8710   30.3820  119.9810 N.3   257  GLU257     -0.1231
    182  CA        53.4870   30.6810  120.3380 C.3   257  GLU257      0.1699
    183  C         53.2360   32.1710  120.5710 C.2   257  GLU257      0.2592
    184  O         52.1650   32.6930  120.2540 O.2   257  GLU257     -0.2718
    185  CB        53.0670   29.8800  121.5740 C.3   257  GLU257      0.0402
    186  CG        53.7390   30.2790  122.8790 C.3   257  GLU257      0.1161
    187  CD        53.2420   29.4310  124.0330 C.2   257  GLU257      0.3649
    188  OE1       52.4000   28.5450  123.7950 O.co2 257  GLU257     -0.2457
    189  OE2       53.7000   29.6350  125.1730 O.co2 257  GLU257     -0.2457
    190  N         54.2140   32.8830  121.1040 N.am  258  PHE258     -0.1976
    191  CA        53.9600   34.3040  121.3320 C.3   258  PHE258      0.1639
    192  C         54.0670   35.0950  120.0380 C.2   258  PHE258      0.2290
    193  O         53.3380   36.0730  119.8550 O.2   258  PHE258     -0.2864
    194  CB        54.8920   34.8550  122.4050 C.3   258  PHE258      0.0560
    195  CG        54.4670   34.4820  123.7920 C.ar  258  PHE258     -0.0200
    196  CD1       53.2880   34.9910  124.3180 C.ar  258  PHE258     -0.0042
    197  CD2       55.2250   33.6140  124.5630 C.ar  258  PHE258     -0.0042
    198  CE1       52.8710   34.6480  125.6060 C.ar  258  PHE258     -0.0003
    199  CE2       54.8170   33.2720  125.8480 C.ar  258  PHE258     -0.0003
    200  CZ        53.6420   33.7920  126.3710 C.ar  258  PHE258     -0.0000
@<TRIPOS>BOND
     1   193   192    2
     2    37    36    2
     3   181   182    1
     4   192   191    1
     5   184   183    2
     6   182   183    1
     7   182   185    1
     8    36    35    1
     9    34    35    1
    10   183   190   am
    11    35    38    1
    12   190   191    1
    13   191   194    1
    14   185   186    1
    15   174   173    2
    16   171   172    1
    17    48    49    1
    18   194   195    1
    19   172   173    1
    20   172   175    1
    21    38    39    1
    22    51    50    2
    23    40    39   ar
    24    40    42   ar
    25   186   187    1
    26    25    24    2
    27    39    41   ar
    28    24    23    1
    29    50    49    1
    30    52    49    1
    31    52    53    1
    32    42    43   ar
    33   177   176   ar
    34   177   179   ar
    35   175   176    1
    36    54    53   ar
    37    54    56   ar
    38   195   196   ar
    39   195   197   ar
    40   188   187   ar
    41    53    55   ar
    42   187   189   ar
    43   176   178   ar
    44   179   180   ar
    45    22    23    1
    46    56    57   ar
    47   196   198   ar
    48    55    57   ar
    49    23    26    1
    50    41    43   ar
    51    41    44   ar
    52   197   199   ar
    53    43    45   ar
    54   178   180   ar
    55   165   164    2
    56    87    86    1
    57    87    88    2
    58   164   163    1
    59    86    85    1
    60    86    89    1
    61   198   200   ar
    62    44    46   ar
    63    26    27    1
    64   162   163    1
    65   199   200   ar
    66    45    47   ar
    67   163   166    1
    68    27    29   ar
    69    27    28   ar
    70    78    77    1
    71    78    79    2
    72    29    31   ar
    73    83    82   ar
    74    91    89    1
    75    16    13    1
    76    16    17    1
    77    28    30   ar
    78    77    80    1
    79    77    76    1
    80    80    81    1
    81    89    90    1
    82    31    32   ar
    83    46    47   ar
    84    13    12    1
    85    13    14    1
    86    30    32   ar
    87    32    33    1
    88    90    92    1
    89    15    14    2
    90   169   168    2
    91    82    81    1
    92    82    84   ar
    93   166   167    1
    94    17    19   ar
    95    17    18   ar
    96   161   160    1
    97    19    21   ar
    98   168   167    1
    99   168   170   am
   100    18    20   ar
   101   158   160   ar
   102   158   156   ar
   103     9     7   ar
   104     9    11   ar
   105   160   159   ar
   106     1     2    1
   107    21    20   ar
   108     7     6   ar
   109   148   146   ar
   110   148   149   ar
   111   146   145   ar
   112    11    10   ar
   113   156   155   ar
   114     2     5    1
   115     2     3    1
   116    74    72    1
   117   159   157   ar
   118   149   147   ar
   119   145   144    1
   120   145   147   ar
   121     6     5    1
   122     6     8   ar
   123   144   141    1
   124   155   157   ar
   125   155   154    1
   126    10     8   ar
   127     3     4    2
   128    70    69    1
   129    70    71    2
   130    73    75    1
   131    73    72    1
   132    72    69    1
   133   141   142    1
   134   141   140    1
   135    69    68    1
   136   142   143    2
   137   154   151    1
   138   100    98    1
   139   150   151    1
   140   138   137    1
   141   138   139    1
   142   151   152    1
   143   153   152    2
   144    98    97    1
   145   108   106    1
   146   137   136    1
   147    64    66   ar
   148    64    63   ar
   149    99    97    1
   150    66    67   ar
   151    93    94    1
   152    97    94    1
   153   119   117   ar
   154   119   118   ar
   155    63    62    1
   156    63    65   ar
   157    62    59    1
   158   106   105    1
   159   136   133    1
   160   117   115   ar
   161    67    65   ar
   162   125   124    1
   163   131   128    1
   164    94    95    1
   165    96    95    2
   166   126   124    1
   167   118   116   ar
   168   133   134    1
   169   133   132    1
   170   134   135    2
   171   105   107    1
   172   105   102    1
   173    60    61    2
   174    60    59    1
   175    59    58    1
   176   124   121    1
   177   115   114   ar
   178   128   127    1
   179   128   129    1
   180   116   114   ar
   181   114   113    1
   182   101   102    1
   183   102   103    1
   184   121   122    1
   185   121   120    1
   186   129   130    2
   187   104   103    2
   188   122   123    2
   189   113   110    1
   190   110   109    1
   191   110   111    1
   192   111   112    2
