@<TRIPOS>MOLECULE
tmp/5xezB03.pdb
 146 141 0 0 0
SMALL
GASTEIGER

@<TRIPOS>ATOM
      1  N         55.9480 -142.9820  -69.1200 N.3   409  LEU409     -0.1245
      2  CA        54.7380 -143.2790  -69.8970 C.3   409  LEU409      0.1561
      3  C         55.0430 -143.8770  -71.2750 C.2   409  LEU409      0.2260
      4  O         54.2410 -144.6650  -71.7800 O.2   409  LEU409     -0.2867
      5  CB        53.8690 -142.0230  -70.0440 C.3   409  LEU409      0.0270
      6  CG        52.3900 -142.2600  -70.3840 C.3   409  LEU409      0.0019
      7  CD1       51.5760 -142.5220  -69.1240 C.3   409  LEU409      0.0001
      8  CD2       51.8070 -141.0840  -71.1530 C.3   409  LEU409      0.0001
      9  N         42.5470 -146.2330  -67.4440 N.3   423  TYR423     -0.1241
     10  CA        42.4830 -145.1540  -66.4270 C.3   423  TYR423      0.1605
     11  C         43.8130 -144.4930  -66.0350 C.2   423  TYR423      0.2264
     12  O         43.8390 -143.3060  -65.7330 O.2   423  TYR423     -0.2867
     13  CB        41.7630 -145.6510  -65.1530 C.3   423  TYR423      0.0534
     14  CG        42.6430 -146.4350  -64.1780 C.ar  423  TYR423     -0.0201
     15  CD1       43.1420 -145.8070  -63.0300 C.ar  423  TYR423     -0.0009
     16  CD2       43.0150 -147.7670  -64.4060 C.ar  423  TYR423     -0.0009
     17  CE1       43.9540 -146.4780  -62.1320 C.ar  423  TYR423      0.0417
     18  CE2       43.8370 -148.4520  -63.5050 C.ar  423  TYR423      0.0417
     19  CZ        44.3010 -147.7980  -62.3700 C.ar  423  TYR423      0.1957
     20  OH        45.1100 -148.4480  -61.4670 O.3   423  TYR423     -0.2866
     21  N         46.4250 -143.9810  -68.0230 N.3   425  PHE425     -0.1227
     22  CA        46.6640 -143.0100  -69.0970 C.3   425  PHE425      0.1736
     23  C         45.6450 -141.8730  -69.0610 C.2   425  PHE425      0.2595
     24  O         46.0100 -140.7090  -69.2470 O.2   425  PHE425     -0.2718
     25  CB        46.6200 -143.6950  -70.4660 C.3   425  PHE425      0.0547
     26  CG        46.8370 -142.7870  -71.6560 C.ar  425  PHE425     -0.0202
     27  CD1       47.9630 -142.0230  -71.7930 C.ar  425  PHE425     -0.0042
     28  CD2       45.9200 -142.7420  -72.6750 C.ar  425  PHE425     -0.0042
     29  CE1       48.2300 -141.2460  -72.9010 C.ar  425  PHE425     -0.0003
     30  CE2       46.1610 -141.9650  -73.8360 C.ar  425  PHE425     -0.0003
     31  CZ        47.2860 -141.2170  -73.8960 C.ar  425  PHE425     -0.0000
     32  N         44.3770 -142.2230  -68.8290 N.am  426  ARG426     -0.1966
     33  CA        43.2850 -141.2430  -68.7110 C.3   426  ARG426      0.1729
     34  C         43.5810 -140.1530  -67.6730 C.2   426  ARG426      0.2616
     35  O         43.4020 -138.9700  -67.9500 O.2   426  ARG426     -0.2715
     36  CB        41.9570 -141.9250  -68.3450 C.3   426  ARG426      0.0348
     37  CG        41.4420 -142.9630  -69.3390 C.3   426  ARG426      0.0492
     38  CD        39.9180 -143.0470  -69.3410 C.3   426  ARG426      0.2205
     39  NE        39.3520 -143.3790  -68.0260 N.pl3 426  ARG426     -0.0865
     40  CZ        39.2370 -144.6070  -67.5060 C.cat 426  ARG426      0.5346
     41  NH1       39.6610 -145.6870  -68.1610 N.pl3 426  ARG426      0.1354
     42  NH2       38.6960 -144.7590  -66.2970 N.pl3 426  ARG426      0.1354
     43  N         44.0490 -140.5630  -66.4930 N.am  427  LEU427     -0.1963
     44  CA        44.3730 -139.6330  -65.3980 C.3   427  LEU427      0.1728
     45  C         45.5440 -138.6970  -65.7240 C.2   427  LEU427      0.2616
     46  O         45.5930 -137.5740  -65.2180 O.2   427  LEU427     -0.2715
     47  CB        44.6820 -140.4070  -64.1090 C.3   427  LEU427      0.0311
     48  CG        44.8210 -139.6110  -62.8040 C.3   427  LEU427      0.0022
     49  CD1       43.4630 -139.1560  -62.2940 C.3   427  LEU427      0.0001
     50  CD2       45.5320 -140.4400  -61.7450 C.3   427  LEU427      0.0001
     51  N         46.4800 -139.1600  -66.5530 N.am  428  ALA428     -0.1963
     52  CA        47.5960 -138.3230  -67.0100 C.3   428  ALA428      0.1728
     53  C         47.1590 -137.1970  -67.9550 C.2   428  ALA428      0.2616
     54  O         47.8690 -136.2030  -68.0810 O.2   428  ALA428     -0.2715
     55  CB        48.6690 -139.1740  -67.6710 C.3   428  ALA428      0.0334
     56  N         46.0040 -137.3490  -68.6080 N.am  429  LYS429     -0.1963
     57  CA        45.4320 -136.2790  -69.4380 C.3   429  LYS429      0.1728
     58  C         45.0000 -135.0600  -68.6090 C.2   429  LYS429      0.2616
     59  O         44.9830 -133.9430  -69.1240 O.2   429  LYS429     -0.2715
     60  CB        44.2450 -136.7860  -70.2680 C.3   429  LYS429      0.0311
     61  CG        44.5900 -137.8850  -71.2640 C.3   429  LYS429      0.0038
     62  CD        43.3500 -138.3790  -71.9910 C.3   429  LYS429      0.0206
     63  CE        43.6160 -139.6400  -72.7950 C.3   429  LYS429      0.1093
     64  NZ        42.3460 -140.2650  -73.2560 N.3   429  LYS429     -0.1314
     65  N         44.6460 -135.2800  -67.3410 N.am  430  SER430     -0.1950
     66  CA        44.3150 -134.1900  -66.4180 C.3   430  SER430      0.1924
     67  C         45.5630 -133.5580  -65.8040 C.2   430  SER430      0.2314
     68  O         45.7990 -132.3640  -65.9820 O.2   430  SER430     -0.2863
     69  CB        43.3860 -134.6860  -65.3110 C.3   430  SER430      0.2116
     70  OG        42.1410 -135.0760  -65.8510 O.3   430  SER430     -0.2180
     71  N         48.8630 -133.8600  -66.4630 N.3   432  LEU432     -0.1231
     72  CA        49.8900 -133.3660  -67.3980 C.3   432  LEU432      0.1693
     73  C         49.4990 -132.0720  -68.1250 C.2   432  LEU432      0.2592
     74  O         50.3530 -131.4490  -68.7560 O.2   432  LEU432     -0.2718
     75  CB        50.2600 -134.4350  -68.4460 C.3   432  LEU432      0.0284
     76  CG        51.0520 -135.6390  -67.9380 C.3   432  LEU432      0.0019
     77  CD1       51.1920 -136.6350  -69.0650 C.3   432  LEU432      0.0001
     78  CD2       52.4240 -135.2490  -67.4500 C.3   432  LEU432      0.0001
     79  N         48.2230 -131.6830  -68.0700 N.am  433  THR433     -0.1953
     80  CA        47.7960 -130.3880  -68.6040 C.3   433  THR433      0.1897
     81  C         47.9480 -129.2590  -67.5890 C.2   433  THR433      0.2313
     82  O         48.3330 -128.1530  -67.9630 O.2   433  THR433     -0.2863
     83  CB        46.3300 -130.3960  -69.0740 C.3   433  THR433      0.1794
     84  OG1       45.9840 -131.6820  -69.5950 O.3   433  THR433     -0.2208
     85  CG2       46.1360 -129.3390  -70.1470 C.3   433  THR433      0.0378
     86  N         49.9880 -125.5950  -67.5740 N.3   437  LEU437     -0.1245
     87  CA        49.0430 -124.4560  -67.5590 C.3   437  LEU437      0.1561
     88  C         49.2730 -123.5300  -66.3660 C.2   437  LEU437      0.2260
     89  O         49.3680 -122.3120  -66.5310 O.2   437  LEU437     -0.2867
     90  CB        47.5720 -124.9210  -67.5830 C.3   437  LEU437      0.0270
     91  CG        46.7540 -124.4600  -68.7960 C.3   437  LEU437      0.0019
     92  CD1       45.6140 -125.4180  -69.1020 C.3   437  LEU437      0.0001
     93  CD2       46.2260 -123.0480  -68.5740 C.3   437  LEU437      0.0001
     94  N         38.2260 -125.4740  -63.9900 N.3   475  LEU475     -0.1245
     95  CA        39.0700 -126.2680  -64.8960 C.3   475  LEU475      0.1561
     96  C         39.5350 -127.5600  -64.2190 C.2   475  LEU475      0.2260
     97  O         39.3670 -128.6490  -64.7660 O.2   475  LEU475     -0.2867
     98  CB        40.2890 -125.4460  -65.3300 C.3   475  LEU475      0.0270
     99  CG        41.2250 -126.0220  -66.4020 C.3   475  LEU475      0.0019
    100  CD1       40.7590 -125.6270  -67.7960 C.3   475  LEU475      0.0001
    101  CD2       42.6560 -125.5530  -66.1690 C.3   475  LEU475      0.0001
    102  N         38.2910 -131.4100  -65.3500 N.3   479  LEU479     -0.1231
    103  CA        39.1690 -132.4410  -65.9200 C.3   479  LEU479      0.1693
    104  C         39.4040 -133.6460  -65.0120 C.2   479  LEU479      0.2592
    105  O         39.5230 -134.7690  -65.5080 O.2   479  LEU479     -0.2718
    106  CB        40.5210 -131.8440  -66.3090 C.3   479  LEU479      0.0284
    107  CG        40.5280 -130.9070  -67.5170 C.3   479  LEU479      0.0019
    108  CD1       41.9090 -130.3100  -67.6560 C.3   479  LEU479      0.0001
    109  CD2       40.1700 -131.6260  -68.7920 C.3   479  LEU479      0.0001
    110  N         39.4840 -133.4150  -63.7000 N.am  480  TYR480     -0.1976
    111  CA        39.6220 -134.5130  -62.7370 C.3   480  TYR480      0.1639
    112  C         38.2660 -135.1730  -62.4730 C.2   480  TYR480      0.2290
    113  O         38.0450 -136.2970  -62.9090 O.2   480  TYR480     -0.2864
    114  CB        40.2760 -134.0590  -61.4170 C.3   480  TYR480      0.0560
    115  CG        41.7950 -133.9100  -61.4440 C.ar  480  TYR480     -0.0198
    116  CD1       42.6160 -134.8800  -62.0340 C.ar  480  TYR480     -0.0009
    117  CD2       42.4170 -132.8150  -60.8360 C.ar  480  TYR480     -0.0009
    118  CE1       44.0000 -134.7480  -62.0410 C.ar  480  TYR480      0.0417
    119  CE2       43.8010 -132.6770  -60.8390 C.ar  480  TYR480      0.0417
    120  CZ        44.5880 -133.6450  -61.4410 C.ar  480  TYR480      0.1957
    121  OH        45.9590 -133.5100  -61.4420 O.3   480  TYR480     -0.2866
    122  N         35.1010 -135.0310  -65.8800 N.3   483  LEU483     -0.1231
    123  CA        35.4940 -135.7010  -67.1420 C.3   483  LEU483      0.1693
    124  C         36.0150 -137.1410  -66.9620 C.2   483  LEU483      0.2592
    125  O         36.3440 -137.8020  -67.9500 O.2   483  LEU483     -0.2718
    126  CB        36.5250 -134.8540  -67.9180 C.3   483  LEU483      0.0284
    127  CG        35.9760 -133.8360  -68.9250 C.3   483  LEU483      0.0019
    128  CD1       37.0820 -132.9020  -69.3890 C.3   483  LEU483      0.0001
    129  CD2       35.3410 -134.5180  -70.1290 C.3   483  LEU483      0.0001
    130  N         36.0730 -137.6250  -65.7190 N.am  484  ASN484     -0.1960
    131  CA        36.5360 -138.9910  -65.4230 C.3   484  ASN484      0.1819
    132  C         35.5170 -139.9970  -65.9610 C.2   484  ASN484      0.2621
    133  O         34.3140 -139.8280  -65.7430 O.2   484  ASN484     -0.2715
    134  CB        36.6840 -139.1770  -63.8990 C.3   484  ASN484      0.1195
    135  CG        37.8150 -140.1220  -63.4690 C.2   484  ASN484      0.2630
    136  OD1       38.1050 -140.1710  -62.2750 O.2   484  ASN484     -0.2716
    137  ND2       38.4500 -140.8600  -64.3850 N.am  484  ASN484     -0.0877
    138  N         35.9920 -141.0160  -66.6810 N.am  485  LYS485     -0.1977
    139  CA        35.1390 -142.1160  -67.1510 C.3   485  LYS485      0.1596
    140  C         34.4410 -142.8060  -65.9710 C.2   485  LYS485      0.2287
    141  O         33.2110 -142.8160  -65.8980 O.2   485  LYS485     -0.2864
    142  CB        35.9640 -143.1300  -67.9630 C.3   485  LYS485      0.0298
    143  CG        35.1720 -144.2770  -68.5810 C.3   485  LYS485      0.0038
    144  CD        36.0840 -145.2660  -69.2900 C.3   485  LYS485      0.0206
    145  CE        35.2540 -146.3580  -69.9630 C.3   485  LYS485      0.1093
    146  NZ        36.0270 -147.5250  -70.4980 N.3   485  LYS485     -0.1314
@<TRIPOS>BOND
     1    31    30   ar
     2    31    29   ar
     3    30    28   ar
     4    64    63    1
     5    29    27   ar
     6    63    62    1
     7    28    26   ar
     8    62    61    1
     9    27    26   ar
    10     4     3    2
    11    26    25    1
    12     3     2    1
    13    61    60    1
    14     8     6    1
    15   146   145    1
    16    25    22    1
    17     6     5    1
    18     6     7    1
    19    60    57    1
    20    85    83    1
    21   129   127    1
    22     5     2    1
    23   145   144    1
    24     2     1    1
    25    84    83    1
    26    57    58    1
    27    57    56    1
    28   128   127    1
    29    38    37    1
    30    38    39    1
    31    37    36    1
    32   144   143    1
    33    24    23    2
    34    59    58    2
    35    92    91    1
    36    22    23    1
    37    22    21    1
    38    83    80    1
    39    77    76    1
    40    23    32   am
    41   127   126    1
    42    32    33    1
    43    91    93    1
    44    91    90    1
    45   109   107    1
    46    74    73    2
    47    33    36    1
    48    33    34    1
    49    58    65   am
    50    56    53   am
    51    80    79    1
    52    80    81    1
    53   143   142    1
    54    75    76    1
    55    75    72    1
    56    41    40    1
    57    73    79   am
    58    73    72    1
    59    54    53    2
    60    39    40    2
    61   142   139    1
    62    82    81    2
    63    53    52    1
    64   125   124    2
    65    35    34    2
    66    76    78    1
    67   126   123    1
    68   100    99    1
    69    34    43   am
    70    55    52    1
    71   108   107    1
    72    90    87    1
    73    86    87    1
    74    87    88    1
    75   107   106    1
    76    40    42    1
    77     9    10    1
    78    72    71    1
    79    65    66    1
    80   139   138    1
    81   139   140    1
    82   123   124    1
    83   123   122    1
    84    52    51    1
    85   124   130   am
    86   138   132   am
    87    51    45   am
    88    89    88    2
    89    43    44    1
    90    10    11    1
    91    10    13    1
    92    66    67    1
    93    66    69    1
    94    99   101    1
    95    99    98    1
    96   106   103    1
    97    11    12    2
    98    68    67    2
    99   140   141    2
   100   132   133    2
   101   132   131    1
   102   103   102    1
   103   103   104    1
   104    70    69    1
   105    45    44    1
   106    45    46    2
   107   130   131    1
   108   105   104    2
   109   131   134    1
   110    44    47    1
   111    98    95    1
   112    13    14    1
   113   104   110   am
   114    95    96    1
   115    95    94    1
   116    97    96    2
   117    16    14   ar
   118    16    18   ar
   119   137   135   am
   120    14    15   ar
   121    47    48    1
   122   134   135    1
   123   110   111    1
   124    18    19   ar
   125   135   136    2
   126    15    17   ar
   127   113   112    2
   128    48    49    1
   129    48    50    1
   130   111   112    1
   131   111   114    1
   132    19    17   ar
   133    19    20    1
   134   118   116   ar
   135   118   120   ar
   136   116   115   ar
   137   115   114    1
   138   115   117   ar
   139   121   120    1
   140   120   119   ar
   141   119   117   ar
