@<TRIPOS>MOLECULE
tmp/5xezA02.pdb
 149 144 0 0 0
SMALL
GASTEIGER

@<TRIPOS>ATOM
      1  N         48.7780   21.3840   -0.2510 N.3   147  ARG147     -0.1245
      2  CA        48.2910   20.6280   -1.4140 C.3   147  ARG147      0.1563
      3  C         49.0360   19.3010   -1.5910 C.2   147  ARG147      0.2260
      4  O         48.4230   18.2860   -1.9220 O.2   147  ARG147     -0.2867
      5  CB        48.4270   21.4650   -2.6860 C.3   147  ARG147      0.0307
      6  CG        47.7780   20.8550   -3.9210 C.3   147  ARG147      0.0489
      7  CD        47.9940   21.7320   -5.1440 C.3   147  ARG147      0.2205
      8  NE        49.2160   21.3720   -5.8720 N.pl3 147  ARG147     -0.0865
      9  CZ        49.9370   22.1930   -6.6430 C.cat 147  ARG147      0.5346
     10  NH1       49.6040   23.4760   -6.8100 N.pl3 147  ARG147      0.1354
     11  NH2       51.0230   21.7240   -7.2540 N.pl3 147  ARG147      0.1354
     12  N         47.3460   26.1370  -12.5830 N.3   470  TYR470     -0.1241
     13  CA        47.5070   24.9750  -11.6810 C.3   470  TYR470      0.1605
     14  C         46.2230   24.3130  -11.1330 C.2   470  TYR470      0.2264
     15  O         46.1930   23.0850  -10.9480 O.2   470  TYR470     -0.2867
     16  CB        48.4280   25.3630  -10.5130 C.3   470  TYR470      0.0534
     17  CG        47.9400   26.5570   -9.7090 C.ar  470  TYR470     -0.0201
     18  CD1       48.3090   27.8650  -10.0770 C.ar  470  TYR470     -0.0009
     19  CD2       47.1170   26.4000   -8.6060 C.ar  470  TYR470     -0.0009
     20  CE1       47.8720   28.9720   -9.3710 C.ar  470  TYR470      0.0417
     21  CE2       46.6750   27.5050   -7.8870 C.ar  470  TYR470      0.0417
     22  CZ        47.0550   28.7890   -8.2730 C.ar  470  TYR470      0.1957
     23  OH        46.6250   29.8920   -7.5700 O.3   470  TYR470     -0.2866
     24  N         43.3370   24.0430  -12.7660 N.3   472  PHE472     -0.1227
     25  CA        42.9000   23.1990  -13.8860 C.3   472  PHE472      0.1736
     26  C         43.8750   22.0420  -14.1160 C.2   472  PHE472      0.2595
     27  O         43.4470   20.9150  -14.3770 O.2   472  PHE472     -0.2718
     28  CB        42.7750   24.0250  -15.1670 C.3   472  PHE472      0.0547
     29  CG        42.3460   23.2570  -16.3980 C.ar  472  PHE472     -0.0202
     30  CD1       41.1790   22.5460  -16.4420 C.ar  472  PHE472     -0.0042
     31  CD2       43.1020   23.2960  -17.5420 C.ar  472  PHE472     -0.0042
     32  CE1       40.7180   21.9010  -17.5710 C.ar  472  PHE472     -0.0003
     33  CE2       42.6600   22.6560  -18.7270 C.ar  472  PHE472     -0.0003
     34  CZ        41.5050   21.9520  -18.6940 C.ar  472  PHE472     -0.0000
     35  N         45.1780   22.3330  -14.0290 N.am  473  ARG473     -0.1966
     36  CA        46.2380   21.3170  -14.1670 C.3   473  ARG473      0.1729
     37  C         46.0420   20.1310  -13.2150 C.2   473  ARG473      0.2616
     38  O         46.1360   18.9800  -13.6340 O.2   473  ARG473     -0.2715
     39  CB        47.6310   21.9190  -13.9200 C.3   473  ARG473      0.0348
     40  CG        48.0510   23.0290  -14.8770 C.3   473  ARG473      0.0492
     41  CD        49.5610   23.0650  -15.0900 C.3   473  ARG473      0.2205
     42  NE        50.3180   23.2560  -13.8490 N.pl3 473  ARG473     -0.0865
     43  CZ        50.5520   24.4260  -13.2460 C.cat 473  ARG473      0.5346
     44  NH1       50.0840   25.5740  -13.7400 N.pl3 473  ARG473      0.1354
     45  NH2       51.2620   24.4490  -12.1180 N.pl3 473  ARG473      0.1354
     46  N         45.7550   20.4250  -11.9460 N.am  474  LEU474     -0.1963
     47  CA        45.5410   19.3910  -10.9210 C.3   474  LEU474      0.1728
     48  C         44.3010   18.5260  -11.1770 C.2   474  LEU474      0.2616
     49  O         44.2760   17.3580  -10.7880 O.2   474  LEU474     -0.2715
     50  CB        45.4380   20.0320   -9.5340 C.3   474  LEU474      0.0311
     51  CG        45.4400   19.1060   -8.3090 C.3   474  LEU474      0.0022
     52  CD1       46.8370   18.5690   -8.0380 C.3   474  LEU474      0.0001
     53  CD2       44.9060   19.8350   -7.0850 C.3   474  LEU474      0.0001
     54  N         43.2810   19.0980  -11.8180 N.am  475  ALA475     -0.1963
     55  CA        42.0810   18.3450  -12.2060 C.3   475  ALA475      0.1728
     56  C         42.3500   17.3140  -13.3070 C.2   475  ALA475      0.2616
     57  O         41.5940   16.3580  -13.4380 O.2   475  ALA475     -0.2715
     58  CB        40.9590   19.2880  -12.6260 C.3   475  ALA475      0.0334
     59  N         43.4150   17.5040  -14.0890 N.am  476  LYS476     -0.1963
     60  CA        43.8290   16.5110  -15.0910 C.3   476  LYS476      0.1728
     61  C         44.3220   15.2010  -14.4610 C.2   476  LYS476      0.2616
     62  O         44.2290   14.1450  -15.0870 O.2   476  LYS476     -0.2715
     63  CB        44.9100   17.0720  -16.0210 C.3   476  LYS476      0.0311
     64  CG        44.4720   18.2750  -16.8460 C.3   476  LYS476      0.0038
     65  CD        45.6230   18.8050  -17.6850 C.3   476  LYS476      0.0206
     66  CE        45.3020   20.1470  -18.3210 C.3   476  LYS476      0.1093
     67  NZ        46.5310   20.7690  -18.8860 N.3   476  LYS476     -0.1314
     68  N         44.8500   15.2790  -13.2390 N.am  477  SER477     -0.1950
     69  CA        45.2630   14.0930  -12.4870 C.3   477  SER477      0.1924
     70  C         44.0860   13.4270  -11.7790 C.2   477  SER477      0.2314
     71  O         43.7860   12.2610  -12.0440 O.2   477  SER477     -0.2863
     72  CB        46.3460   14.4490  -11.4730 C.3   477  SER477      0.2116
     73  OG        47.5220   14.8710  -12.1350 O.3   477  SER477     -0.2180
     74  N         40.7340   13.8640  -11.9620 N.3   479  LEU479     -0.1231
     75  CA        39.5750   13.4680  -12.7930 C.3   479  LEU479      0.1693
     76  C         39.8300   12.2560  -13.6880 C.2   479  LEU479      0.2592
     77  O         38.8830   11.7320  -14.2670 O.2   479  LEU479     -0.2718
     78  CB        39.0810   14.6050  -13.6930 C.3   479  LEU479      0.0284
     79  CG        38.4220   15.8600  -13.1180 C.3   479  LEU479      0.0019
     80  CD1       38.1320   16.8340  -14.2520 C.3   479  LEU479      0.0001
     81  CD2       37.1390   15.5160  -12.3750 C.3   479  LEU479      0.0001
     82  N         41.0890   11.8480  -13.8490 N.am  480  THR480     -0.1953
     83  CA        41.4010   10.6120  -14.5650 C.3   480  THR480      0.1897
     84  C         41.3450    9.3860  -13.6580 C.2   480  THR480      0.2313
     85  O         40.8750    8.3330  -14.0860 O.2   480  THR480     -0.2863
     86  CB        42.7910   10.6440  -15.2220 C.3   480  THR480      0.1794
     87  OG1       43.0980   11.9730  -15.6550 O.3   480  THR480     -0.2208
     88  CG2       42.8070    9.7030  -16.4120 C.3   480  THR480      0.0378
     89  N         39.1970    5.7840  -13.7420 N.3   484  LEU484     -0.1245
     90  CA        40.0970    4.6310  -13.9710 C.3   484  LEU484      0.1561
     91  C         39.9930    3.5870  -12.8610 C.2   484  LEU484      0.2260
     92  O         39.8350    2.3960  -13.1360 O.2   484  LEU484     -0.2867
     93  CB        41.5670    5.0640  -14.1420 C.3   484  LEU484      0.0270
     94  CG        42.2030    4.7190  -15.4950 C.3   484  LEU484      0.0019
     95  CD1       43.3280    5.6780  -15.8470 C.3   484  LEU484      0.0001
     96  CD2       42.7040    3.2790  -15.4960 C.3   484  LEU484      0.0001
     97  N         51.3040    4.9940  -11.7710 N.3   522  LEU522     -0.1245
     98  CA        50.3820    5.8960  -12.4760 C.3   522  LEU522      0.1561
     99  C         50.0590    7.1180  -11.6190 C.2   522  LEU522      0.2260
    100  O         50.1940    8.2540  -12.0720 O.2   522  LEU522     -0.2867
    101  CB        49.0880    5.1530  -12.8220 C.3   522  LEU522      0.0270
    102  CG        48.0460    5.8600  -13.6980 C.3   522  LEU522      0.0019
    103  CD1       48.3120    5.5950  -15.1740 C.3   522  LEU522      0.0001
    104  CD2       46.6390    5.4100  -13.3250 C.3   522  LEU522      0.0001
    105  N         51.2520   11.0340  -12.5430 N.3   526  LEU526     -0.1231
    106  CA        50.3390   12.1460  -12.9010 C.3   526  LEU526      0.1693
    107  C         50.2580   13.2510  -11.8340 C.2   526  LEU526      0.2592
    108  O         50.1460   14.4240  -12.1900 O.2   526  LEU526     -0.2718
    109  CB        48.9390   11.6810  -13.3830 C.3   526  LEU526      0.0284
    110  CG        48.0950   10.6050  -12.6950 C.3   526  LEU526      0.0019
    111  CD1       47.9700   10.8520  -11.2040 C.3   526  LEU526      0.0001
    112  CD2       46.7230   10.5100  -13.3520 C.3   526  LEU526      0.0001
    113  N         50.3640   12.8930  -10.5510 N.am  527  TYR527     -0.1976
    114  CA        50.4100   13.8930   -9.4720 C.3   527  TYR527      0.1639
    115  C         51.8160   14.4900   -9.3270 C.2   527  TYR527      0.2290
    116  O         52.0210   15.6480   -9.6760 O.2   527  TYR527     -0.2864
    117  CB        49.9220   13.3280   -8.1230 C.3   527  TYR527      0.0560
    118  CG        48.4080   13.2220   -7.9570 C.ar  527  TYR527     -0.0198
    119  CD1       47.5520   14.2700   -8.3300 C.ar  527  TYR527     -0.0009
    120  CD2       47.8300   12.0840   -7.3880 C.ar  527  TYR527     -0.0009
    121  CE1       46.1740   14.1730   -8.1620 C.ar  527  TYR527      0.0417
    122  CE2       46.4520   11.9820   -7.2190 C.ar  527  TYR527      0.0417
    123  CZ        45.6290   13.0260   -7.6060 C.ar  527  TYR527      0.1957
    124  OH        44.2660   12.9240   -7.4380 O.3   527  TYR527     -0.2866
    125  N         54.4920   14.6190  -13.1220 N.3   530  LEU530     -0.1231
    126  CA        53.9600   15.4200  -14.2500 C.3   530  LEU530      0.1693
    127  C         53.5230   16.8450  -13.8620 C.2   530  LEU530      0.2592
    128  O         53.0880   17.6150  -14.7230 O.2   530  LEU530     -0.2718
    129  CB        52.8050   14.6820  -14.9600 C.3   530  LEU530      0.0284
    130  CG        53.1760   13.7600  -16.1270 C.3   530  LEU530      0.0019
    131  CD1       51.9860   12.9040  -16.5260 C.3   530  LEU530      0.0001
    132  CD2       53.6670   14.5480  -17.3320 C.3   530  LEU530      0.0001
    133  N         53.6570   17.1990  -12.5840 N.am  531  ASN531     -0.1960
    134  CA        53.2980   18.5350  -12.1000 C.3   531  ASN531      0.1819
    135  C         54.2640   19.5700  -12.6720 C.2   531  ASN531      0.2621
    136  O         55.4770   19.3530  -12.6350 O.2   531  ASN531     -0.2715
    137  CB        53.3490   18.5860  -10.5620 C.3   531  ASN531      0.1195
    138  CG        52.3350   19.5530   -9.9710 C.2   531  ASN531      0.2630
    139  OD1       52.3980   20.7610  -10.2060 O.2   531  ASN531     -0.2716
    140  ND2       51.3840   19.0250   -9.2050 N.am  531  ASN531     -0.0877
    141  N         53.7310   20.6720  -13.2090 N.am  532  LYS532     -0.1977
    142  CA        54.5560   21.7900  -13.6840 C.3   532  LYS532      0.1596
    143  C         55.4390   22.3390  -12.5510 C.2   532  LYS532      0.2287
    144  O         56.6720   22.3070  -12.6570 O.2   532  LYS532     -0.2864
    145  CB        53.6710   22.9010  -14.2810 C.3   532  LYS532      0.0298
    146  CG        54.4230   24.0790  -14.9050 C.3   532  LYS532      0.0038
    147  CD        53.4540   25.1570  -15.3990 C.3   532  LYS532      0.0206
    148  CE        54.1020   26.2950  -16.1900 C.3   532  LYS532      0.1093
    149  NZ        55.2490   26.9460  -15.4980 N.3   532  LYS532     -0.1314
@<TRIPOS>BOND
     1    67    66    1
     2    33    34   ar
     3    33    31   ar
     4    34    32   ar
     5    66    65    1
     6    65    64    1
     7    32    30   ar
     8    31    29   ar
     9   132   130    1
    10    64    63    1
    11   131   130    1
    12    30    29   ar
    13    88    86    1
    14    29    28    1
    15   148   149    1
    16   148   147    1
    17   130   129    1
    18    63    60    1
    19    95    94    1
    20    87    86    1
    21    96    94    1
    22    94    93    1
    23   147   146    1
    24    86    83    1
    25   103   102    1
    26    28    25    1
    27    60    61    1
    28    60    59    1
    29    41    40    1
    30    41    42    1
    31    62    61    2
    32   129   126    1
    33   146   145    1
    34    40    39    1
    35   128   127    2
    36    83    82    1
    37    83    84    1
    38    61    68   am
    39    27    26    2
    40   145   142    1
    41    77    76    2
    42    80    79    1
    43   126   127    1
    44   126   125    1
    45    36    35    1
    46    36    39    1
    47    36    37    1
    48    93    90    1
    49    26    35   am
    50    26    25    1
    51    59    56   am
    52    85    84    2
    53    90    89    1
    54    90    91    1
    55    25    24    1
    56   127   133   am
    57    82    76   am
    58    42    43    2
    59    44    43    1
    60   102   104    1
    61   102   101    1
    62    78    79    1
    63    78    75    1
    64    76    75    1
    65   142   141    1
    66   142   143    1
    67    38    37    2
    68    57    56    2
    69   109   106    1
    70   109   110    1
    71   112   110    1
    72    56    55    1
    73    43    45    1
    74    68    69    1
    75    37    46   am
    76   141   135   am
    77    92    91    2
    78    79    81    1
    79   106   105    1
    80   106   107    1
    81   101    98    1
    82    75    74    1
    83   110   111    1
    84   135   136    2
    85   135   134    1
    86   144   143    2
    87    58    55    1
    88   133   134    1
    89    12    13    1
    90    69    70    1
    91    69    72    1
    92    98    97    1
    93    98    99    1
    94    55    54    1
    95   108   107    2
    96    73    72    1
    97   134   137    1
    98   100    99    2
    99    71    70    2
   100    46    47    1
   101   107   113   am
   102    54    48   am
   103    13    14    1
   104    13    16    1
   105    48    47    1
   106    48    49    2
   107    14    15    2
   108    47    50    1
   109   137   138    1
   110   113   114    1
   111    16    17    1
   112   139   138    2
   113    18    17   ar
   114    18    20   ar
   115   138   140   am
   116    17    19   ar
   117   116   115    2
   118    50    51    1
   119   114   115    1
   120   114   117    1
   121    20    22   ar
   122    19    21   ar
   123   119   121   ar
   124   119   118   ar
   125    51    52    1
   126    51    53    1
   127    22    21   ar
   128    22    23    1
   129   121   123   ar
   130   117   118    1
   131   118   120   ar
   132   123   124    1
   133   123   122   ar
   134   120   122   ar
   135    11     9    1
   136    10     9    1
   137     9     8    2
   138     8     7    1
   139     7     6    1
   140     6     5    1
   141     5     2    1
   142     4     3    2
   143     3     2    1
   144     2     1    1
