@<TRIPOS>MOLECULE
tmp/5xf2D00.pdb
 139 134 0 0 0
SMALL
GASTEIGER

@<TRIPOS>ATOM
      1  N         32.6930  111.0630  -40.1720 N.3    26  THR26      -0.1203
      2  CA        33.0630  111.1920  -41.5610 C.3    26  THR26       0.1994
      3  C         32.3030  110.1150  -42.3190 C.2    26  THR26       0.2618
      4  O         31.7620  109.1930  -41.7060 O.2    26  THR26      -0.2717
      5  CB        34.5980  111.0820  -41.7670 C.3    26  THR26       0.1784
      6  OG1       34.9320  111.5450  -43.0840 O.3    26  THR26      -0.2211
      7  CG2       35.0850  109.6280  -41.6100 C.3    26  THR26       0.0376
      8  N         32.2220  110.2440  -43.6440 N.am   27  ASN27      -0.1960
      9  CA        31.4780  109.2720  -44.4390 C.3    27  ASN27       0.1819
     10  C         32.1450  109.0390  -45.7620 C.2    27  ASN27       0.2622
     11  O         32.9000  109.8790  -46.2240 O.2    27  ASN27      -0.2715
     12  CB        30.0270  109.7300  -44.6550 C.3    27  ASN27       0.1195
     13  CG        29.9230  110.9940  -45.4940 C.2    27  ASN27       0.2630
     14  OD1       29.7580  110.9350  -46.7120 O.2    27  ASN27      -0.2716
     15  ND2       30.0030  112.1470  -44.8440 N.am   27  ASN27      -0.0877
     16  N         31.8670  107.9030  -46.3860 N.am   28  GLY28      -0.1940
     17  CA        32.4740  107.6230  -47.6700 C.3    28  GLY28       0.2014
     18  C         32.0940  106.2440  -48.1320 C.2    28  GLY28       0.2639
     19  O         31.4200  105.5280  -47.4140 O.2    28  GLY28      -0.2714
     20  N         32.5600  105.8660  -49.3180 N.am   29  VAL29      -0.1963
     21  CA        32.2960  104.5420  -49.8640 C.3    29  VAL29       0.1727
     22  C         33.3350  103.5620  -49.3240 C.2    29  VAL29       0.2616
     23  O         32.9970  102.4630  -48.8820 O.2    29  VAL29      -0.2715
     24  CB        32.3490  104.5420  -51.4030 C.3    29  VAL29       0.0290
     25  CG1       32.1990  103.1250  -51.9380 C.3    29  VAL29       0.0023
     26  CG2       31.2690  105.4500  -51.9710 C.3    29  VAL29       0.0023
     27  N         34.5950  103.9830  -49.3530 N.am   30  PHE30      -0.1960
     28  CA        35.6970  103.1660  -48.8680 C.3    30  PHE30       0.1771
     29  C         35.6730  101.7920  -49.5210 C.2    30  PHE30       0.2619
     30  O         35.6910  100.7690  -48.8360 O.2    30  PHE30      -0.2715
     31  CB        35.6340  103.0270  -47.3470 C.3    30  PHE30       0.0574
     32  CG        35.7880  104.3270  -46.6130 C.ar   30  PHE30      -0.0200
     33  CD1       37.0430  104.8750  -46.4000 C.ar   30  PHE30      -0.0042
     34  CD2       34.6790  105.0050  -46.1340 C.ar   30  PHE30      -0.0042
     35  CE1       37.1910  106.0700  -45.7250 C.ar   30  PHE30      -0.0003
     36  CE2       34.8180  106.2030  -45.4570 C.ar   30  PHE30      -0.0003
     37  CZ        36.0740  106.7360  -45.2530 C.ar   30  PHE30      -0.0000
     38  N         35.6270  101.7730  -50.8490 N.am   31  ASP31      -0.1971
     39  CA        35.5970  100.5120  -51.5770 C.3    31  ASP31       0.1709
     40  C         36.8510   99.6830  -51.3140 C.2    31  ASP31       0.2293
     41  O         36.7790   98.5530  -50.8430 O.2    31  ASP31      -0.2864
     42  CB        35.4640  100.7510  -53.0760 C.3    31  ASP31       0.1436
     43  CG        34.8190   99.5800  -53.8080 C.2    31  ASP31       0.3671
     44  OD1       34.5170   98.5580  -53.1580 O.co2  31  ASP31      -0.2456
     45  OD2       34.6760   99.6530  -55.0570 O.co2  31  ASP31      -0.2456
     46  N         43.5490  106.2850  -47.1130 N.3    37  HIS37      -0.1241
     47  CA        42.3500  106.1190  -46.2750 C.3    37  HIS37       0.1621
     48  C         42.6730  106.0090  -44.8000 C.2    37  HIS37       0.2264
     49  O         42.1110  106.7470  -43.9950 O.2    37  HIS37      -0.2867
     50  CB        41.5470  104.8940  -46.7120 C.3    37  HIS37       0.0745
     51  CG        40.7430  105.1070  -47.9510 C.ar   37  HIS37       0.0817
     52  ND1       40.7090  104.1970  -48.9860 N.ar   37  HIS37      -0.2268
     53  CD2       39.8850  106.0940  -48.2920 C.ar   37  HIS37       0.1154
     54  CE1       39.8990  104.6350  -49.9300 C.ar   37  HIS37       0.1986
     55  NE2       39.3860  105.7860  -49.5330 N.ar   37  HIS37      -0.2212
     56  N         44.1770  109.1810  -43.2510 N.3    40  TYR40      -0.1241
     57  CA        43.1060  110.1540  -43.1140 C.3    40  TYR40       0.1605
     58  C         42.1710  109.8030  -41.9350 C.2    40  TYR40       0.2264
     59  O         41.8000  110.6740  -41.1250 O.2    40  TYR40      -0.2867
     60  CB        42.3040  110.2240  -44.4200 C.3    40  TYR40       0.0534
     61  CG        40.9540  110.8700  -44.2440 C.ar   40  TYR40      -0.0201
     62  CD1       40.8560  112.2360  -44.0430 C.ar   40  TYR40      -0.0009
     63  CD2       39.7870  110.1070  -44.2020 C.ar   40  TYR40      -0.0009
     64  CE1       39.6220  112.8410  -43.8560 C.ar   40  TYR40       0.0417
     65  CE2       38.5440  110.7050  -44.0230 C.ar   40  TYR40       0.0417
     66  CZ        38.4700  112.0720  -43.8490 C.ar   40  TYR40       0.1957
     67  OH        37.2550  112.6870  -43.6660 O.3    40  TYR40      -0.2866
     68  N         28.1050  104.4440  -47.3630 N.3    56  ASN56      -0.1240
     69  CA        27.0330  104.2850  -48.3560 C.3    56  ASN56       0.1653
     70  C         26.6370  102.8470  -48.6250 C.2    56  ASN56       0.2266
     71  O         27.4990  102.0050  -48.8520 O.2    56  ASN56      -0.2867
     72  CB        27.4500  104.8950  -49.6860 C.3    56  ASN56       0.1155
     73  CG        27.8160  106.3220  -49.5590 C.2    56  ASN56       0.2627
     74  OD1       28.8870  106.6480  -49.0530 O.2    56  ASN56      -0.2716
     75  ND2       26.9310  107.2060  -50.0040 N.am   56  ASN56      -0.0877
     76  N         25.5570  108.7360  -58.0880 N.3    63  LEU63      -0.1245
     77  CA        26.6750  109.6570  -57.8820 C.3    63  LEU63       0.1561
     78  C         27.5430  109.7740  -59.1320 C.2    63  LEU63       0.2260
     79  O         27.3650  109.0180  -60.0880 O.2    63  LEU63      -0.2867
     80  CB        27.5250  109.2090  -56.6910 C.3    63  LEU63       0.0270
     81  CG        28.3120  110.3040  -55.9690 C.3    63  LEU63       0.0019
     82  CD1       27.3840  111.4190  -55.5120 C.3    63  LEU63       0.0001
     83  CD2       29.0820  109.7260  -54.7920 C.3    63  LEU63       0.0001
     84  N         31.2990  110.4120  -58.8980 N.3    65  LYS65      -0.1245
     85  CA        32.7300  110.3800  -58.5800 C.3    65  LYS65       0.1561
     86  C         33.5740  109.1810  -59.0540 C.2    65  LYS65       0.2260
     87  O         34.6990  109.3670  -59.5160 O.2    65  LYS65      -0.2867
     88  CB        32.9320  110.5760  -57.0730 C.3    65  LYS65       0.0271
     89  CG        34.3890  110.5980  -56.6400 C.3    65  LYS65       0.0035
     90  CD        34.5260  110.3280  -55.1500 C.3    65  LYS65       0.0206
     91  CE        35.7410  111.0330  -54.5710 C.3    65  LYS65       0.1093
     92  NZ        36.1430  110.4590  -53.2570 N.3    65  LYS65      -0.1314
     93  N         35.9250  116.1070  -43.6690 N.3   111  LYS111     -0.1231
     94  CA        35.9720  115.5630  -45.0170 C.3   111  LYS111      0.1693
     95  C         37.3920  115.6680  -45.5640 C.2   111  LYS111      0.2592
     96  O         38.1530  116.5540  -45.1740 O.2   111  LYS111     -0.2718
     97  CB        34.9980  116.3080  -45.9320 C.3   111  LYS111      0.0285
     98  CG        33.6430  115.6340  -46.0760 C.3   111  LYS111      0.0035
     99  CD        33.0100  115.9470  -47.4220 C.3   111  LYS111      0.0206
    100  CE        32.4620  114.6910  -48.0800 C.3   111  LYS111      0.1093
    101  NZ        31.3890  114.0600  -47.2640 N.3   111  LYS111     -0.1314
    102  N         37.7580  114.6010  -46.2600 N.am  112  GLY112     -0.1957
    103  CA        39.0920  114.4210  -46.7630 C.3   112  GLY112      0.1869
    104  C         39.2120  115.0260  -48.1140 C.2   112  GLY112      0.2309
    105  O         38.2520  115.0780  -48.8810 O.2   112  GLY112     -0.2863
    106  N         37.6310  120.2330  -50.1430 N.3   115  TYR115     -0.1241
    107  CA        36.1910  120.3550  -50.3560 C.3   115  TYR115      0.1605
    108  C         35.6710  121.6290  -49.6970 C.2   115  TYR115      0.2264
    109  O         36.1190  121.9920  -48.6100 O.2   115  TYR115     -0.2867
    110  CB        35.4610  119.1330  -49.7970 C.3   115  TYR115      0.0534
    111  CG        35.8120  117.8360  -50.4920 C.ar  115  TYR115     -0.0201
    112  CD1       35.9380  117.7800  -51.8740 C.ar  115  TYR115     -0.0009
    113  CD2       36.0190  116.6710  -49.7670 C.ar  115  TYR115     -0.0009
    114  CE1       36.2580  116.5980  -52.5140 C.ar  115  TYR115      0.0417
    115  CE2       36.3390  115.4840  -50.3970 C.ar  115  TYR115      0.0417
    116  CZ        36.4580  115.4540  -51.7710 C.ar  115  TYR115      0.1957
    117  OH        36.7760  114.2750  -52.4060 O.3   115  TYR115     -0.2866
    118  N         43.7860  114.7710  -47.7600 N.3   137  PHE137     -0.1241
    119  CA        43.6190  113.3600  -48.0470 C.3   137  PHE137      0.1605
    120  C         44.2800  112.9500  -49.3660 C.2   137  PHE137      0.2264
    121  O         43.9890  113.5270  -50.3970 O.2   137  PHE137     -0.2867
    122  CB        42.1280  113.0320  -48.0830 C.3   137  PHE137      0.0534
    123  CG        41.8180  111.7070  -48.6870 C.ar  137  PHE137     -0.0203
    124  CD1       42.2160  110.5470  -48.0710 C.ar  137  PHE137     -0.0042
    125  CD2       41.1340  111.6240  -49.8790 C.ar  137  PHE137     -0.0042
    126  CE1       41.9370  109.3230  -48.6330 C.ar  137  PHE137     -0.0003
    127  CE2       40.8500  110.4010  -50.4440 C.ar  137  PHE137     -0.0003
    128  CZ        41.2500  109.2510  -49.8190 C.ar  137  PHE137     -0.0000
    129  N         43.0330  106.6140  -57.0840 N.3   141  ARG141     -0.1245
    130  CA        41.8250  106.4450  -57.8750 C.3   141  ARG141      0.1563
    131  C         42.0730  105.3380  -58.8660 C.2   141  ARG141      0.2260
    132  O         41.1570  104.6230  -59.2770 O.2   141  ARG141     -0.2867
    133  CB        41.4720  107.7420  -58.6040 C.3   141  ARG141      0.0307
    134  CG        40.8600  108.8100  -57.7120 C.3   141  ARG141      0.0489
    135  CD        39.8920  108.2040  -56.7110 C.3   141  ARG141      0.2205
    136  NE        38.7500  107.5690  -57.3670 N.pl3 141  ARG141     -0.0865
    137  CZ        37.9300  106.7100  -56.7720 C.cat 141  ARG141      0.5346
    138  NH1       38.1190  106.3780  -55.5050 N.pl3 141  ARG141      0.1354
    139  NH2       36.9170  106.1820  -57.4470 N.pl3 141  ARG141      0.1354
@<TRIPOS>BOND
     1    79    78    2
     2    87    86    2
     3   132   131    2
     4    78    77    1
     5    86    85    1
     6    84    85    1
     7   131   130    1
     8   133   130    1
     9   133   134    1
    10    85    88    1
    11    76    77    1
    12    77    80    1
    13   130   129    1
    14   134   135    1
    15   139   137    1
    16   136   137    2
    17   136   135    1
    18    88    89    1
    19   137   138    1
    20    80    81    1
    21    89    90    1
    22    81    82    1
    23    81    83    1
    24    90    91    1
    25    45    43   ar
    26    91    92    1
    27    43    44   ar
    28    43    42    1
    29    42    39    1
    30   114   112   ar
    31   114   116   ar
    32   117   116    1
    33    26    24    1
    34    25    24    1
    35   112   111   ar
    36   116   115   ar
    37    39    40    1
    38    39    38    1
    39    24    21    1
    40    40    41    2
    41    38    29   am
    42   111   110    1
    43   111   113   ar
    44   127   125   ar
    45   127   128   ar
    46   115   113   ar
    47   121   120    2
    48   107   106    1
    49   107   110    1
    50   107   108    1
    51    75    73   am
    52    54    55   ar
    53    54    52   ar
    54   125   123   ar
    55    21    22    1
    56    21    20    1
    57   128   126   ar
    58   108   109    2
    59    72    73    1
    60    72    69    1
    61    73    74    2
    62    55    53   ar
    63    29    28    1
    64    29    30    2
    65   120   119    1
    66    27    22   am
    67    27    28    1
    68    22    23    2
    69    20    18   am
    70    52    51   ar
    71   105   104    2
    72    28    31    1
    73    71    70    2
    74   123   122    1
    75   123   124   ar
    76   126   124   ar
    77    70    69    1
    78    69    68    1
    79    53    51   ar
    80    18    17    1
    81    18    19    2
    82   104   103    1
    83   122   119    1
    84   100    99    1
    85   100   101    1
    86   119   118    1
    87    51    50    1
    88    17    16    1
    89    99    98    1
    90    31    32    1
    91    46    47    1
    92   103   102    1
    93    50    47    1
    94    14    13    2
    95    32    33   ar
    96    32    34   ar
    97    33    35   ar
    98    16    10   am
    99    47    48    1
   100   102    95   am
   101    11    10    2
   102    34    36   ar
   103    98    97    1
   104    97    94    1
   105    10     9    1
   106    35    37   ar
   107    95    96    2
   108    95    94    1
   109    13    15   am
   110    13    12    1
   111    36    37   ar
   112    94    93    1
   113    48    49    2
   114    12     9    1
   115     9     8    1
   116    60    61    1
   117    60    57    1
   118    61    63   ar
   119    61    62   ar
   120    63    65   ar
   121    62    64   ar
   122    65    66   ar
   123    64    66   ar
   124    66    67    1
   125     8     3   am
   126    56    57    1
   127    57    58    1
   128     6     5    1
   129     3     4    2
   130     3     2    1
   131    58    59    2
   132     5     7    1
   133     5     2    1
   134     2     1    1
