@<TRIPOS>MOLECULE
tmp/5xf9A00.pdb
 209 197 0 0 0
SMALL
GASTEIGER

@<TRIPOS>ATOM
      1  N          6.0640  -21.0930  -47.7740 N.3   197  GLY197     -0.1225
      2  CA         4.7970  -21.3920  -48.4470 C.3   197  GLY197      0.1811
      3  C          4.5000  -20.5580  -49.6790 C.2   197  GLY197      0.2280
      4  O          4.6910  -19.3440  -49.6860 O.2   197  GLY197     -0.2866
      5  N          1.4450  -20.4260  -51.0060 N.3   199  GLY199     -0.1210
      6  CA         0.0090  -20.1630  -50.9600 C.3   199  GLY199      0.1956
      7  C         -0.3340  -18.6990  -50.7690 C.2   199  GLY199      0.2612
      8  O         -1.4520  -18.2880  -51.0660 O.2   199  GLY199     -0.2717
      9  N          0.6220  -17.9080  -50.2890 N.am  200  GLY200     -0.1942
     10  CA         0.4190  -16.4710  -50.1250 C.3   200  GLY200      0.2014
     11  C          0.7510  -15.9660  -48.7370 C.2   200  GLY200      0.2639
     12  O          0.9160  -14.7600  -48.5410 O.2   200  GLY200     -0.2714
     13  N          0.8460  -16.8830  -47.7740 N.am  201  ALA201     -0.1963
     14  CA         1.2040  -16.5380  -46.4010 C.3   201  ALA201      0.1728
     15  C          2.7190  -16.4880  -46.2110 C.2   201  ALA201      0.2617
     16  O          3.2320  -15.6130  -45.5160 O.2   201  ALA201     -0.2715
     17  CB         0.5760  -17.5280  -45.4270 C.3   201  ALA201      0.0334
     18  N          3.4240  -17.4440  -46.8090 N.am  202  GLY202     -0.1940
     19  CA         4.8830  -17.4770  -46.7550 C.3   202  GLY202      0.2014
     20  C          5.4080  -17.9110  -45.4040 C.2   202  GLY202      0.2638
     21  O          6.2850  -17.2580  -44.8340 O.2   202  GLY202     -0.2714
     22  N          4.8590  -19.0110  -44.8910 N.am  203  PHE203     -0.1973
     23  CA         5.2940  -19.5870  -43.6210 C.3   203  PHE203      0.1639
     24  C          6.2920  -20.7120  -43.8980 C.2   203  PHE203      0.2290
     25  O          6.0810  -21.5030  -44.8210 O.2   203  PHE203     -0.2864
     26  CB         4.0900  -20.1320  -42.8350 C.3   203  PHE203      0.0560
     27  CG         4.4070  -20.5060  -41.4110 C.ar  203  PHE203     -0.0200
     28  CD1        4.6950  -19.5210  -40.4680 C.ar  203  PHE203     -0.0042
     29  CD2        4.4110  -21.8340  -41.0110 C.ar  203  PHE203     -0.0042
     30  CE1        4.9820  -19.8550  -39.1550 C.ar  203  PHE203     -0.0003
     31  CE2        4.7040  -22.1730  -39.7020 C.ar  203  PHE203     -0.0003
     32  CZ         4.9870  -21.1830  -38.7730 C.ar  203  PHE203     -0.0000
     33  N          7.9700  -24.0590  -44.2270 N.3   205  THR205     -0.1218
     34  CA         7.3240  -25.3620  -44.3620 C.3   205  THR205      0.1862
     35  C          7.8640  -26.3660  -43.3550 C.2   205  THR205      0.2287
     36  O          7.1650  -27.3060  -42.9610 O.2   205  THR205     -0.2866
     37  CB         7.6230  -25.9460  -45.7750 C.3   205  THR205      0.1770
     38  OG1        7.8570  -24.8850  -46.7140 O.3   205  THR205     -0.2211
     39  CG2        6.5090  -26.8420  -46.2960 C.3   205  THR205      0.0375
     40  N          6.3110  -25.7710  -39.8630 N.3   208  LYS208     -0.1245
     41  CA         4.9450  -26.2750  -39.9450 C.3   208  LYS208      0.1561
     42  C          4.8880  -27.8040  -39.8920 C.2   208  LYS208      0.2260
     43  O          3.9650  -28.3870  -39.3160 O.2   208  LYS208     -0.2867
     44  CB         4.3080  -25.7710  -41.2460 C.3   208  LYS208      0.0271
     45  CG         2.7940  -25.8620  -41.2870 C.3   208  LYS208      0.0035
     46  CD         2.2020  -24.9210  -42.3260 C.3   208  LYS208      0.0206
     47  CE         1.9480  -25.6000  -43.6570 C.3   208  LYS208      0.1093
     48  NZ         1.3590  -24.6320  -44.6280 N.3   208  LYS208     -0.1314
     49  N         -3.5560  -28.0040  -51.1080 N.3   225  ASN225     -0.1240
     50  CA        -4.4730  -26.9320  -51.4160 C.3   225  ASN225      0.1653
     51  C         -4.4180  -26.5750  -52.9010 C.2   225  ASN225      0.2266
     52  O         -3.4620  -25.9580  -53.3680 O.2   225  ASN225     -0.2867
     53  CB        -4.1360  -25.7010  -50.5600 C.3   225  ASN225      0.1155
     54  CG        -5.3100  -24.7500  -50.4100 C.2   225  ASN225      0.2627
     55  OD1       -6.1830  -24.6750  -51.2740 O.2   225  ASN225     -0.2716
     56  ND2       -5.3300  -24.0080  -49.3090 N.am  225  ASN225     -0.0877
     57  N         -7.2690  -24.9160  -54.2300 N.3   227  ASP227     -0.1225
     58  CA        -8.4770  -24.1160  -54.3150 C.3   227  ASP227      0.1805
     59  C         -7.9180  -22.7670  -54.7300 C.2   227  ASP227      0.2598
     60  O         -8.1000  -21.7740  -54.0370 O.2   227  ASP227     -0.2718
     61  CB        -9.1280  -23.9500  -52.9390 C.3   227  ASP227      0.1424
     62  CG       -10.4880  -23.2760  -53.0200 C.2   227  ASP227      0.3668
     63  OD1      -11.4460  -23.9460  -53.4620 O.co2 227  ASP227     -0.2456
     64  OD2      -10.5920  -22.0770  -52.6600 O.co2 227  ASP227     -0.2456
     65  N         -7.2560  -22.7290  -55.8750 N.am  228  GLU228     -0.1965
     66  CA        -6.5800  -21.5140  -56.3180 C.3   228  GLU228      0.1733
     67  C         -7.5850  -20.4050  -56.6140 C.2   228  GLU228      0.2617
     68  O         -8.0090  -20.2390  -57.7530 O.2   228  GLU228     -0.2715
     69  CB        -5.7670  -21.8480  -57.5610 C.3   228  GLU228      0.0429
     70  CG        -5.0020  -20.6950  -58.1830 C.3   228  GLU228      0.1163
     71  CD        -4.0680  -21.1840  -59.2650 C.2   228  GLU228      0.3649
     72  OE1       -4.4790  -22.0240  -60.1140 O.co2 228  GLU228     -0.2457
     73  OE2       -2.9070  -20.7420  -59.2420 O.co2 228  GLU228     -0.2457
     74  N         -7.9490  -19.6510  -55.5790 N.am  229  GLY229     -0.1940
     75  CA        -9.0760  -18.7200  -55.6330 C.3   229  GLY229      0.2014
     76  C         -8.7290  -17.2520  -55.7400 C.2   229  GLY229      0.2638
     77  O         -9.5730  -16.4500  -56.1290 O.2   229  GLY229     -0.2714
     78  N         -7.4970  -16.8900  -55.3940 N.am  230  GLU230     -0.1977
     79  CA        -7.0330  -15.5120  -55.5370 C.3   230  GLU230      0.1602
     80  C         -7.1700  -15.0640  -56.9980 C.2   230  GLU230      0.2287
     81  O         -6.5520  -15.6510  -57.8750 O.2   230  GLU230     -0.2864
     82  CB        -5.5780  -15.3870  -55.0920 C.3   230  GLU230      0.0415
     83  CG        -5.0800  -13.9540  -54.9840 C.3   230  GLU230      0.1163
     84  CD        -5.6680  -13.2430  -53.7840 C.2   230  GLU230      0.3649
     85  OE1       -5.5120  -13.7530  -52.6490 O.co2 230  GLU230     -0.2457
     86  OE2       -6.2800  -12.1710  -53.9660 O.co2 230  GLU230     -0.2457
     87  N         -0.9840  -22.5530  -60.0910 N.3   236  ASP236     -0.1239
     88  CA        -1.2850  -23.9290  -59.7070 C.3   236  ASP236      0.1674
     89  C         -2.0380  -24.6660  -60.8100 C.2   236  ASP236      0.2266
     90  O         -1.9910  -25.8930  -60.8740 O.2   236  ASP236     -0.2867
     91  CB        -2.1130  -23.9860  -58.4090 C.3   236  ASP236      0.1410
     92  CG        -1.4110  -23.3360  -57.2090 C.2   236  ASP236      0.3668
     93  OD1       -0.1800  -23.0860  -57.2640 O.co2 236  ASP236     -0.2456
     94  OD2       -2.1070  -23.0790  -56.1960 O.co2 236  ASP236     -0.2456
     95  N        -14.0260  -18.7830  -52.3730 N.3   309  TYR309     -0.1227
     96  CA       -12.6590  -18.3000  -52.1980 C.3   309  TYR309      0.1736
     97  C        -12.1350  -18.5690  -50.7960 C.2   309  TYR309      0.2595
     98  O        -10.9570  -18.8940  -50.6170 O.2   309  TYR309     -0.2718
     99  CB       -12.6150  -16.7990  -52.4830 C.3   309  TYR309      0.0548
    100  CG       -11.3410  -16.0680  -52.0580 C.ar  309  TYR309     -0.0200
    101  CD1      -10.0990  -16.4290  -52.5660 C.ar  309  TYR309     -0.0009
    102  CD2      -11.3970  -14.9860  -51.1870 C.ar  309  TYR309     -0.0009
    103  CE1       -8.9540  -15.7440  -52.2090 C.ar  309  TYR309      0.0417
    104  CE2      -10.2580  -14.2990  -50.8280 C.ar  309  TYR309      0.0417
    105  CZ        -9.0320  -14.6790  -51.3430 C.ar  309  TYR309      0.1957
    106  OH        -7.8830  -13.9920  -50.9770 O.3   309  TYR309     -0.2866
    107  N        -13.0050  -18.4190  -49.8000 N.am  310  VAL310     -0.1980
    108  CA       -12.5960  -18.5740  -48.4060 C.3   310  VAL310      0.1595
    109  C        -12.1810  -20.0090  -48.0600 C.2   310  VAL310      0.2287
    110  O        -11.3290  -20.2130  -47.1990 O.2   310  VAL310     -0.2864
    111  CB       -13.6860  -18.0850  -47.4250 C.3   310  VAL310      0.0276
    112  CG1      -14.8970  -18.9970  -47.4680 C.3   310  VAL310      0.0022
    113  CG2      -13.1230  -17.9840  -46.0060 C.3   310  VAL310      0.0022
    114  N        -10.2160  -21.6580  -49.5850 N.3   312  GLY312     -0.1210
    115  CA        -8.7690  -21.6830  -49.7580 C.3   312  GLY312      0.1956
    116  C         -8.0140  -21.4270  -48.4720 C.2   312  GLY312      0.2612
    117  O         -6.8330  -21.7700  -48.3680 O.2   312  GLY312     -0.2717
    118  N         -8.6790  -20.8210  -47.4900 N.am  313  GLU313     -0.1965
    119  CA        -8.0750  -20.5900  -46.1790 C.3   313  GLU313      0.1733
    120  C         -7.8820  -21.9330  -45.4720 C.2   313  GLU313      0.2616
    121  O         -8.7810  -22.7710  -45.4540 O.2   313  GLU313     -0.2715
    122  CB        -8.9400  -19.6490  -45.3370 C.3   313  GLU313      0.0429
    123  CG        -8.2040  -18.9320  -44.2100 C.3   313  GLU313      0.1163
    124  CD        -8.1490  -19.7090  -42.9020 C.2   313  GLU313      0.3649
    125  OE1       -8.6570  -20.8430  -42.8440 O.co2 313  GLU313     -0.2457
    126  OE2       -7.5870  -19.1790  -41.9250 O.co2 313  GLU313     -0.2457
    127  N         -6.6910  -22.1200  -44.9060 N.am  314  GLU314     -0.1977
    128  CA        -6.2460  -23.4070  -44.3390 C.3   314  GLU314      0.1602
    129  C         -7.3210  -24.1800  -43.5550 C.2   314  GLU314      0.2287
    130  O         -7.6400  -25.3280  -43.8870 O.2   314  GLU314     -0.2864
    131  CB        -5.0220  -23.1710  -43.4400 C.3   314  GLU314      0.0415
    132  CG        -4.3410  -24.4460  -42.9860 C.3   314  GLU314      0.1163
    133  CD        -3.1540  -24.2030  -42.0720 C.2   314  GLU314      0.3649
    134  OE1       -2.9480  -23.0480  -41.6200 O.co2 314  GLU314     -0.2457
    135  OE2       -2.4330  -25.1860  -41.7900 O.co2 314  GLU314     -0.2457
    136  N         -1.6620  -28.4820  -44.1660 N.3   347  VAL347     -0.1231
    137  CA        -2.1230  -28.0340  -45.4700 C.3   347  VAL347      0.1692
    138  C         -0.9540  -27.3510  -46.1850 C.2   347  VAL347      0.2592
    139  O         -0.3380  -26.4220  -45.6530 O.2   347  VAL347     -0.2718
    140  CB        -3.2870  -27.0290  -45.3440 C.3   347  VAL347      0.0266
    141  CG1       -3.7400  -26.5470  -46.7180 C.3   347  VAL347      0.0020
    142  CG2       -4.4460  -27.6430  -44.5620 C.3   347  VAL347      0.0020
    143  N         -0.6430  -27.8220  -47.3860 N.am  348  ASN348     -0.1960
    144  CA         0.3550  -27.1530  -48.2130 C.3   348  ASN348      0.1819
    145  C         -0.1840  -26.8830  -49.6130 C.2   348  ASN348      0.2621
    146  O         -1.0000  -27.6380  -50.1490 O.2   348  ASN348     -0.2715
    147  CB         1.6590  -27.9650  -48.2790 C.3   348  ASN348      0.1195
    148  CG         2.6820  -27.5470  -47.2280 C.2   348  ASN348      0.2630
    149  OD1        3.1660  -28.3820  -46.4850 O.2   348  ASN348     -0.2716
    150  ND2        3.0160  -26.2620  -47.1690 N.am  348  ASN348     -0.0877
    151  N          0.2950  -25.7860  -50.1820 N.am  349  ASN349     -0.1972
    152  CA        -0.1140  -25.3430  -51.4950 C.3   349  ASN349      0.1688
    153  C          0.5220  -26.2140  -52.5690 C.2   349  ASN349      0.2292
    154  O          1.6010  -26.7630  -52.3570 O.2   349  ASN349     -0.2864
    155  CB         0.2660  -23.8750  -51.6840 C.3   349  ASN349      0.1181
    156  CG         0.2540  -23.4610  -53.1400 C.2   349  ASN349      0.2629
    157  OD1        1.0490  -23.9620  -53.9170 O.2   349  ASN349     -0.2716
    158  ND2       -0.6320  -22.5440  -53.5160 N.am  349  ASN349     -0.0877
    159  N          4.0610  -25.4690  -53.3660 N.3   352  THR352     -0.1218
    160  CA         4.9210  -25.7680  -52.2240 C.3   352  THR352      0.1862
    161  C          5.2770  -27.2530  -52.2200 C.2   352  THR352      0.2287
    162  O          6.4210  -27.6230  -51.9830 O.2   352  THR352     -0.2866
    163  CB         4.2450  -25.3880  -50.8880 C.3   352  THR352      0.1770
    164  OG1        3.8530  -24.0050  -50.9150 O.3   352  THR352     -0.2211
    165  CG2        5.1950  -25.6190  -49.7140 C.3   352  THR352      0.0375
    166  N         -9.8160  -14.4250  -39.3540 N.3   520  CYS520     -0.1221
    167  CA        -8.8700  -15.0010  -40.3130 C.3   520  CYS520      0.1808
    168  C         -8.2820  -13.9130  -41.2080 C.2   520  CYS520      0.2602
    169  O         -8.6120  -12.7240  -41.0820 O.2   520  CYS520     -0.2717
    170  CB        -9.5210  -16.1090  -41.1420 C.3   520  CYS520      0.0970
    171  SG       -10.3670  -15.5820  -42.6610 S.3   520  CYS520     -0.0800
    172  N         -7.3770  -14.3190  -42.0910 N.am  521  GLY521     -0.1942
    173  CA        -6.6140  -13.3740  -42.9030 C.3   521  GLY521      0.2014
    174  C         -7.4260  -12.5510  -43.8730 C.2   521  GLY521      0.2638
    175  O         -7.0020  -11.4690  -44.2580 O.2   521  GLY521     -0.2714
    176  N         -8.5840  -13.0700  -44.2610 N.am  522  PHE522     -0.1973
    177  CA        -9.4930  -12.4190  -45.2190 C.3   522  PHE522      0.1639
    178  C         -9.7560  -10.9420  -44.8950 C.2   522  PHE522      0.2290
    179  O         -9.7270  -10.0940  -45.7910 O.2   522  PHE522     -0.2864
    180  CB       -10.8240  -13.1930  -45.2390 C.3   522  PHE522      0.0560
    181  CG       -11.7730  -12.8020  -46.3470 C.ar  522  PHE522     -0.0200
    182  CD1      -12.3350  -11.5240  -46.4100 C.ar  522  PHE522     -0.0042
    183  CD2      -12.1490  -13.7390  -47.2960 C.ar  522  PHE522     -0.0042
    184  CE1      -13.2130  -11.1930  -47.4190 C.ar  522  PHE522     -0.0003
    185  CE2      -13.0300  -13.4110  -48.3030 C.ar  522  PHE522     -0.0003
    186  CZ       -13.5620  -12.1430  -48.3670 C.ar  522  PHE522     -0.0000
    187  N         -6.8200   -8.6850  -45.7720 N.3   525  SER525     -0.1217
    188  CA        -6.7360   -8.7040  -47.2190 C.3   525  SER525      0.1889
    189  C         -7.7530   -7.7650  -47.8490 C.2   525  SER525      0.2288
    190  O         -7.4220   -7.0050  -48.7640 O.2   525  SER525     -0.2866
    191  CB        -6.9650  -10.1310  -47.7530 C.3   525  SER525      0.2089
    192  OG        -6.0540  -11.0720  -47.2040 O.3   525  SER525     -0.2183
    193  N          0.5270  -12.3360  -42.3690 N.3   568  LEU568     -0.1245
    194  CA        -0.7400  -13.0070  -42.6830 C.3   568  LEU568      0.1561
    195  C         -0.7770  -14.4180  -42.0790 C.2   568  LEU568      0.2260
    196  O         -1.8530  -14.9810  -41.8400 O.2   568  LEU568     -0.2867
    197  CB        -0.9690  -13.0620  -44.1990 C.3   568  LEU568      0.0270
    198  CG        -2.4300  -13.2050  -44.6520 C.3   568  LEU568      0.0019
    199  CD1       -3.1910  -11.9000  -44.4600 C.3   568  LEU568      0.0001
    200  CD2       -2.5210  -13.6550  -46.1040 C.3   568  LEU568      0.0001
    201  N         -2.9710  -17.9150  -39.0350 N.3   572  GLU572     -0.1245
    202  CA        -3.0400  -19.3250  -39.4440 C.3   572  GLU572      0.1567
    203  C         -2.2390  -20.3140  -38.6040 C.2   572  GLU572      0.2260
    204  O         -2.6020  -21.4900  -38.5330 O.2   572  GLU572     -0.2867
    205  CB        -2.5760  -19.4630  -40.8950 C.3   572  GLU572      0.0388
    206  CG        -3.5360  -18.8740  -41.9090 C.3   572  GLU572      0.1160
    207  CD        -2.9880  -18.8940  -43.3230 C.2   572  GLU572      0.3649
    208  OE1       -2.0450  -19.6790  -43.5980 O.co2 572  GLU572     -0.2457
    209  OE2       -3.5090  -18.1170  -44.1560 O.co2 572  GLU572     -0.2457
@<TRIPOS>BOND
     1    90    89    2
     2    89    88    1
     3    72    71   ar
     4    87    88    1
     5    88    91    1
     6    71    73   ar
     7    71    70    1
     8    91    92    1
     9    70    69    1
    10    81    80    2
    11    68    67    2
    12    69    66    1
    13    93    92   ar
    14    92    94   ar
    15    80    79    1
    16    67    66    1
    17    67    74   am
    18    66    65    1
    19    77    76    2
    20    65    59   am
    21    76    75    1
    22    76    78   am
    23    75    74    1
    24    79    78    1
    25    79    82    1
    26    82    83    1
    27    83    84    1
    28    59    58    1
    29    59    60    2
    30    58    57    1
    31    58    61    1
    32    86    84   ar
    33   157   156    2
    34    84    85   ar
    35   158   156   am
    36    63    62   ar
    37    52    51    2
    38   159   160    1
    39   156   155    1
    40    62    61    1
    41    62    64   ar
    42    51    50    1
    43   153   154    2
    44   153   152    1
    45   101   103   ar
    46   101   100   ar
    47    99    96    1
    48    99   100    1
    49    95    96    1
    50   160   161    1
    51   160   163    1
    52   161   162    2
    53   103   105   ar
    54    96    97    1
    55   100   102   ar
    56   155   152    1
    57   152   151    1
    58    50    49    1
    59    50    53    1
    60   105   106    1
    61   105   104   ar
    62    55    54    2
    63   102   104   ar
    64     8     7    2
    65     5     6    1
    66     6     7    1
    67   164   163    1
    68   163   165    1
    69    97    98    2
    70    97   107   am
    71     7     9   am
    72    53    54    1
    73    54    56   am
    74     9    10    1
    75   151   145   am
    76   146   145    2
    77    10    11    1
    78   107   108    1
    79   115   114    1
    80   115   116    1
    81     4     3    2
    82     3     2    1
    83   145   144    1
    84   190   189    2
    85    11    12    2
    86    11    13   am
    87   116   117    2
    88   116   118   am
    89     2     1    1
    90   108   109    1
    91   108   111    1
    92   186   185   ar
    93   186   184   ar
    94   185   183   ar
    95   147   144    1
    96   147   148    1
    97   144   143    1
    98   109   110    2
    99   189   188    1
   100    13    14    1
   101   191   188    1
   102   191   192    1
   103   118   119    1
   104   112   111    1
   105   111   113    1
   106   184   182   ar
   107   143   138   am
   108   183   181   ar
   109   148   150   am
   110   148   149    2
   111   188   187    1
   112    18    19    1
   113    18    15   am
   114    19    20    1
   115   141   140    1
   116    38    37    1
   117   182   181   ar
   118    14    15    1
   119    14    17    1
   120   181   180    1
   121    39    37    1
   122    15    16    2
   123   138   139    2
   124   138   137    1
   125   119   120    1
   126   119   122    1
   127   200   198    1
   128   179   178    2
   129    37    34    1
   130   120   121    2
   131   120   127   am
   132   137   140    1
   133   137   136    1
   134    20    22   am
   135    20    21    2
   136   140   142    1
   137   122   123    1
   138   180   177    1
   139   177   178    1
   140   177   176    1
   141   127   128    1
   142    22    23    1
   143    25    24    2
   144   198   199    1
   145   198   197    1
   146    48    47    1
   147    34    33    1
   148    34    35    1
   149   128   129    1
   150   128   131    1
   151   176   174   am
   152   175   174    2
   153   123   124    1
   154   197   194    1
   155   209   207   ar
   156    24    23    1
   157   130   129    2
   158   174   173    1
   159    47    46    1
   160    23    26    1
   161   208   207   ar
   162   131   132    1
   163    35    36    2
   164   207   206    1
   165   132   133    1
   166   173   172    1
   167   124   125   ar
   168   124   126   ar
   169    26    27    1
   170   194   193    1
   171   194   195    1
   172   171   170    1
   173    46    45    1
   174   172   168   am
   175   195   196    2
   176   133   135   ar
   177   133   134   ar
   178   206   205    1
   179    27    29   ar
   180    27    28   ar
   181    45    44    1
   182    44    41    1
   183   168   169    2
   184   168   167    1
   185   170   167    1
   186    29    31   ar
   187   205   202    1
   188    28    30   ar
   189   167   166    1
   190    41    42    1
   191    41    40    1
   192    42    43    2
   193    31    32   ar
   194   202   201    1
   195   202   203    1
   196    30    32   ar
   197   203   204    2
