@<TRIPOS>MOLECULE
tmp/5xfdA00.pdb
 106 100 0 0 0
SMALL
GASTEIGER

@<TRIPOS>ATOM
      1  N        -42.6880   22.5280    0.0830 N.3    46  ASN46      -0.1225
      2  CA       -42.7520   22.0980    1.4850 C.3    46  ASN46       0.1785
      3  C        -44.1530   21.5730    1.7760 C.2    46  ASN46       0.2598
      4  O        -45.1620   22.2080    1.4170 O.2    46  ASN46      -0.2718
      5  CB       -42.4040   23.2740    2.3990 C.3    46  ASN46       0.1169
      6  CG       -40.9560   23.7060    2.2360 C.2    46  ASN46       0.2627
      7  OD1      -40.1100   22.9700    1.6910 O.2    46  ASN46      -0.2716
      8  ND2      -40.6420   24.9480    2.7360 N.am   46  ASN46      -0.0877
      9  N        -44.2300   20.4190    2.4310 N.am   47  THR47      -0.1939
     10  CA       -45.4920   19.7110    2.6480 C.3    47  THR47       0.2028
     11  C        -45.5960   19.3260    4.1150 C.2    47  THR47       0.2642
     12  O        -44.6390   18.7690    4.6670 O.2    47  THR47      -0.2714
     13  CB       -45.5000   18.4510    1.7970 C.3    47  THR47       0.1808
     14  OG1      -45.4150   18.7670    0.4060 O.3    47  THR47      -0.2208
     15  CG2      -46.8090   17.6070    2.0310 C.3    47  THR47       0.0379
     16  N        -46.7610   19.5720    4.7620 N.am   48  ALA48      -0.1977
     17  CA       -46.8880   19.2300    6.1870 C.3    48  ALA48       0.1597
     18  C        -48.1300   18.4110    6.4760 C.2    48  ALA48       0.2287
     19  O        -49.1870   18.5520    5.8180 O.2    48  ALA48      -0.2864
     20  CB       -46.9590   20.5180    7.0510 C.3    48  ALA48       0.0319
     21  N        -50.5090   17.7020    9.9890 N.3    50  ASN50      -0.1240
     22  CA       -50.7410   18.3870   11.2780 C.3    50  ASN50       0.1653
     23  C        -51.7390   17.6520   12.1680 C.2    50  ASN50       0.2266
     24  O        -52.7730   17.1690   11.6700 O.2    50  ASN50      -0.2867
     25  CB       -51.2980   19.8100   11.0650 C.3    50  ASN50       0.1155
     26  CG       -50.3610   20.6520   10.2420 C.2    50  ASN50       0.2627
     27  OD1      -49.2210   20.9150   10.6870 O.2    50  ASN50      -0.2716
     28  ND2      -50.7970   21.0810    9.0710 N.am   50  ASN50      -0.0877
     29  N        -51.5300   23.8940   17.0280 N.3    58  TYR58      -0.1241
     30  CA       -50.8060   22.8300   16.3510 C.3    58  TYR58       0.1605
     31  C        -50.0610   22.0230   17.4130 C.2    58  TYR58       0.2264
     32  O        -49.0070   22.4450   17.9140 O.2    58  TYR58      -0.2867
     33  CB       -49.8080   23.4070   15.3240 C.3    58  TYR58       0.0534
     34  CG       -50.4960   23.9930   14.0920 C.ar   58  TYR58      -0.0201
     35  CD1      -51.1890   25.2010   14.1620 C.ar   58  TYR58      -0.0009
     36  CD2      -50.3740   23.3640   12.8560 C.ar   58  TYR58      -0.0009
     37  CE1      -51.8110   25.7450   12.9910 C.ar   58  TYR58       0.0417
     38  CE2      -50.9630   23.9110   11.7160 C.ar   58  TYR58       0.0417
     39  CZ       -51.6840   25.0530   11.7990 C.ar   58  TYR58       0.1957
     40  OH       -52.3210   25.5880   10.6630 O.3    58  TYR58      -0.2866
     41  N        -46.7800   19.5120   14.2550 N.3    61  HIS61      -0.1241
     42  CA       -46.6390   19.9040   12.8440 C.3    61  HIS61       0.1621
     43  C        -45.4330   19.1810   12.3050 C.2    61  HIS61       0.2264
     44  O        -44.3530   19.2750   12.9120 O.2    61  HIS61      -0.2867
     45  CB       -46.4330   21.4330   12.8120 C.3    61  HIS61       0.0745
     46  CG       -45.9720   22.0350   11.5080 C.ar   61  HIS61       0.0817
     47  ND1      -46.8310   22.2750   10.4480 N.ar   61  HIS61      -0.2268
     48  CD2      -44.7610   22.5480   11.1480 C.ar   61  HIS61       0.1154
     49  CE1      -46.1600   22.9150    9.4820 C.ar   61  HIS61       0.1986
     50  NE2      -44.9020   23.0780    9.8710 N.ar   61  HIS61      -0.2212
     51  N        -43.2180   18.9230    8.9820 N.3    63  ALA63      -0.1245
     52  CA       -42.9960   19.5770    7.6870 C.3    63  ALA63       0.1562
     53  C        -41.8600   18.8750    6.9460 C.2    63  ALA63       0.2260
     54  O        -40.7170   18.8400    7.4230 O.2    63  ALA63      -0.2867
     55  CB       -42.6230   21.0770    7.8600 C.3    63  ALA63       0.0290
     56  N        -39.3520   19.0750    3.9710 N.3    65  ARG65      -0.1245
     57  CA       -38.7940   20.1620    3.1660 C.3    65  ARG65       0.1563
     58  C        -37.7000   19.5470    2.3050 C.2    65  ARG65       0.2260
     59  O        -36.5410   19.4420    2.7380 O.2    65  ARG65      -0.2867
     60  CB       -38.2270   21.2980    4.0630 C.3    65  ARG65       0.0307
     61  CG       -39.3190   21.9180    5.0290 C.3    65  ARG65       0.0489
     62  CD       -38.6930   23.1830    5.5840 C.3    65  ARG65       0.2205
     63  NE       -39.6420   23.7840    6.5590 N.pl3  65  ARG65      -0.0865
     64  CZ       -39.2610   24.7630    7.3880 C.cat  65  ARG65       0.5346
     65  NH1      -38.0140   25.1740    7.3870 N.pl3  65  ARG65       0.1354
     66  NH2      -40.1350   25.2560    8.2550 N.pl3  65  ARG65       0.1354
     67  N        -47.4270   24.9890   17.9600 N.3    76  ARG76      -0.1245
     68  CA       -47.6740   26.4050   18.2800 C.3    76  ARG76       0.1563
     69  C        -49.1160   26.6510   18.7260 C.2    76  ARG76       0.2260
     70  O        -50.0540   25.9260   18.3750 O.2    76  ARG76      -0.2867
     71  CB       -47.3400   27.3080   17.1250 C.3    76  ARG76       0.0307
     72  CG       -48.2530   27.1570   16.0700 C.3    76  ARG76       0.0489
     73  CD       -48.2070   28.5180   15.4820 C.3    76  ARG76       0.2205
     74  NE       -48.7880   28.4690   14.1750 N.pl3  76  ARG76      -0.0865
     75  CZ       -49.1480   29.5690   13.5240 C.cat  76  ARG76       0.5346
     76  NH1      -48.9930   30.7170   14.1150 N.pl3  76  ARG76       0.1354
     77  NH2      -49.6850   29.5220   12.3120 N.pl3  76  ARG76       0.1354
     78  N        -44.3280   30.2630   16.2900 N.3    82  TRP82      -0.1241
     79  CA       -43.8840   28.8610   16.3930 C.3    82  TRP82       0.1605
     80  C        -42.9060   28.6880   17.5540 C.2    82  TRP82       0.2264
     81  O        -42.1490   29.6140   17.8970 O.2    82  TRP82      -0.2867
     82  CB       -43.2040   28.4460   15.0740 C.3    82  TRP82       0.0550
     83  CG       -44.1840   28.2740   13.9530 C.ar   82  TRP82       0.0003
     84  CD1      -44.4910   29.1930   12.9590 C.ar   82  TRP82       0.0946
     85  CD2      -44.9950   27.1120   13.7080 C.ar   82  TRP82       0.0152
     86  NE1      -45.4730   28.6640   12.1210 N.ar   82  TRP82      -0.2442
     87  CE2      -45.7850   27.4040   12.5640 C.ar   82  TRP82       0.0810
     88  CE3      -45.1460   25.8710   14.3760 C.ar   82  TRP82       0.0012
     89  CZ2      -46.6930   26.4560   12.0240 C.ar   82  TRP82       0.0191
     90  CZ3      -46.0680   24.9290   13.8440 C.ar   82  TRP82       0.0001
     91  CH2      -46.8450   25.2730   12.6870 C.ar   82  TRP82       0.0015
     92  N        -51.1140   20.2420    4.3160 N.3   138  ASN138     -0.1240
     93  CA       -50.7900   21.5160    3.6310 C.3   138  ASN138      0.1653
     94  C        -49.6310   21.2950    2.6470 C.2   138  ASN138      0.2266
     95  O        -48.5730   20.8340    3.0570 O.2   138  ASN138     -0.2867
     96  CB       -50.4330   22.5800    4.7140 C.3   138  ASN138      0.1155
     97  CG       -50.2520   24.0290    4.1760 C.2   138  ASN138      0.2627
     98  OD1      -50.1850   24.2630    3.0070 O.2   138  ASN138     -0.2716
     99  ND2      -50.1870   25.0070    5.0740 N.am  138  ASN138     -0.0877
    100  N        -48.5680   23.9970    0.6120 N.3   140  THR140     -0.1218
    101  CA       -48.2160   25.3540    0.1740 C.3   140  THR140      0.1862
    102  C        -48.9350   25.7030   -1.1460 C.2   140  THR140      0.2287
    103  O        -48.4020   26.4200   -1.9980 O.2   140  THR140     -0.2866
    104  CB       -46.6700   25.5070    0.0250 C.3   140  THR140      0.1770
    105  OG1      -45.9990   24.9830    1.2080 O.3   140  THR140     -0.2211
    106  CG2      -46.3040   26.9550   -0.0350 C.3   140  THR140      0.0375
@<TRIPOS>BOND
     1   103   102    2
     2   102   101    1
     3   106   104    1
     4   104   101    1
     5   104   105    1
     6     1     2    1
     7   101   100    1
     8    14    13    1
     9     4     3    2
    10     2     3    1
    11     2     5    1
    12     7     6    2
    13     3     9   am
    14    13    15    1
    15    13    10    1
    16     6     5    1
    17     6     8   am
    18    58    59    2
    19    58    57    1
    20     9    10    1
    21    94    95    2
    22    94    93    1
    23    10    11    1
    24    98    97    2
    25    57    56    1
    26    57    60    1
    27    93    92    1
    28    93    96    1
    29    60    61    1
    30    11    12    2
    31    11    16   am
    32    97    96    1
    33    97    99   am
    34    16    17    1
    35    61    62    1
    36    62    63    1
    37    19    18    2
    38    17    18    1
    39    17    20    1
    40    63    64    2
    41    53    54    2
    42    53    52    1
    43    65    64    1
    44    64    66    1
    45    52    55    1
    46    52    51    1
    47    28    26   am
    48    49    50   ar
    49    49    47   ar
    50    50    48   ar
    51    21    22    1
    52    26    27    2
    53    26    25    1
    54    47    46   ar
    55    40    39    1
    56    25    22    1
    57    48    46   ar
    58    22    23    1
    59    46    45    1
    60    24    23    2
    61    38    39   ar
    62    38    36   ar
    63    39    37   ar
    64    89    87   ar
    65    89    91   ar
    66    86    87   ar
    67    86    84   ar
    68    43    42    1
    69    43    44    2
    70    77    75    1
    71    87    85   ar
    72    91    90   ar
    73    45    42    1
    74    42    41    1
    75    36    34   ar
    76    84    83   ar
    77    37    35   ar
    78    75    76    1
    79    75    74    2
    80    85    83   ar
    81    85    88   ar
    82    90    88   ar
    83    83    82    1
    84    34    35   ar
    85    34    33    1
    86    74    73    1
    87    82    79    1
    88    33    30    1
    89    73    72    1
    90    72    71    1
    91    78    79    1
    92    30    29    1
    93    30    31    1
    94    79    80    1
    95    71    68    1
    96    31    32    2
    97    80    81    2
    98    67    68    1
    99    68    69    1
   100    70    69    2
