@<TRIPOS>MOLECULE
tmp/5xfwD00.pdb
 97 92 0 0 0
SMALL
GASTEIGER

@<TRIPOS>ATOM
      1  N        140.5660   14.3790  -83.4070 N.3    23  GLY23      -0.1225
      2  CA       140.7260   13.0380  -82.8250 C.3    23  GLY23       0.1811
      3  C        139.5970   12.5850  -81.9130 C.2    23  GLY23       0.2280
      4  O        139.5830   11.4300  -81.4920 O.2    23  GLY23      -0.2866
      5  N        136.9440   12.9320  -88.2040 N.3    46  LYS46      -0.1231
      6  CA       138.1630   12.2550  -87.7430 C.3    46  LYS46       0.1693
      7  C        139.2430   12.2750  -88.8210 C.2    46  LYS46       0.2592
      8  O        138.9560   12.0340  -89.9920 O.2    46  LYS46      -0.2718
      9  CB       137.8190   10.8080  -87.3570 C.3    46  LYS46       0.0285
     10  CG       138.9780    9.9250  -86.8990 C.3    46  LYS46       0.0035
     11  CD       139.4870   10.2900  -85.5070 C.3    46  LYS46       0.0206
     12  CE       140.0220    9.0670  -84.7680 C.3    46  LYS46       0.1093
     13  NZ       140.4980    9.3390  -83.3810 N.3    46  LYS46      -0.1314
     14  N        140.4850   12.5610  -88.4200 N.am   47  SER47      -0.1952
     15  CA       141.6170   12.5800  -89.3450 C.3    47  SER47       0.1924
     16  C        141.6780   11.2640  -90.1040 C.2    47  SER47       0.2314
     17  O        141.9020   10.2100  -89.5090 O.2    47  SER47      -0.2863
     18  CB       142.9340   12.8140  -88.6060 C.3    47  SER47       0.2116
     19  OG       142.8560   13.9560  -87.7800 O.3    47  SER47      -0.2180
     20  N        147.6850    9.6970  -75.4040 N.3    70  ASN70      -0.1240
     21  CA       147.1350    8.7730  -76.3780 C.3    70  ASN70       0.1653
     22  C        148.1120    8.3910  -77.4830 C.2    70  ASN70       0.2266
     23  O        149.0170    9.1570  -77.8460 O.2    70  ASN70      -0.2867
     24  CB       145.8280    9.3460  -76.9710 C.3    70  ASN70       0.1155
     25  CG       146.0720   10.2470  -78.1660 C.2    70  ASN70       0.2627
     26  OD1      146.2070   11.4620  -78.0300 O.2    70  ASN70      -0.2716
     27  ND2      146.1830    9.6570  -79.3250 N.am   70  ASN70      -0.0877
     28  N        146.5860    6.7960  -80.6890 N.3    72  MET72      -0.1230
     29  CA       145.4360    6.2040  -81.3530 C.3    72  MET72       0.1702
     30  C        145.8740    5.6170  -82.6890 C.2    72  MET72       0.2593
     31  O        145.4440    4.5240  -83.0590 O.2    72  MET72      -0.2718
     32  CB       144.3130    7.2340  -81.5190 C.3    72  MET72       0.0401
     33  CG       143.5440    7.4860  -80.2370 C.3    72  MET72       0.0596
     34  SD       142.2140    8.6820  -80.4420 S.3    72  MET72      -0.1393
     35  CE       143.0670   10.2580  -80.3450 C.3    72  MET72       0.0692
     36  N        146.7520    6.3240  -83.3910 N.am   73  GLY73      -0.1942
     37  CA       147.3060    5.8520  -84.6490 C.3    73  GLY73       0.2014
     38  C        146.3640    5.9700  -85.8370 C.2    73  GLY73       0.2639
     39  O        146.3390    5.1010  -86.6910 O.2    73  GLY73      -0.2714
     40  N        145.6140    7.0690  -85.8890 N.am   74  LEU74      -0.1963
     41  CA       144.7200    7.4080  -87.0070 C.3    74  LEU74       0.1713
     42  C        143.6570    6.3460  -87.3500 C.2    74  LEU74       0.2458
     43  O        143.4720    6.0230  -88.5250 O.2    74  LEU74      -0.2730
     44  CB       145.5230    7.8090  -88.2480 C.3    74  LEU74       0.0310
     45  CG       146.4150    9.0420  -88.0640 C.3    74  LEU74       0.0022
     46  CD1      147.2530    9.2480  -89.3050 C.3    74  LEU74       0.0001
     47  CD2      145.6140   10.2980  -87.7490 C.3    74  LEU74       0.0001
     48  N        142.9450    5.8370  -86.3290 N.am   75  PRO75      -0.2727
     49  CA       141.8300    4.9310  -86.6180 C.3    75  PRO75       0.1402
     50  C        140.7240    5.7270  -87.2760 C.2    75  PRO75       0.2269
     51  O        140.3300    6.7700  -86.7660 O.2    75  PRO75      -0.2865
     52  CB       141.3890    4.4530  -85.2400 C.3    75  PRO75       0.0296
     53  CG       141.7530    5.5650  -84.3180 C.3    75  PRO75       0.0237
     54  CD       142.9530    6.2430  -84.9130 C.3    75  PRO75       0.0939
     55  N        146.2020   17.5350  -92.2260 N.3   130  ASN130     -0.1240
     56  CA       146.9190   17.1970  -90.9910 C.3   130  ASN130      0.1653
     57  C        148.4050   16.9410  -91.2500 C.2   130  ASN130      0.2266
     58  O        148.7680   16.0110  -91.9670 O.2   130  ASN130     -0.2867
     59  CB       146.2900   15.9670  -90.3300 C.3   130  ASN130      0.1155
     60  CG       146.7870   15.7440  -88.9110 C.2   130  ASN130      0.2627
     61  OD1      147.5190   16.5620  -88.3580 O.2   130  ASN130     -0.2716
     62  ND2      146.3890   14.6300  -88.3170 N.am  130  ASN130     -0.0877
     63  N        150.4610   14.3070  -86.9350 N.3   133  CYS133     -0.1221
     64  CA       150.2220   13.0830  -86.1330 C.3   133  CYS133      0.1794
     65  C        151.5320   12.4960  -85.5860 C.2   133  CYS133      0.2443
     66  O        152.4110   12.1330  -86.3670 O.2   133  CYS133     -0.2733
     67  CB       149.4620   11.9850  -86.8860 C.3   133  CYS133      0.0970
     68  SG       149.0990   10.5580  -85.8060 S.3   133  CYS133     -0.0800
     69  N        151.6550   12.4010  -84.2470 N.am  134  PRO134     -0.2718
     70  CA       152.8710   11.8820  -83.6200 C.3   134  PRO134      0.1535
     71  C        152.7830   10.4030  -83.2080 C.2   134  PRO134      0.2598
     72  O        153.6840    9.9140  -82.5230 O.2   134  PRO134     -0.2715
     73  CB       152.9680   12.7460  -82.3630 C.3   134  PRO134      0.0310
     74  CG       151.5420   12.8930  -81.9420 C.3   134  PRO134      0.0237
     75  CD       150.7160   12.8830  -83.2140 C.3   134  PRO134      0.0939
     76  N        151.7240    9.6990  -83.6260 N.am  135  ASN135     -0.1973
     77  CA       151.3950    8.3670  -83.0820 C.3   135  ASN135      0.1688
     78  C        151.4520    7.1960  -84.0670 C.2   135  ASN135      0.2292
     79  O        151.0900    6.0750  -83.7000 O.2   135  ASN135     -0.2864
     80  CB       150.0050    8.3980  -82.4400 C.3   135  ASN135      0.1181
     81  CG       149.8770    9.4320  -81.3320 C.2   135  ASN135      0.2629
     82  OD1      148.8760   10.1500  -81.2560 O.2   135  ASN135     -0.2716
     83  ND2      150.8590    9.4880  -80.4410 N.am  135  ASN135     -0.0877
     84  N        148.3290   20.3750  -82.4650 N.3   197  ASN197     -0.1225
     85  CA       148.0550   18.9960  -82.1480 C.3   197  ASN197      0.1785
     86  C        148.8460   18.6990  -80.8510 C.2   197  ASN197      0.2597
     87  O        149.5630   19.5510  -80.3170 O.2   197  ASN197     -0.2718
     88  CB       148.4420   18.0850  -83.3060 C.3   197  ASN197      0.1169
     89  CG       147.7440   16.7360  -83.2340 C.2   197  ASN197      0.2627
     90  OD1      146.5210   16.6640  -83.2020 O.2   197  ASN197     -0.2716
     91  ND2      148.5180   15.6690  -83.1440 N.am  197  ASN197     -0.0877
     92  N        148.7010   17.5020  -80.3350 N.am  198  SER198     -0.1952
     93  CA       149.2830   17.1070  -79.0620 C.3   198  SER198      0.1924
     94  C        150.7680   17.3960  -78.9370 C.2   198  SER198      0.2314
     95  O        151.4950   17.4420  -79.9310 O.2   198  SER198     -0.2863
     96  CB       149.1140   15.6030  -78.9210 C.3   198  SER198      0.2116
     97  OG       147.8460   15.2140  -79.4020 O.3   198  SER198     -0.2180
@<TRIPOS>BOND
     1    55    56    1
     2    58    57    2
     3    57    56    1
     4    56    59    1
     5    59    60    1
     6    16    17    2
     7    16    15    1
     8     8     7    2
     9    15    18    1
    10    15    14    1
    11    46    45    1
    12    60    61    2
    13    60    62   am
    14     7    14   am
    15     7     6    1
    16    18    19    1
    17    43    42    2
    18    44    45    1
    19    44    41    1
    20     5     6    1
    21    45    47    1
    22     6     9    1
    23     9    10    1
    24    42    41    1
    25    42    48   am
    26    50    51    2
    27    50    49    1
    28    41    40    1
    29    63    64    1
    30    10    11    1
    31    67    64    1
    32    67    68    1
    33    39    38    2
    34    49    48    1
    35    49    52    1
    36    66    65    2
    37    48    54    1
    38    64    65    1
    39    40    38   am
    40    38    37    1
    41    65    69   am
    42    11    12    1
    43    52    53    1
    44    54    53    1
    45    12    13    1
    46    37    36    1
    47    69    70    1
    48    69    75    1
    49    78    79    2
    50    78    77    1
    51    76    71   am
    52    76    77    1
    53    70    71    1
    54    70    73    1
    55     1     2    1
    56    36    30   am
    57    88    89    1
    58    88    85    1
    59    89    90    2
    60    89    91   am
    61    75    74    1
    62    71    72    2
    63    77    80    1
    64    31    30    2
    65     2     3    1
    66    30    29    1
    67    84    85    1
    68    80    81    1
    69    73    74    1
    70    85    86    1
    71     3     4    2
    72    32    29    1
    73    32    33    1
    74    29    28    1
    75    81    82    2
    76    81    83   am
    77    86    92   am
    78    86    87    2
    79    34    35    1
    80    34    33    1
    81    92    93    1
    82    95    94    2
    83    97    96    1
    84    27    25   am
    85    93    94    1
    86    93    96    1
    87    25    26    2
    88    25    24    1
    89    23    22    2
    90    22    21    1
    91    24    21    1
    92    21    20    1
