@<TRIPOS>MOLECULE
tmp/5xfwD02.pdb
 139 132 0 0 0
SMALL
GASTEIGER

@<TRIPOS>ATOM
      1  N        138.2050   18.8180  -81.6710 N.3    21  ALA21      -0.1245
      2  CA       139.4780   18.5100  -82.2980 C.3    21  ALA21       0.1562
      3  C        139.3040   17.2240  -83.0960 C.2    21  ALA21       0.2260
      4  O        138.4940   16.3650  -82.7220 O.2    21  ALA21      -0.2867
      5  CB       140.5510   18.3420  -81.2310 C.3    21  ALA21       0.0290
      6  N        138.6470   13.4690  -81.6090 N.3    24  VAL24      -0.1245
      7  CA       137.6690   13.2330  -80.5410 C.3    24  VAL24       0.1561
      8  C        136.2330   13.3660  -81.0530 C.2    24  VAL24       0.2260
      9  O        135.8950   14.3590  -81.6980 O.2    24  VAL24      -0.2867
     10  CB       137.8930   14.2000  -79.3600 C.3    24  VAL24       0.0252
     11  CG1      136.8920   13.9660  -78.2340 C.3    24  VAL24       0.0019
     12  CG2      139.3100   14.0470  -78.8190 C.3    24  VAL24       0.0019
     13  N        144.3040    5.2340  -75.3060 N.3    61  TYR61      -0.1241
     14  CA       143.8830    6.5580  -74.8520 C.3    61  TYR61       0.1605
     15  C        143.6630    6.4630  -73.3610 C.2    61  TYR61       0.2264
     16  O        142.8840    5.6300  -72.9000 O.2    61  TYR61      -0.2867
     17  CB       142.6030    7.0210  -75.5600 C.3    61  TYR61       0.0534
     18  CG       142.2890    8.4940  -75.3230 C.ar   61  TYR61      -0.0201
     19  CD1      141.8310    8.9400  -74.0840 C.ar   61  TYR61      -0.0009
     20  CD2      142.4640    9.4350  -76.3350 C.ar   61  TYR61      -0.0009
     21  CE1      141.5620   10.2810  -73.8560 C.ar   61  TYR61       0.0417
     22  CE2      142.1890   10.7790  -76.1200 C.ar   61  TYR61       0.0417
     23  CZ       141.7410   11.1940  -74.8780 C.ar   61  TYR61       0.1957
     24  OH       141.4670   12.5230  -74.6650 O.3    61  TYR61      -0.2866
     25  N        145.4440   14.1220  -70.8000 N.3    68  SER68      -0.1217
     26  CA       145.3940   12.8120  -71.4140 C.3    68  SER68       0.1889
     27  C        146.6950   12.4710  -72.1020 C.2    68  SER68       0.2288
     28  O        147.5150   13.3470  -72.4040 O.2    68  SER68      -0.2866
     29  CB       144.2500   12.7390  -72.4330 C.3    68  SER68       0.2089
     30  OG       144.5060   13.5520  -73.5630 O.3    68  SER68      -0.2183
     31  N        147.3610   23.6880  -81.5070 N.3   196  VAL196     -0.1231
     32  CA       148.3060   22.7090  -81.9910 C.3   196  VAL196      0.1692
     33  C        147.7160   21.3370  -81.8090 C.2   196  VAL196      0.2592
     34  O        146.7970   21.1240  -81.0070 O.2   196  VAL196     -0.2718
     35  CB       149.6030   22.7250  -81.1480 C.3   196  VAL196      0.0266
     36  CG1      150.3610   24.0190  -81.3490 C.3   196  VAL196      0.0020
     37  CG2      149.3160   22.5690  -79.6560 C.3   196  VAL196      0.0020
     38  N        148.3290   20.3750  -82.4650 N.am  197  ASN197     -0.1960
     39  CA       148.0550   18.9960  -82.1480 C.3   197  ASN197      0.1819
     40  C        148.8460   18.6990  -80.8510 C.2   197  ASN197      0.2622
     41  O        149.5630   19.5510  -80.3170 O.2   197  ASN197     -0.2715
     42  CB       148.4420   18.0850  -83.3060 C.3   197  ASN197      0.1195
     43  CG       147.7440   16.7360  -83.2340 C.2   197  ASN197      0.2630
     44  OD1      146.5210   16.6640  -83.2020 O.2   197  ASN197     -0.2716
     45  ND2      148.5180   15.6690  -83.1440 N.am  197  ASN197     -0.0877
     46  N        148.7010   17.5020  -80.3350 N.am  198  SER198     -0.1950
     47  CA       149.2830   17.1070  -79.0620 C.3   198  SER198      0.1924
     48  C        150.7680   17.3960  -78.9370 C.2   198  SER198      0.2314
     49  O        151.4950   17.4420  -79.9310 O.2   198  SER198     -0.2863
     50  CB       149.1140   15.6030  -78.9210 C.3   198  SER198      0.2116
     51  OG       147.8460   15.2140  -79.4020 O.3   198  SER198     -0.2180
     52  N        150.3900   14.1380  -75.6610 N.3   223  LEU223     -0.1231
     53  CA       149.7550   14.7280  -74.4950 C.3   223  LEU223      0.1693
     54  C        148.7170   15.7600  -74.9140 C.2   223  LEU223      0.2593
     55  O        148.9500   16.5310  -75.8400 O.2   223  LEU223     -0.2718
     56  CB       150.7870   15.4130  -73.6000 C.3   223  LEU223      0.0284
     57  CG       151.9690   14.5590  -73.1520 C.3   223  LEU223      0.0019
     58  CD1      153.0180   15.4470  -72.4980 C.3   223  LEU223      0.0001
     59  CD2      151.5240   13.4610  -72.2040 C.3   223  LEU223      0.0001
     60  N        147.5950   15.7670  -74.2060 N.am  224  GLY224     -0.1942
     61  CA       146.5480   16.7740  -74.3840 C.3   224  GLY224      0.2014
     62  C        146.0980   17.2850  -73.0410 C.2   224  GLY224      0.2639
     63  O        146.5340   16.7910  -71.9990 O.2   224  GLY224     -0.2714
     64  N        145.2270   18.2910  -73.0580 N.am  225  GLY225     -0.1954
     65  CA       144.6250   18.8110  -71.8350 C.3   225  GLY225      0.1869
     66  C        145.4250   19.9220  -71.1940 C.2   225  GLY225      0.2309
     67  O        146.0400   20.7380  -71.8960 O.2   225  GLY225     -0.2863
     68  N        149.0300   21.2340  -72.1420 N.3   228  VAL228     -0.1245
     69  CA       149.3800   21.8450  -73.4210 C.3   228  VAL228      0.1561
     70  C        148.9490   23.3070  -73.5630 C.2   228  VAL228      0.2260
     71  O        149.2480   23.9170  -74.5820 O.2   228  VAL228     -0.2867
     72  CB       148.8550   21.0150  -74.6130 C.3   228  VAL228      0.0252
     73  CG1      149.1460   19.5220  -74.4080 C.3   228  VAL228      0.0019
     74  CG2      147.3780   21.2310  -74.8460 C.3   228  VAL228      0.0019
     75  N        143.8310   25.0340  -80.4290 N.3   251  CYS251     -0.1221
     76  CA       143.5480   23.6640  -80.0020 C.3   251  CYS251      0.1808
     77  C        144.5220   23.3120  -78.8850 C.2   251  CYS251      0.2602
     78  O        145.7360   23.3330  -79.0990 O.2   251  CYS251     -0.2717
     79  CB       143.7140   22.6940  -81.1700 C.3   251  CYS251      0.0970
     80  SG       143.2600   20.9740  -80.7870 S.3   251  CYS251     -0.0800
     81  N        144.0010   23.0110  -77.7010 N.am  252  GLY252     -0.1942
     82  CA       144.8440   22.6090  -76.5700 C.3   252  GLY252      0.2014
     83  C        144.4860   23.2760  -75.2660 C.2   252  GLY252      0.2639
     84  O        144.5790   24.4920  -75.1540 O.2   252  GLY252     -0.2714
     85  N        144.0960   22.4830  -74.2660 N.am  253  GLY253     -0.1939
     86  CA       143.9170   22.9650  -72.8980 C.3   253  GLY253      0.2014
     87  C        142.6100   23.6530  -72.5410 C.2   253  GLY253      0.2639
     88  O        142.5070   24.2220  -71.4640 O.2   253  GLY253     -0.2714
     89  N        141.6170   23.6020  -73.4250 N.am  254  VAL254     -0.1963
     90  CA       140.3350   24.2620  -73.1670 C.3   254  VAL254      0.1727
     91  C        139.3980   23.3620  -72.3600 C.2   254  VAL254      0.2616
     92  O        138.9220   22.3550  -72.8680 O.2   254  VAL254     -0.2715
     93  CB       139.6370   24.7040  -74.4580 C.3   254  VAL254      0.0290
     94  CG1      138.2820   25.3380  -74.1480 C.3   254  VAL254      0.0023
     95  CG2      140.5060   25.7110  -75.2020 C.3   254  VAL254      0.0023
     96  N        139.1710   23.7530  -71.1090 N.am  255  TYR255     -0.1974
     97  CA       138.1940   23.1240  -70.2070 C.3   255  TYR255      0.1639
     98  C        137.0570   24.0590  -69.7900 C.2   255  TYR255      0.2290
     99  O        136.0930   23.6190  -69.1570 O.2   255  TYR255     -0.2864
    100  CB       138.8980   22.6810  -68.9290 C.3   255  TYR255      0.0560
    101  CG       139.7920   21.4860  -69.0960 C.ar  255  TYR255     -0.0198
    102  CD1      141.0590   21.6160  -69.6630 C.ar  255  TYR255     -0.0009
    103  CD2      139.3830   20.2220  -68.6680 C.ar  255  TYR255     -0.0009
    104  CE1      141.8920   20.5220  -69.8090 C.ar  255  TYR255      0.0417
    105  CE2      140.2060   19.1210  -68.8100 C.ar  255  TYR255      0.0417
    106  CZ       141.4590   19.2770  -69.3800 C.ar  255  TYR255      0.1957
    107  OH       142.2830   18.1920  -69.5170 O.3   255  TYR255     -0.2866
    108  N        139.1660   24.6620  -80.7810 N.3   272  GLN272     -0.1231
    109  CA       138.9080   23.2140  -80.8080 C.3   272  GLN272      0.1698
    110  C        139.0760   22.6310  -79.4150 C.2   272  GLN272      0.2592
    111  O        139.9530   23.0570  -78.6530 O.2   272  GLN272     -0.2718
    112  CB       139.8270   22.5160  -81.8040 C.3   272  GLN272      0.0381
    113  CG       139.8320   23.1580  -83.1800 C.3   272  GLN272      0.0905
    114  CD       140.5030   22.3080  -84.2310 C.2   272  GLN272      0.2608
    115  OE1      141.3540   21.4770  -83.9140 O.2   272  GLN272     -0.2717
    116  NE2      140.1380   22.5160  -85.4930 N.am  272  GLN272     -0.0878
    117  N        138.2230   21.6630  -79.0860 N.am  273  VAL273     -0.1966
    118  CA       138.1930   21.0430  -77.7580 C.3   273  VAL273      0.1727
    119  C        138.4260   19.5440  -77.9600 C.2   273  VAL273      0.2617
    120  O        137.7440   18.9030  -78.7730 O.2   273  VAL273     -0.2715
    121  CB       136.8550   21.3160  -77.0330 C.3   273  VAL273      0.0290
    122  CG1      136.8900   20.7820  -75.6100 C.3   273  VAL273      0.0023
    123  CG2      136.5520   22.8150  -77.0040 C.3   273  VAL273      0.0023
    124  N        139.4300   19.0090  -77.2610 N.am  274  GLY274     -0.1940
    125  CA       139.8100   17.5910  -77.3850 C.3   274  GLY274      0.2014
    126  C        139.5860   16.8070  -76.1030 C.2   274  GLY274      0.2640
    127  O        138.5320   16.2020  -75.9130 O.2   274  GLY274     -0.2714
    128  N        140.5910   16.8230  -75.2260 N.am  275  THR275     -0.1936
    129  CA       140.5900   16.0680  -73.9710 C.3   275  THR275      0.2028
    130  C        139.3390   16.3190  -73.1220 C.2   275  THR275      0.2642
    131  O        138.7020   15.3750  -72.6520 O.2   275  THR275     -0.2714
    132  CB       141.8580   16.4090  -73.1540 C.3   275  THR275      0.1808
    133  OG1      143.0020   15.9810  -73.8890 O.3   275  THR275     -0.2208
    134  CG2      141.8670   15.7340  -71.7790 C.3   275  THR275      0.0379
    135  N        138.9930   17.5880  -72.9300 N.am  276  ALA276     -0.1977
    136  CA       137.8250   17.9490  -72.1200 C.3   276  ALA276      0.1597
    137  C        136.5350   17.3940  -72.7310 C.2   276  ALA276      0.2287
    138  O        135.6430   16.9580  -71.9960 O.2   276  ALA276     -0.2864
    139  CB       137.7350   19.4560  -71.9410 C.3   276  ALA276      0.0319
@<TRIPOS>BOND
     1   116   114   am
     2   114   115    2
     3   114   113    1
     4    42    43    1
     5    42    39    1
     6    43    44    2
     7    43    45   am
     8   113   112    1
     9     3     4    2
    10     3     2    1
    11    38    39    1
    12    38    33   am
    13     2     1    1
    14     2     5    1
    15    39    40    1
    16    32    33    1
    17    32    31    1
    18    32    35    1
    19    33    34    2
    20   112   109    1
    21     9     8    2
    22     6     7    1
    23    36    35    1
    24    79    80    1
    25    79    76    1
    26    35    37    1
    27     8     7    1
    28    40    46   am
    29    40    41    2
    30   109   108    1
    31   109   110    1
    32     7    10    1
    33    75    76    1
    34    46    47    1
    35    76    77    1
    36    49    48    2
    37   110   117   am
    38   110   111    2
    39    51    50    1
    40    10    12    1
    41    10    11    1
    42    78    77    2
    43   117   118    1
    44    47    48    1
    45    47    50    1
    46    77    81   am
    47   120   119    2
    48   119   118    1
    49   119   124   am
    50   118   121    1
    51    81    82    1
    52   125   124    1
    53   125   126    1
    54   121   123    1
    55   121   122    1
    56    82    83    1
    57    20    22   ar
    58    20    18   ar
    59    22    23   ar
    60   126   127    2
    61   126   128   am
    62    55    54    2
    63    52    53    1
    64    17    18    1
    65    17    14    1
    66    18    19   ar
    67    13    14    1
    68    83    84    2
    69    83    85   am
    70   128   129    1
    71    95    93    1
    72    54    53    1
    73    54    60   am
    74    23    24    1
    75    23    21   ar
    76    14    15    1
    77    74    72    1
    78    72    73    1
    79    72    69    1
    80    71    70    2
    81    53    56    1
    82    93    94    1
    83    93    90    1
    84    61    60    1
    85    61    62    1
    86    85    86    1
    87    19    21   ar
    88   129   132    1
    89   129   130    1
    90   133   132    1
    91    56    57    1
    92    30    29    1
    93    70    69    1
    94    89    90    1
    95    89    87   am
    96    69    68    1
    97    15    16    2
    98    90    91    1
    99   132   134    1
   100    57    58    1
   101    57    59    1
   102   130   135   am
   103   130   131    2
   104    64    62   am
   105    64    65    1
   106    62    63    2
   107   135   136    1
   108    86    87    1
   109    92    91    2
   110   137   136    1
   111   137   138    2
   112    87    88    2
   113    29    26    1
   114    28    27    2
   115    91    96   am
   116   136   139    1
   117    27    26    1
   118    67    66    2
   119    65    66    1
   120    26    25    1
   121    96    97    1
   122    97    98    1
   123    97   100    1
   124   104   102   ar
   125   104   106   ar
   126    98    99    2
   127   102   101   ar
   128   107   106    1
   129   106   105   ar
   130   101   100    1
   131   101   103   ar
   132   105   103   ar
