@<TRIPOS>MOLECULE
tmp/5xg3B00.pdb
 85 80 0 0 0
SMALL
GASTEIGER

@<TRIPOS>ATOM
      1  N         23.0710  -30.7470  -26.7740 N.3   274  PRO274     -0.2116
      2  CA        23.1800  -30.5170  -25.3140 C.3   274  PRO274      0.1372
      3  C         22.6820  -31.7070  -24.5050 C.2   274  PRO274      0.2244
      4  O         21.9810  -32.5810  -25.0390 O.2   274  PRO274     -0.2868
      5  CB        22.2890  -29.2790  -25.1050 C.3   274  PRO274      0.0268
      6  CG        21.3120  -29.3160  -26.2760 C.3   274  PRO274      0.0207
      7  CD        22.1360  -29.8080  -27.4180 C.3   274  PRO274      0.0892
      8  N         19.1180  -33.5770  -24.5860 N.3   277  LYS277     -0.1245
      9  CA        18.2600  -33.2980  -25.7300 C.3   277  LYS277      0.1561
     10  C         18.5280  -34.1210  -26.9690 C.2   277  LYS277      0.2260
     11  O         17.7450  -34.9890  -27.3450 O.2   277  LYS277     -0.2867
     12  CB        18.3680  -31.8410  -26.1540 C.3   277  LYS277      0.0271
     13  CG        17.0220  -31.1540  -26.2870 C.3   277  LYS277      0.0035
     14  CD        17.1350  -29.6570  -26.0460 C.3   277  LYS277      0.0206
     15  CE        17.5620  -29.3530  -24.6150 C.3   277  LYS277      0.1093
     16  NZ        16.6030  -29.8750  -23.5980 N.3   277  LYS277     -0.1314
     17  N         19.4550  -35.0470  -31.0870 N.3   279  LEU279     -0.1231
     18  CA        18.6890  -35.2270  -32.3100 C.3   279  LEU279      0.1693
     19  C         18.1280  -33.9190  -32.8580 C.2   279  LEU279      0.2591
     20  O         16.9450  -33.6750  -32.6790 O.2   279  LEU279     -0.2718
     21  CB        17.5470  -36.1940  -32.0600 C.3   279  LEU279      0.0284
     22  CG        17.9300  -37.6580  -31.8490 C.3   279  LEU279      0.0019
     23  CD1       16.6890  -38.4330  -31.4730 C.3   279  LEU279      0.0001
     24  CD2       18.5390  -38.2680  -33.0850 C.3   279  LEU279      0.0001
     25  N         18.9520  -33.0530  -33.4790 N.am  280  GLN280     -0.1979
     26  CA        18.4640  -31.7500  -33.9570 C.3   280  GLN280      0.1601
     27  C         19.4170  -31.0610  -34.9430 C.2   280  GLN280      0.2287
     28  O         20.2050  -31.7310  -35.6110 O.2   280  GLN280     -0.2864
     29  CB        18.1670  -30.8190  -32.7800 C.3   280  GLN280      0.0394
     30  CG        19.1470  -30.8560  -31.6220 C.3   280  GLN280      0.0908
     31  CD        18.4790  -30.4080  -30.3290 C.2   280  GLN280      0.2608
     32  OE1       18.4540  -31.1360  -29.3380 O.2   280  GLN280     -0.2717
     33  NE2       17.9240  -29.2040  -30.3410 N.am  280  GLN280     -0.0878
     34  N         18.0320  -24.9510  -34.6940 N.3   284  LEU284     -0.1231
     35  CA        17.0450  -25.2220  -33.6690 C.3   284  LEU284      0.1693
     36  C         17.5870  -25.0330  -32.2620 C.2   284  LEU284      0.2592
     37  O         16.9290  -25.4350  -31.3040 O.2   284  LEU284     -0.2718
     38  CB        16.4570  -26.6230  -33.8420 C.3   284  LEU284      0.0284
     39  CG        15.8720  -26.8930  -35.2450 C.3   284  LEU284      0.0019
     40  CD1       15.2410  -28.2970  -35.3590 C.3   284  LEU284      0.0001
     41  CD2       14.8890  -25.8150  -35.7030 C.3   284  LEU284      0.0001
     42  N         18.7860  -24.4830  -32.1080 N.am  285  LEU285     -0.1966
     43  CA        19.2820  -24.1520  -30.7800 C.3   285  LEU285      0.1728
     44  C         18.6340  -22.8790  -30.2240 C.2   285  LEU285      0.2617
     45  O         18.1940  -21.9940  -30.9730 O.2   285  LEU285     -0.2715
     46  CB        20.7850  -23.9790  -30.8180 C.3   285  LEU285      0.0311
     47  CG        21.5360  -25.2680  -31.0950 C.3   285  LEU285      0.0022
     48  CD1       23.0050  -24.9500  -31.1220 C.3   285  LEU285      0.0001
     49  CD2       21.2490  -26.2730  -30.0130 C.3   285  LEU285      0.0001
     50  N         18.6720  -22.7580  -28.8850 N.am  286  SER286     -0.1936
     51  CA        18.0960  -21.5950  -28.2000 C.3   286  SER286      0.2055
     52  C         18.8570  -20.3250  -28.5460 C.2   286  SER286      0.2644
     53  O         19.8510  -20.3310  -29.2720 O.2   286  SER286     -0.2714
     54  CB        18.1660  -21.7220  -26.6610 C.3   286  SER286      0.2130
     55  OG        18.6390  -20.4950  -26.0400 O.3   286  SER286     -0.2179
     56  N         18.3670  -19.2200  -27.9930 N.am  287  GLY287     -0.1939
     57  CA        19.0260  -17.9550  -28.2160 C.3   287  GLY287      0.2014
     58  C         20.3590  -17.8900  -27.5190 C.2   287  GLY287      0.2639
     59  O         21.3030  -17.2800  -28.0320 O.2   287  GLY287     -0.2714
     60  N         20.4600  -18.5240  -26.3510 N.am  288  GLY288     -0.1939
     61  CA        21.7020  -18.5370  -25.6130 C.3   288  GLY288      0.2014
     62  C         22.4160  -19.8560  -25.7630 C.2   288  GLY288      0.2638
     63  O         23.5240  -20.0340  -25.2490 O.2   288  GLY288     -0.2714
     64  N         21.7960  -20.8060  -26.4600 N.am  289  GLU289     -0.1977
     65  CA        22.5420  -22.0060  -26.8020 C.3   289  GLU289      0.1602
     66  C         23.5850  -21.6750  -27.8540 C.2   289  GLU289      0.2287
     67  O         24.7750  -21.9460  -27.6720 O.2   289  GLU289     -0.2864
     68  CB        21.5940  -23.1150  -27.2690 C.3   289  GLU289      0.0415
     69  CG        20.9630  -23.7170  -25.9920 C.3   289  GLU289      0.1163
     70  CD        20.1690  -24.9810  -26.2140 C.2   289  GLU289      0.3649
     71  OE1       20.0040  -25.4760  -27.3430 O.co2 289  GLU289     -0.2457
     72  OE2       19.7090  -25.5290  -25.1700 O.co2 289  GLU289     -0.2457
     73  N         23.3770  -12.4140  -24.5580 N.3   318  ALA318     -0.1245
     74  CA        22.2250  -13.2900  -24.4160 C.3   318  ALA318      0.1562
     75  C         22.5580  -14.6140  -23.7870 C.2   318  ALA318      0.2260
     76  O         22.7290  -15.6090  -24.5000 O.2   318  ALA318     -0.2867
     77  CB        21.6150  -13.5690  -25.7720 C.3   318  ALA318      0.0290
     78  N         22.1870  -16.7590  -19.5220 N.3   320  ASP320     -0.1239
     79  CA        21.3540  -16.9070  -18.3370 C.3   320  ASP320      0.1674
     80  C         21.8910  -15.9910  -17.2350 C.2   320  ASP320      0.2266
     81  O         22.7590  -15.1430  -17.4550 O.2   320  ASP320     -0.2867
     82  CB        21.3120  -18.3690  -17.8960 C.3   320  ASP320      0.1410
     83  CG        21.1390  -19.3570  -19.0830 C.2   320  ASP320      0.3668
     84  OD1       21.2410  -18.9140  -20.2530 O.co2 320  ASP320     -0.2456
     85  OD2       20.9210  -20.5820  -18.8440 O.co2 320  ASP320     -0.2456
@<TRIPOS>BOND
     1    41    39    1
     2    28    27    2
     3    40    39    1
     4    39    38    1
     5    27    26    1
     6    34    35    1
     7    26    25    1
     8    26    29    1
     9    38    35    1
    10    35    36    1
    11    25    19   am
    12    24    22    1
    13    19    20    2
    14    19    18    1
    15    29    30    1
    16    18    21    1
    17    18    17    1
    18    36    42   am
    19    36    37    2
    20    42    43    1
    21    21    22    1
    22    22    23    1
    23    30    31    1
    24    48    47    1
    25    47    46    1
    26    47    49    1
    27    45    44    2
    28    46    43    1
    29    43    44    1
    30    33    31   am
    31    31    32    2
    32    44    50   am
    33    53    52    2
    34    50    51    1
    35    52    51    1
    36    52    56   am
    37    57    56    1
    38    57    58    1
    39    51    54    1
    40    59    58    2
    41    66    67    2
    42    66    65    1
    43    58    60   am
    44     7     1    1
    45     7     6    1
    46    11    10    2
    47    71    70   ar
    48    68    65    1
    49    68    69    1
    50    10     9    1
    51    65    64    1
    52     1     2    1
    53    54    55    1
    54    64    62   am
    55    60    61    1
    56    13    12    1
    57    13    14    1
    58     6     5    1
    59    70    69    1
    60    70    72   ar
    61    12     9    1
    62    14    15    1
    63    77    74    1
    64    62    61    1
    65    62    63    2
    66     9     8    1
    67     2     5    1
    68     2     3    1
    69     4     3    2
    70    15    16    1
    71    73    74    1
    72    76    75    2
    73    74    75    1
    74    84    83   ar
    75    78    79    1
    76    83    85   ar
    77    83    82    1
    78    79    82    1
    79    79    80    1
    80    81    80    2
