@<TRIPOS>MOLECULE
tmp/5xg3B01.pdb
 146 140 0 0 0
SMALL
GASTEIGER

@<TRIPOS>ATOM
      1  N         36.8090    8.7980  -33.0320 N.3    12  LYS12      -0.1231
      2  CA        35.3670    8.6020  -32.8540 C.3    12  LYS12       0.1693
      3  C         34.7500    9.3790  -31.6820 C.2    12  LYS12       0.2592
      4  O         34.6930   10.6170  -31.7060 O.2    12  LYS12      -0.2718
      5  CB        35.0680    7.1120  -32.7410 C.3    12  LYS12       0.0285
      6  CG        35.2370    6.3880  -34.0790 C.3    12  LYS12       0.0035
      7  CD        34.3710    5.1420  -34.1300 C.3    12  LYS12       0.0206
      8  CE        34.4940    4.4050  -35.4540 C.3    12  LYS12       0.1093
      9  NZ        33.4940    3.2770  -35.4930 N.3    12  LYS12      -0.1314
     10  N         34.2250    8.6870  -30.6830 N.am   13  SER13      -0.1952
     11  CA        33.8250    9.3650  -29.4460 C.3    13  SER13       0.1924
     12  C         34.9870    9.9930  -28.6810 C.2    13  SER13       0.2314
     13  O         34.7450   10.8800  -27.8510 O.2    13  SER13      -0.2863
     14  CB        33.1240    8.3990  -28.4930 C.3    13  SER13       0.2116
     15  OG        34.0650    7.4430  -28.0000 O.3    13  SER13      -0.2180
     16  N         30.5200    0.8790  -18.4230 N.3    30  GLY30      -0.1210
     17  CA        29.9740    2.0980  -18.9180 C.3    30  GLY30       0.1940
     18  C         28.5970    1.9060  -19.4950 C.2    30  GLY30       0.2454
     19  O         28.2730    0.9020  -20.1460 O.2    30  GLY30      -0.2732
     20  N         27.7630    2.9050  -19.2280 N.am   31  PRO31      -0.2717
     21  CA        26.4000    2.9530  -19.7630 C.3    31  PRO31       0.1535
     22  C         26.3610    3.3980  -21.2170 C.2    31  PRO31       0.2599
     23  O         27.2850    4.0230  -21.7440 O.2    31  PRO31      -0.2715
     24  CB        25.7290    3.9840  -18.8600 C.3    31  PRO31       0.0310
     25  CG        26.8830    4.9150  -18.5410 C.3    31  PRO31       0.0237
     26  CD        28.0410    4.0170  -18.3080 C.3    31  PRO31       0.0939
     27  N         25.2310    3.1070  -21.8470 N.am   32  ASN32      -0.1959
     28  CA        25.1240    3.2710  -23.2810 C.3    32  ASN32       0.1819
     29  C         25.3120    4.7290  -23.6740 C.2    32  ASN32       0.2622
     30  O         25.1750    5.6490  -22.8610 O.2    32  ASN32      -0.2715
     31  CB        23.7900    2.7330  -23.7650 C.3    32  ASN32       0.1195
     32  CG        23.7570    1.2180  -23.7350 C.2    32  ASN32       0.2630
     33  OD1       24.6270    0.5660  -24.3180 O.2    32  ASN32      -0.2716
     34  ND2       22.7720    0.6440  -23.0340 N.am   32  ASN32      -0.0877
     35  N         25.6900    4.9220  -24.9390 N.am   33  GLY33      -0.1940
     36  CA        26.1560    6.1890  -25.4470 C.3    33  GLY33       0.2014
     37  C         27.6410    6.3730  -25.2550 C.2    33  GLY33       0.2640
     38  O         28.2890    7.0820  -26.0190 O.2    33  GLY33      -0.2714
     39  N         28.2030    5.6760  -24.2940 N.am   34  SER34      -0.1935
     40  CA        29.6090    5.8240  -24.0370 C.3    34  SER34       0.2055
     41  C         30.4010    5.1280  -25.1420 C.2    34  SER34       0.2644
     42  O         29.8410    4.6960  -26.1600 O.2    34  SER34      -0.2714
     43  CB        29.8880    5.3060  -22.6460 C.3    34  SER34       0.2130
     44  OG        31.2130    5.5290  -22.2890 O.3    34  SER34      -0.2179
     45  N         31.7270    5.0560  -24.9320 N.am   35  GLY35      -0.1939
     46  CA        32.7320    4.4540  -25.8060 C.3    35  GLY35       0.2014
     47  C         33.3610    3.0900  -25.5380 C.2    35  GLY35       0.2639
     48  O         34.4600    2.8260  -26.0410 O.2    35  GLY35      -0.2714
     49  N         32.7460    2.2210  -24.7430 N.am   36  LYS36      -0.1963
     50  CA        33.4420    0.9730  -24.4510 C.3    36  LYS36       0.1728
     51  C         33.5670    0.0790  -25.6830 C.2    36  LYS36       0.2617
     52  O         34.6670   -0.3580  -26.0130 O.2    36  LYS36      -0.2715
     53  CB        32.7570    0.2220  -23.3140 C.3    36  LYS36       0.0311
     54  CG        31.4130   -0.3100  -23.6610 C.3    36  LYS36       0.0038
     55  CD        30.3960   -0.6970  -22.6510 C.3    36  LYS36       0.0206
     56  CE        29.0930   -1.1060  -23.2410 C.3    36  LYS36       0.1093
     57  NZ        28.1320   -0.1190  -23.8430 N.3    36  LYS36      -0.1314
     58  N         32.4920   -0.1570  -26.4150 N.am   37  SER37      -0.1936
     59  CA        32.5680   -0.9550  -27.6220 C.3    37  SER37       0.2055
     60  C         33.2270   -0.1740  -28.7630 C.2    37  SER37       0.2643
     61  O         33.3750   -0.6910  -29.8670 O.2    37  SER37      -0.2714
     62  CB        31.1570   -1.4680  -27.9500 C.3    37  SER37       0.2130
     63  OG        31.1120   -2.3900  -29.0300 O.3    37  SER37      -0.2179
     64  N         33.5930    1.0810  -28.5050 N.am   38  ASN38      -0.1971
     65  CA        34.3970    1.8390  -29.4410 C.3    38  ASN38       0.1688
     66  C         35.8700    1.5010  -29.3070 C.2    38  ASN38       0.2292
     67  O         36.5900    1.4340  -30.3150 O.2    38  ASN38      -0.2864
     68  CB        34.1720    3.3370  -29.2100 C.3    38  ASN38       0.1181
     69  CG        34.3640    4.1580  -30.4910 C.2    38  ASN38       0.2629
     70  OD1       33.9500    5.3090  -30.5430 O.2    38  ASN38      -0.2716
     71  ND2       34.9870    3.5610  -31.5270 N.am   38  ASN38      -0.0877
     72  N         36.7340   -1.0070  -31.5910 N.3    41  ASP41      -0.1239
     73  CA        36.9420   -0.4950  -32.9420 C.3    41  ASP41       0.1674
     74  C         38.3460    0.1110  -33.0910 C.2    41  ASP41       0.2266
     75  O         38.9590    0.0040  -34.1620 O.2    41  ASP41      -0.2867
     76  CB        35.8850    0.5430  -33.3220 C.3    41  ASP41       0.1410
     77  CG        34.4680   -0.0170  -33.3630 C.2    41  ASP41       0.3668
     78  OD1       34.1370   -0.7780  -34.2950 O.co2  41  ASP41      -0.2456
     79  OD2       33.6710    0.3580  -32.4760 O.co2  41  ASP41      -0.2456
     80  N         34.4200    8.9230  -40.9660 N.3    55  ASP55      -0.1239
     81  CA        33.6370    8.7040  -39.7630 C.3    55  ASP55       0.1674
     82  C         34.4350    8.0700  -38.6770 C.2    55  ASP55       0.2266
     83  O         33.8580    7.8240  -37.6190 O.2    55  ASP55      -0.2867
     84  CB        32.3920    7.8900  -40.1070 C.3    55  ASP55       0.1410
     85  CG        31.3630    8.7060  -40.8830 C.2    55  ASP55       0.3668
     86  OD1       31.6430    9.0910  -42.0430 O.co2  55  ASP55      -0.2456
     87  OD2       30.2680    8.9570  -40.3470 O.co2  55  ASP55      -0.2456
     88  N         37.1960    9.7230  -37.4960 N.3    57  ILE57      -0.1231
     89  CA        37.6480   10.8870  -36.7370 C.3    57  ILE57       0.1692
     90  C         36.4840   11.4970  -35.9630 C.2    57  ILE57       0.2592
     91  O         35.3330   11.4290  -36.3950 O.2    57  ILE57      -0.2718
     92  CB        38.2830   11.9170  -37.6880 C.3    57  ILE57       0.0266
     93  CG1       39.2510   11.2160  -38.6530 C.3    57  ILE57       0.0019
     94  CG2       38.9590   13.0240  -36.8930 C.3    57  ILE57       0.0020
     95  CD1       39.9570   12.1390  -39.6530 C.3    57  ILE57       0.0001
     96  N         36.7780   12.1510  -34.8380 N.am   58  PHE58      -0.1962
     97  CA        35.7350   12.6790  -33.9680 C.3    58  PHE58       0.1771
     98  C         34.9000   13.6950  -34.7250 C.2    58  PHE58       0.2619
     99  O         35.4150   14.7310  -35.1440 O.2    58  PHE58      -0.2715
    100  CB        36.4020   13.2730  -32.7290 C.3    58  PHE58       0.0574
    101  CG        35.5140   14.0990  -31.8640 C.ar   58  PHE58      -0.0200
    102  CD1       34.4290   13.5550  -31.2290 C.ar   58  PHE58      -0.0042
    103  CD2       35.8330   15.4140  -31.6140 C.ar   58  PHE58      -0.0042
    104  CE1       33.6480   14.3290  -30.3890 C.ar   58  PHE58      -0.0003
    105  CE2       35.0690   16.1870  -30.7770 C.ar   58  PHE58      -0.0003
    106  CZ        33.9780   15.6520  -30.1600 C.ar   58  PHE58      -0.0000
    107  N         33.6240   13.4200  -34.9210 N.am   59  ALA59      -0.1963
    108  CA        32.8600   14.2740  -35.8220 C.3    59  ALA59       0.1728
    109  C         32.6190   15.6110  -35.1730 C.2    59  ALA59       0.2616
    110  O         32.4360   16.6300  -35.8450 O.2    59  ALA59      -0.2715
    111  CB        31.5220   13.6270  -36.1890 C.3    59  ALA59       0.0334
    112  N         32.5610   15.5730  -33.8510 N.am   60  GLY60      -0.1955
    113  CA        32.4670   16.6550  -32.9000 C.3    60  GLY60       0.1869
    114  C         31.0600   16.9120  -32.3990 C.2    60  GLY60       0.2309
    115  O         30.1100   17.0380  -33.1880 O.2    60  GLY60      -0.2863
    116  N         30.2890   -7.2200  -31.1350 N.3   133  GLN133     -0.1245
    117  CA        28.9500   -7.0510  -30.5990 C.3   133  GLN133      0.1566
    118  C         27.9490   -7.3440  -31.6990 C.2   133  GLN133      0.2260
    119  O         28.0650   -6.8330  -32.8200 O.2   133  GLN133     -0.2867
    120  CB        28.7360   -5.6360  -30.0620 C.3   133  GLN133      0.0367
    121  CG        27.6080   -5.4670  -29.0430 C.3   133  GLN133      0.0905
    122  CD        27.4880   -4.0310  -28.5420 C.2   133  GLN133      0.2608
    123  OE1       28.0890   -3.1040  -29.0940 O.2   133  GLN133     -0.2717
    124  NE2       26.7040   -3.8460  -27.4940 N.am  133  GLN133     -0.0878
    125  N         27.5900   -5.5860  -19.3050 N.3   345  HIS345     -0.1241
    126  CA        26.7440   -4.8270  -18.4120 C.3   345  HIS345      0.1621
    127  C         26.2830   -5.6010  -17.1740 C.2   345  HIS345      0.2264
    128  O         25.7540   -4.9810  -16.2490 O.2   345  HIS345     -0.2867
    129  CB        25.5270   -4.3200  -19.1950 C.3   345  HIS345      0.0745
    130  CG        25.8700   -3.3470  -20.2780 C.ar  345  HIS345      0.0817
    131  ND1       25.2770   -3.3680  -21.5240 N.ar  345  HIS345     -0.2268
    132  CD2       26.7440   -2.3140  -20.2980 C.ar  345  HIS345      0.1154
    133  CE1       25.7760   -2.3950  -22.2680 C.ar  345  HIS345      0.1986
    134  NE2       26.6700   -1.7390  -21.5470 N.ar  345  HIS345     -0.2212
    135  N         30.3580    9.2490  -20.3140 N.3   361  MET361     -0.1245
    136  CA        30.4500   10.2980  -21.3300 C.3   361  MET361      0.1570
    137  C         29.9910   11.6330  -20.7260 C.2   361  MET361      0.2261
    138  O         28.8250   12.0110  -20.7750 O.2   361  MET361     -0.2867
    139  CB        29.6480    9.9120  -22.5810 C.3   361  MET361      0.0387
    140  CG        29.6880   10.9110  -23.7530 C.3   361  MET361      0.0595
    141  SD        28.6650   10.3920  -25.1550 S.3   361  MET361     -0.1393
    142  CE        29.8910    9.8210  -26.3180 C.3   361  MET361      0.0692
    143  N         29.0590   14.6360  -26.2000 N.3   365  GLY365     -0.1225
    144  CA        29.3900   13.5370  -27.0720 C.3   365  GLY365      0.1811
    145  C         30.8460   13.1800  -26.9780 C.2   365  GLY365      0.2280
    146  O         31.5100   13.0100  -28.0000 O.2   365  GLY365     -0.2866
@<TRIPOS>BOND
     1    86    85   ar
     2    80    81    1
     3    85    87   ar
     4    85    84    1
     5    84    81    1
     6    81    82    1
     7    95    93    1
     8    82    83    2
     9    93    92    1
    10    92    94    1
    11    92    89    1
    12    88    89    1
    13    89    90    1
    14    91    90    2
    15   111   108    1
    16    90    96   am
    17   110   109    2
    18   108   109    1
    19   108   107    1
    20     9     8    1
    21     8     7    1
    22   109   112   am
    23    99    98    2
    24   107    98   am
    25    96    97    1
    26    98    97    1
    27    78    77   ar
    28    75    74    2
    29     7     6    1
    30     6     5    1
    31    97   100    1
    32   112   113    1
    33    77    76    1
    34    77    79   ar
    35    76    73    1
    36   115   114    2
    37    74    73    1
    38     1     2    1
    39    73    72    1
    40   113   114    1
    41     2     5    1
    42     2     3    1
    43   119   118    2
    44   100   101    1
    45   101   103   ar
    46   101   102   ar
    47     4     3    2
    48   118   117    1
    49     3    10   am
    50   103   105   ar
    51    71    69   am
    52   102   104   ar
    53   116   117    1
    54   105   106   ar
    55    10    11    1
    56   117   120    1
    57    70    69    2
    58    69    68    1
    59   104   106   ar
    60    67    66    2
    61   120   121    1
    62    61    60    2
    63    11    12    1
    64    11    14    1
    65    65    66    1
    66    65    68    1
    67    65    64    1
    68   123   122    2
    69   121   122    1
    70    63    62    1
    71    60    64   am
    72    60    59    1
    73    12    13    2
    74   122   124   am
    75    14    15    1
    76   146   145    2
    77    62    59    1
    78    59    58    1
    79   144   145    1
    80   144   143    1
    81    58    51   am
    82   142   141    1
    83    42    41    2
    84    48    47    2
    85    38    37    2
    86    52    51    2
    87    46    47    1
    88    46    45    1
    89    51    50    1
    90    47    49   am
    91    36    37    1
    92    36    35    1
    93    37    39   am
    94   141   140    1
    95    41    45   am
    96    41    40    1
    97    35    29   am
    98    49    50    1
    99    50    53    1
   100    33    32    2
   101    39    40    1
   102    40    43    1
   103    57    56    1
   104    31    32    1
   105    31    28    1
   106   140   139    1
   107    32    34   am
   108    29    28    1
   109    29    30    2
   110    54    53    1
   111    54    55    1
   112    28    27    1
   113    56    55    1
   114    43    44    1
   115   139   136    1
   116   133   134   ar
   117   133   131   ar
   118    27    22   am
   119    23    22    2
   120   134   132   ar
   121   131   130   ar
   122   136   137    1
   123   136   135    1
   124    22    21    1
   125   138   137    2
   126   132   130   ar
   127   130   129    1
   128    19    18    2
   129    21    20    1
   130    21    24    1
   131    18    20   am
   132    18    17    1
   133   125   126    1
   134    20    26    1
   135   129   126    1
   136    17    16    1
   137    24    25    1
   138    25    26    1
   139   126   127    1
   140   127   128    2
