@<TRIPOS>MOLECULE
tmp/5xg4A01.pdb
 97 94 0 0 0
SMALL
GASTEIGER

@<TRIPOS>ATOM
      1  N        -14.3200  -12.1400  -12.3360 N.3    20  ARG20      -0.1245
      2  CA       -13.8520  -10.7290  -12.2930 C.3    20  ARG20       0.1563
      3  C        -12.3310  -10.6810  -12.0100 C.2    20  ARG20       0.2260
      4  O        -11.8660  -11.3010  -11.0470 O.2    20  ARG20      -0.2867
      5  CB       -14.6450   -9.9220  -11.2350 C.3    20  ARG20       0.0307
      6  CG       -14.0420   -8.5790  -10.8030 C.3    20  ARG20       0.0489
      7  CD       -15.0840   -7.5660  -10.3110 C.3    20  ARG20       0.2205
      8  NE       -15.5740   -7.8010   -8.9390 N.pl3  20  ARG20      -0.0865
      9  CZ       -16.8320   -8.1250   -8.5700 C.cat  20  ARG20       0.5346
     10  NH1      -17.0950   -8.2970   -7.2760 N.pl3  20  ARG20       0.1354
     11  NH2      -17.8430   -8.2890   -9.4420 N.pl3  20  ARG20       0.1354
     12  N        -17.6830  -14.7130   -9.9910 N.3    30  VAL30      -0.1231
     13  CA       -18.6580  -13.6390   -9.7750 C.3    30  VAL30       0.1692
     14  C        -20.0550  -14.2530   -9.7210 C.2    30  VAL30       0.2592
     15  O        -20.7290  -14.1990   -8.6950 O.2    30  VAL30      -0.2718
     16  CB       -18.6050  -12.5770  -10.9150 C.3    30  VAL30       0.0266
     17  CG1      -19.6410  -11.4800  -10.7020 C.3    30  VAL30       0.0020
     18  CG2      -17.2230  -11.9590  -11.0310 C.3    30  VAL30       0.0020
     19  N        -20.4640  -14.8520  -10.8350 N.am   31  CYS31      -0.1970
     20  CA       -21.8250  -15.2830  -11.0430 C.3    31  CYS31       0.1712
     21  C        -21.8880  -16.2080  -12.2310 C.2    31  CYS31       0.2296
     22  O        -20.9480  -16.3060  -13.0010 O.2    31  CYS31      -0.2864
     23  CB       -22.7070  -14.0710  -11.3120 C.3    31  CYS31       0.0983
     24  SG       -23.5970  -13.4590   -9.8640 S.3    31  CYS31      -0.0798
     25  N        -27.2980   -7.8080  -10.5800 N.3    46  HIS46      -0.1226
     26  CA       -26.6590   -7.5200   -9.2720 C.3    46  HIS46       0.1752
     27  C        -25.2410   -8.0460   -9.1600 C.2    46  HIS46       0.2596
     28  O        -24.4250   -7.5030   -8.4260 O.2    46  HIS46      -0.2718
     29  CB       -27.5080   -7.9720   -8.0870 C.3    46  HIS46       0.0759
     30  CG       -27.5810   -9.4530   -7.8990 C.ar   46  HIS46       0.0818
     31  ND1      -26.5440  -10.2020   -7.3800 N.ar   46  HIS46      -0.2268
     32  CD2      -28.5990  -10.3150   -8.1060 C.ar   46  HIS46       0.1154
     33  CE1      -26.9180  -11.4680   -7.3070 C.ar   46  HIS46       0.1986
     34  NE2      -28.1670  -11.5600   -7.7290 N.ar   46  HIS46      -0.2212
     35  N        -24.9510   -9.0910   -9.9070 N.am   47  CYS47      -0.1970
     36  CA       -23.5920   -9.5930  -10.0380 C.3    47  CYS47       0.1712
     37  C        -22.5570   -8.5330  -10.4580 C.2    47  CYS47       0.2296
     38  O        -21.3660   -8.6490  -10.1270 O.2    47  CYS47      -0.2864
     39  CB       -23.5930  -10.7270  -11.0610 C.3    47  CYS47       0.0983
     40  SG       -24.7880  -12.0270  -10.6780 S.3    47  CYS47      -0.0798
     41  N        -21.8630   -3.4190   -8.4690 N.3    50  ASP50      -0.1225
     42  CA       -20.7530   -2.7790   -7.7510 C.3    50  ASP50       0.1805
     43  C        -19.5110   -2.5410   -8.5960 C.2    50  ASP50       0.2597
     44  O        -18.6570   -1.7660   -8.1950 O.2    50  ASP50      -0.2718
     45  CB       -20.3430   -3.6030   -6.5290 C.3    50  ASP50       0.1424
     46  CG       -21.3110   -3.4630   -5.3720 C.2    50  ASP50       0.3668
     47  OD1      -22.4740   -3.0500   -5.5970 O.co2  50  ASP50      -0.2456
     48  OD2      -20.9020   -3.7800   -4.2290 O.co2  50  ASP50      -0.2456
     49  N        -19.3850   -3.2260   -9.7280 N.am   51  TYR51      -0.1976
     50  CA       -18.1660   -3.1990  -10.5300 C.3    51  TYR51       0.1639
     51  C        -18.5670   -3.2050  -12.0060 C.2    51  TYR51       0.2290
     52  O        -18.2970   -4.1570  -12.7180 O.2    51  TYR51      -0.2864
     53  CB       -17.2980   -4.4410  -10.2010 C.3    51  TYR51       0.0560
     54  CG       -16.6230   -4.4500   -8.8420 C.ar   51  TYR51      -0.0198
     55  CD1      -17.3410   -4.7480   -7.6860 C.ar   51  TYR51      -0.0009
     56  CD2      -15.2550   -4.1900   -8.7160 C.ar   51  TYR51      -0.0009
     57  CE1      -16.7290   -4.7560   -6.4340 C.ar   51  TYR51       0.0417
     58  CE2      -14.6330   -4.1940   -7.4720 C.ar   51  TYR51       0.0417
     59  CZ       -15.3730   -4.4780   -6.3310 C.ar   51  TYR51       0.1957
     60  OH       -14.7610   -4.4960   -5.0990 O.3    51  TYR51      -0.2866
     61  N        -16.7880  -22.0970   -2.5230 N.3   150  TYR150     -0.1241
     62  CA       -17.6830  -22.5830   -3.5600 C.3   150  TYR150      0.1605
     63  C        -17.2730  -23.9990   -3.9120 C.2   150  TYR150      0.2264
     64  O        -16.1310  -24.3810   -3.6650 O.2   150  TYR150     -0.2867
     65  CB       -17.5950  -21.6910   -4.7950 C.3   150  TYR150      0.0534
     66  CG       -18.2520  -20.3350   -4.6480 C.ar  150  TYR150     -0.0201
     67  CD1      -19.5380  -20.2140   -4.1300 C.ar  150  TYR150     -0.0009
     68  CD2      -17.6080  -19.1640   -5.0700 C.ar  150  TYR150     -0.0009
     69  CE1      -20.1500  -18.9800   -4.0080 C.ar  150  TYR150      0.0417
     70  CE2      -18.2230  -17.9210   -4.9550 C.ar  150  TYR150      0.0417
     71  CZ       -19.4970  -17.8480   -4.4200 C.ar  150  TYR150      0.1957
     72  OH       -20.1500  -16.6600   -4.2670 O.3   150  TYR150     -0.2866
     73  N        -28.0640  -21.1200   -3.8630 N.3   194  CYS194     -0.1221
     74  CA       -27.5580  -20.3300   -2.7570 C.3   194  CYS194      0.1808
     75  C        -26.6680  -19.3000   -3.3410 C.2   194  CYS194      0.2601
     76  O        -26.6930  -19.0980   -4.5100 O.2   194  CYS194     -0.2717
     77  CB       -26.8500  -21.1280   -1.6720 C.3   194  CYS194      0.0970
     78  SG       -26.6750  -21.0850    0.1230 S.3   194  CYS194     -0.0800
     79  N        -25.9060  -18.6080   -2.5230 N.am  195  GLN195     -0.1965
     80  CA       -25.1130  -17.5090   -2.9970 C.3   195  GLN195      0.1733
     81  C        -24.2080  -18.0370   -4.0370 C.2   195  GLN195      0.2616
     82  O        -23.6840  -19.1080   -3.9060 O.2   195  GLN195     -0.2715
     83  CB       -24.2660  -16.9590   -1.8770 C.3   195  GLN195      0.0408
     84  CG       -23.8340  -15.5300   -2.0780 C.3   195  GLN195      0.0908
     85  CD       -22.6140  -15.1630   -1.2770 C.2   195  GLN195      0.2608
     86  OE1      -22.7290  -14.6910   -0.1620 O.2   195  GLN195     -0.2717
     87  NE2      -21.4400  -15.3640   -1.8470 N.am  195  GLN195     -0.0878
     88  N        -24.0700  -17.2680   -5.0980 N.am  196  GLY196     -0.1955
     89  CA       -23.1390  -17.5560   -6.1490 C.3   196  GLY196      0.1869
     90  C        -23.7150  -18.3940   -7.2300 C.2   196  GLY196      0.2309
     91  O        -23.1160  -18.5180   -8.2400 O.2   196  GLY196     -0.2863
     92  N        -26.3730  -17.0990   -8.4330 N.3   198  SER198     -0.1217
     93  CA       -27.0050  -15.9590   -9.1190 C.3   198  SER198      0.1889
     94  C        -26.5480  -15.8170  -10.5460 C.2   198  SER198      0.2288
     95  O        -25.4090  -16.1550  -10.8700 O.2   198  SER198     -0.2866
     96  CB       -26.7420  -14.6400   -8.3820 C.3   198  SER198      0.2089
     97  OG       -27.4890  -14.5900   -7.1770 O.3   198  SER198     -0.2183
@<TRIPOS>BOND
     1    22    21    2
     2    52    51    2
     3     1     2    1
     4     2     3    1
     5     2     5    1
     6    21    20    1
     7     3     4    2
     8    51    50    1
     9    23    20    1
    10    23    24    1
    11     5     6    1
    12    39    40    1
    13    39    36    1
    14    20    19    1
    15    18    16    1
    16    16    17    1
    17    16    13    1
    18    95    94    2
    19    19    14   am
    20     6     7    1
    21    40    24    1
    22    25    26    1
    23    94    93    1
    24    50    53    1
    25    50    49    1
    26    37    38    2
    27    37    36    1
    28     7     8    1
    29    53    54    1
    30    36    35    1
    31    12    13    1
    32    35    27   am
    33    13    14    1
    34    49    43   am
    35    14    15    2
    36    11     9    1
    37    26    27    1
    38    26    29    1
    39    27    28    2
    40    93    92    1
    41    93    96    1
    42     8     9    2
    43    54    56   ar
    44    54    55   ar
    45    56    58   ar
    46    43    44    2
    47    43    42    1
    48     9    10    1
    49    41    42    1
    50    96    97    1
    51    91    90    2
    52    32    30   ar
    53    32    34   ar
    54    29    30    1
    55    30    31   ar
    56    42    45    1
    57    34    33   ar
    58    55    57   ar
    59    58    59   ar
    60    31    33   ar
    61    90    89    1
    62    45    46    1
    63    57    59   ar
    64    59    60    1
    65    89    88    1
    66    47    46   ar
    67    46    48   ar
    68    88    81   am
    69    68    70   ar
    70    68    66   ar
    71    70    71   ar
    72    65    66    1
    73    65    62    1
    74    66    67   ar
    75    76    75    2
    76    71    72    1
    77    71    69   ar
    78    67    69   ar
    79    81    82    2
    80    81    80    1
    81    63    64    2
    82    63    62    1
    83    73    74    1
    84    62    61    1
    85    75    74    1
    86    75    79   am
    87    80    79    1
    88    80    83    1
    89    74    77    1
    90    84    83    1
    91    84    85    1
    92    87    85   am
    93    77    78    1
    94    85    86    2
