@<TRIPOS>MOLECULE
tmp/5xg4A00.pdb
 126 126 0 0 0
SMALL
GASTEIGER

@<TRIPOS>ATOM
      1  N        -27.2980   -7.8080  -10.5800 N.3    46  HIS46      -0.1241
      2  CA       -26.6590   -7.5200   -9.2720 C.3    46  HIS46       0.1621
      3  C        -25.2410   -8.0460   -9.1600 C.2    46  HIS46       0.2264
      4  O        -24.4250   -7.5030   -8.4260 O.2    46  HIS46      -0.2867
      5  CB       -27.5080   -7.9720   -8.0870 C.3    46  HIS46       0.0745
      6  CG       -27.5810   -9.4530   -7.8990 C.ar   46  HIS46       0.0817
      7  ND1      -26.5440  -10.2020   -7.3800 N.ar   46  HIS46      -0.2268
      8  CD2      -28.5990  -10.3150   -8.1060 C.ar   46  HIS46       0.1154
      9  CE1      -26.9180  -11.4680   -7.3070 C.ar   46  HIS46       0.1986
     10  NE2      -28.1670  -11.5600   -7.7290 N.ar   46  HIS46      -0.2212
     11  N        -34.5510   -7.8860   -5.4330 N.3    94  HIS94      -0.1241
     12  CA       -33.7980   -7.2470   -6.4670 C.3    94  HIS94       0.1621
     13  C        -34.7590   -7.2330   -7.5830 C.2    94  HIS94       0.2264
     14  O        -35.3650   -8.2320   -7.8390 O.2    94  HIS94      -0.2867
     15  CB       -32.6650   -8.1410   -6.8690 C.3    94  HIS94       0.0745
     16  CG       -31.5180   -8.1230   -5.9240 C.ar   94  HIS94       0.0817
     17  ND1      -31.5670   -8.7210   -4.6950 N.ar   94  HIS94      -0.2268
     18  CD2      -30.2880   -7.5820   -6.0280 C.ar   94  HIS94       0.1154
     19  CE1      -30.4170   -8.5540   -4.0780 C.ar   94  HIS94       0.1986
     20  NE2      -29.6210   -7.8660   -4.8680 N.ar   94  HIS94      -0.2212
     21  N        -32.1220  -25.9820   -2.9860 N.3   192  ASP192     -0.1225
     22  CA       -32.3110  -24.6070   -3.4800 C.3   192  ASP192      0.1805
     23  C        -31.0090  -24.1440   -4.1260 C.2   192  ASP192      0.2598
     24  O        -29.9650  -24.7810   -3.9760 O.2   192  ASP192     -0.2718
     25  CB       -32.6820  -23.6360   -2.3330 C.3   192  ASP192      0.1424
     26  CG       -33.2480  -22.2810   -2.8250 C.2   192  ASP192      0.3668
     27  OD1      -33.6860  -22.1510   -4.0060 O.co2 192  ASP192     -0.2456
     28  OD2      -33.2690  -21.3330   -1.9990 O.co2 192  ASP192     -0.2456
     29  N        -31.0220  -22.9890   -4.7430 N.am  193  SER193     -0.1938
     30  CA       -29.8040  -22.3150   -5.0710 C.3   193  SER193      0.2055
     31  C        -29.2830  -21.6250   -3.8310 C.2   193  SER193      0.2643
     32  O        -29.9830  -21.5140   -2.8670 O.2   193  SER193     -0.2714
     33  CB       -30.0460  -21.3000   -6.1510 C.3   193  SER193      0.2130
     34  OG       -31.2670  -20.6820   -5.9500 O.3   193  SER193     -0.2179
     35  N        -28.0640  -21.1200   -3.8630 N.am  194  CYS194     -0.1953
     36  CA       -27.5580  -20.3300   -2.7570 C.3   194  CYS194      0.1843
     37  C        -26.6680  -19.3000   -3.3410 C.2   194  CYS194      0.2625
     38  O        -26.6930  -19.0980   -4.5100 O.2   194  CYS194     -0.2714
     39  CB       -26.8500  -21.1280   -1.6720 C.3   194  CYS194      0.0997
     40  SG       -26.6750  -21.0850    0.1230 S.3   194  CYS194     -0.0797
     41  N        -25.9060  -18.6080   -2.5230 N.am  195  GLN195     -0.1977
     42  CA       -25.1130  -17.5090   -2.9970 C.3   195  GLN195      0.1601
     43  C        -24.2080  -18.0370   -4.0370 C.2   195  GLN195      0.2287
     44  O        -23.6840  -19.1080   -3.9060 O.2   195  GLN195     -0.2864
     45  CB       -24.2660  -16.9590   -1.8770 C.3   195  GLN195      0.0394
     46  CG       -23.8340  -15.5300   -2.0780 C.3   195  GLN195      0.0908
     47  CD       -22.6140  -15.1630   -1.2770 C.2   195  GLN195      0.2608
     48  OE1      -22.7290  -14.6910   -0.1620 O.2   195  GLN195     -0.2717
     49  NE2      -21.4400  -15.3640   -1.8470 N.am  195  GLN195     -0.0878
     50  N        -26.3730  -17.0990   -8.4330 N.3   198  SER198     -0.1217
     51  CA       -27.0050  -15.9590   -9.1190 C.3   198  SER198      0.1889
     52  C        -26.5480  -15.8170  -10.5460 C.2   198  SER198      0.2288
     53  O        -25.4090  -16.1550  -10.8700 O.2   198  SER198     -0.2866
     54  CB       -26.7420  -14.6400   -8.3820 C.3   198  SER198      0.2089
     55  OG       -27.4890  -14.5900   -7.1770 O.3   198  SER198     -0.2183
     56  N        -31.5360  -16.8830  -11.6280 N.3   216  VAL216     -0.1231
     57  CA       -31.3790  -16.9140  -10.1650 C.3   216  VAL216      0.1692
     58  C        -31.1680  -15.4750   -9.6640 C.2   216  VAL216      0.2593
     59  O        -30.2840  -14.7650  -10.1560 O.2   216  VAL216     -0.2718
     60  CB       -30.2120  -17.8510   -9.7550 C.3   216  VAL216      0.0266
     61  CG1      -29.9910  -17.8570   -8.2500 C.3   216  VAL216      0.0020
     62  CG2      -30.4640  -19.2780  -10.2400 C.3   216  VAL216      0.0020
     63  N        -31.9980  -15.0480   -8.7140 N.am  217  SER217     -0.1938
     64  CA       -32.0520  -13.6380   -8.3310 C.3   217  SER217      0.2055
     65  C        -31.8130  -13.3870   -6.8580 C.2   217  SER217      0.2643
     66  O        -30.8950  -12.6310   -6.5100 O.2   217  SER217     -0.2714
     67  CB       -33.3860  -13.0210   -8.7420 C.3   217  SER217      0.2130
     68  OG       -33.3070  -11.6110   -8.6560 O.3   217  SER217     -0.2179
     69  N        -32.6970  -13.9140   -6.0330 N.am  218  TRP218     -0.1959
     70  CA       -32.6000  -13.7910   -4.6040 C.3   218  TRP218      0.1771
     71  C        -33.4470  -14.7490   -3.8160 C.2   218  TRP218      0.2620
     72  O        -34.3250  -15.3780   -4.3300 O.2   218  TRP218     -0.2715
     73  CB       -32.9340  -12.3890   -4.1910 C.3   218  TRP218      0.0590
     74  CG       -34.3060  -11.9930   -4.4870 C.ar  218  TRP218      0.0006
     75  CD1      -34.7800  -11.5520   -5.6490 C.ar  218  TRP218      0.0946
     76  CD2      -35.3820  -11.9650   -3.5810 C.ar  218  TRP218      0.0152
     77  NE1      -36.0850  -11.2640   -5.5450 N.ar  218  TRP218     -0.2442
     78  CE2      -36.4830  -11.5130   -4.2720 C.ar  218  TRP218      0.0810
     79  CE3      -35.5180  -12.2830   -2.2400 C.ar  218  TRP218      0.0012
     80  CZ2      -37.6940  -11.3770   -3.6900 C.ar  218  TRP218      0.0191
     81  CZ3      -36.7000  -12.1540   -1.6770 C.ar  218  TRP218      0.0001
     82  CH2      -37.7850  -11.7070   -2.3870 C.ar  218  TRP218      0.0015
     83  N        -33.1300  -14.8770   -2.5430 N.am  219  GLY219     -0.1954
     84  CA       -33.9230  -15.6090   -1.5840 C.3   219  GLY219      0.1869
     85  C        -33.4390  -15.2620   -0.2090 C.2   219  GLY219      0.2309
     86  O        -32.3630  -14.7420   -0.0840 O.2   219  GLY219     -0.2863
     87  N        -31.7160  -16.6680    2.7180 N.3   221  GLY221     -0.1210
     88  CA       -30.9490  -17.8270    3.0940 C.3   221  GLY221      0.1956
     89  C        -30.8280  -18.7130    1.9000 C.2   221  GLY221      0.2612
     90  O        -31.0840  -18.2960    0.7920 O.2   221  GLY221     -0.2717
     91  N        -30.3900  -19.9320    2.1250 N.am  222  CYS222     -0.1970
     92  CA       -30.3450  -20.9160    1.0930 C.3   222  CYS222      0.1712
     93  C        -31.2050  -22.0710    1.6450 C.2   222  CYS222      0.2296
     94  O        -30.8720  -22.6360    2.6670 O.2   222  CYS222     -0.2864
     95  CB       -28.8870  -21.3640    0.8780 C.3   222  CYS222      0.0983
     96  SG       -27.8320  -20.1620    0.1080 S.3   222  CYS222     -0.0798
     97  N        -38.9210  -19.5430   -0.5100 N.3   228  PRO228     -0.2102
     98  CA       -38.4300  -20.1180   -1.7550 C.3   228  PRO228      0.1504
     99  C        -37.2700  -19.3620   -2.3820 C.2   228  PRO228      0.2576
    100  O        -36.9490  -18.2530   -1.9680 O.2   228  PRO228     -0.2718
    101  CB       -39.6460  -20.0120   -2.6840 C.3   228  PRO228      0.0282
    102  CG       -40.8080  -20.0090   -1.7710 C.3   228  PRO228      0.0208
    103  CD       -40.3430  -19.1740   -0.6290 C.3   228  PRO228      0.0893
    104  N        -36.6550  -19.9760   -3.3860 N.am  229  GLY229     -0.1943
    105  CA       -35.8180  -19.2440   -4.3340 C.3   229  GLY229      0.2014
    106  C        -36.6890  -18.3540   -5.2190 C.2   229  GLY229      0.2639
    107  O        -37.7880  -18.7640   -5.6260 O.2   229  GLY229     -0.2714
    108  N        -36.1950  -17.1430   -5.4960 N.am  230  VAL230     -0.1963
    109  CA       -36.8660  -16.1700   -6.3660 C.3   230  VAL230      0.1727
    110  C        -35.9840  -15.9270   -7.5780 C.2   230  VAL230      0.2616
    111  O        -34.7600  -15.8080   -7.4520 O.2   230  VAL230     -0.2715
    112  CB       -37.1210  -14.8200   -5.6530 C.3   230  VAL230      0.0290
    113  CG1      -38.0900  -13.9570   -6.4650 C.3   230  VAL230      0.0023
    114  CG2      -37.6490  -15.0530   -4.2400 C.3   230  VAL230      0.0023
    115  N        -36.6120  -15.8550   -8.7470 N.am  231  TYR231     -0.1974
    116  CA       -35.9040  -15.8280  -10.0230 C.3   231  TYR231      0.1639
    117  C        -36.5280  -14.7840  -10.9440 C.2   231  TYR231      0.2290
    118  O        -37.7520  -14.6240  -11.0040 O.2   231  TYR231     -0.2864
    119  CB       -35.9530  -17.2070  -10.7170 C.3   231  TYR231      0.0560
    120  CG       -35.4650  -18.3740   -9.8810 C.ar  231  TYR231     -0.0198
    121  CD1      -36.2500  -18.8910   -8.8430 C.ar  231  TYR231     -0.0009
    122  CD2      -34.2320  -18.9820  -10.1320 C.ar  231  TYR231     -0.0009
    123  CE1      -35.8090  -19.9490   -8.0620 C.ar  231  TYR231      0.0417
    124  CE2      -33.7850  -20.0480   -9.3590 C.ar  231  TYR231      0.0417
    125  CZ       -34.5800  -20.5260   -8.3240 C.ar  231  TYR231      0.1957
    126  OH       -34.1780  -21.5840   -7.5370 O.3   231  TYR231     -0.2866
@<TRIPOS>BOND
     1    56    57    1
     2   118   117    2
     3   117   116    1
     4    53    52    2
     5   119   116    1
     6   119   120    1
     7     1     2    1
     8    52    51    1
     9    62    60    1
    10    57    60    1
    11    57    58    1
    12    59    58    2
    13   122   120   ar
    14   122   124   ar
    15   116   115    1
    16   120   121   ar
    17    60    61    1
    18    58    63   am
    19   124   125   ar
    20     2     3    1
    21     2     5    1
    22     3     4    2
    23    51    50    1
    24    51    54    1
    25   121   123   ar
    26   115   110   am
    27    67    68    1
    28    67    64    1
    29    63    64    1
    30    54    55    1
    31    64    65    1
    32   125   123   ar
    33   125   126    1
    34     8     6   ar
    35     8    10   ar
    36     5     6    1
    37     6     7   ar
    38    14    13    2
    39    10     9   ar
    40    13    12    1
    41   110   111    2
    42   110   109    1
    43     7     9   ar
    44    15    12    1
    45    15    16    1
    46    65    66    2
    47    65    69   am
    48    12    11    1
    49   113   112    1
    50   109   112    1
    51   109   108    1
    52    33    34    1
    53    33    30    1
    54    69    70    1
    55    18    16   ar
    56    18    20   ar
    57    16    17   ar
    58   112   114    1
    59    75    77   ar
    60    75    74   ar
    61   107   106    2
    62    77    78   ar
    63   108   106   am
    64   106   105    1
    65    30    29    1
    66    30    31    1
    67    20    19   ar
    68    29    23   am
    69    17    19   ar
    70    70    73    1
    71    70    71    1
    72    38    37    2
    73    74    73    1
    74    74    76   ar
    75   105   104    1
    76    72    71    2
    77    78    80   ar
    78    78    76   ar
    79    23    24    2
    80    23    22    1
    81    43    44    2
    82    43    42    1
    83    27    26   ar
    84    35    31   am
    85    35    36    1
    86    31    32    2
    87    71    83   am
    88    80    82   ar
    89    76    79   ar
    90    22    21    1
    91    22    25    1
    92   104    99   am
    93    37    36    1
    94    37    41   am
    95    42    41    1
    96    42    45    1
    97    26    25    1
    98    26    28   ar
    99    36    39    1
   100   101   102    1
   101   101    98    1
   102    83    84    1
   103    82    81   ar
   104    99   100    2
   105    99    98    1
   106    79    81   ar
   107    46    45    1
   108    46    47    1
   109    49    47   am
   110   102   103    1
   111    98    97    1
   112    39    40    1
   113    84    85    1
   114    47    48    2
   115   103    97    1
   116    85    86    2
   117    96    40    1
   118    96    95    1
   119    90    89    2
   120    95    92    1
   121    92    93    1
   122    92    91    1
   123    93    94    2
   124    89    91   am
   125    89    88    1
   126    87    88    1
