@<TRIPOS>MOLECULE
tmp/5xg5A02.pdb
 88 85 0 0 0
SMALL
GASTEIGER

@<TRIPOS>ATOM
      1  N         16.7160    0.6740   20.7100 N.3    77  ASP77      -0.1239
      2  CA        17.6970    0.2730   19.7020 C.3    77  ASP77       0.1674
      3  C         17.5810   -1.1650   19.2330 C.2    77  ASP77       0.2266
      4  O         18.4730   -1.6730   18.5650 O.2    77  ASP77      -0.2867
      5  CB        19.1130    0.6080   20.0530 C.3    77  ASP77       0.1410
      6  CG        19.4200    2.0920   19.9330 C.2    77  ASP77       0.3668
      7  OD1       18.6370    2.9010   19.4170 O.co2  77  ASP77      -0.2456
      8  OD2       20.5540    2.4520   20.3490 O.co2  77  ASP77      -0.2456
      9  N         13.1230    4.5890   14.2360 N.3   114  HIS114     -0.1227
     10  CA        14.2120    5.5800   14.1110 C.3   114  HIS114      0.1737
     11  C         15.3520    5.0160   13.2700 C.2   114  HIS114      0.2438
     12  O         15.5830    3.8060   13.2480 O.2   114  HIS114     -0.2733
     13  CB        14.9040    5.7840   15.4770 C.3   114  HIS114      0.0758
     14  CG        14.1120    6.5640   16.4750 C.ar  114  HIS114      0.0818
     15  ND1       14.5910    7.7500   16.9970 N.ar  114  HIS114     -0.2268
     16  CD2       12.9150    6.3770   17.0500 C.ar  114  HIS114      0.1154
     17  CE1       13.7410    8.2150   17.8950 C.ar  114  HIS114      0.1986
     18  NE2       12.7320    7.3840   17.9610 N.ar  114  HIS114     -0.2212
     19  N         16.1320    5.8650   12.5570 N.am  115  PRO115     -0.2718
     20  CA        17.4870    5.4300   12.1830 C.3   115  PRO115      0.1535
     21  C         18.3090    5.1910   13.4480 C.2   115  PRO115      0.2598
     22  O         18.2480    6.0130   14.3950 O.2   115  PRO115     -0.2715
     23  CB        18.0610    6.5840   11.4060 C.3   115  PRO115      0.0310
     24  CG        17.3190    7.7240   11.8770 C.3   115  PRO115      0.0237
     25  CD        15.9830    7.3100   12.4430 C.3   115  PRO115      0.0939
     26  N         19.1060    4.1440   13.4610 N.am  116  LYS116     -0.1964
     27  CA        19.9770    3.9050   14.6380 C.3   116  LYS116      0.1728
     28  C         20.9330    5.0860   14.7980 C.2   116  LYS116      0.2617
     29  O         21.5690    5.4640   13.8280 O.2   116  LYS116     -0.2715
     30  CB        20.7710    2.6090   14.4880 C.3   116  LYS116      0.0311
     31  CG        21.6370    2.3340   15.7260 C.3   116  LYS116      0.0038
     32  CD        22.1290    0.9230   15.7150 C.3   116  LYS116      0.0206
     33  CE        22.7920    0.7090   17.0910 C.3   116  LYS116      0.1093
     34  NZ        23.4210   -0.6170   17.0880 N.3   116  LYS116     -0.1314
     35  N         20.9960    5.6720   15.9780 N.am  117  GLY117     -0.1940
     36  CA        21.7640    6.8930   16.1290 C.3   117  GLY117      0.2014
     37  C         21.0180    8.1920   15.9370 C.2   117  GLY117      0.2639
     38  O         21.4700    9.2540   16.3910 O.2   117  GLY117     -0.2714
     39  N         19.8320    8.1730   15.3150 N.am  118  GLY118     -0.1954
     40  CA        18.9550    9.3350   15.2590 C.3   118  GLY118      0.1869
     41  C         19.4490   10.5080   14.3760 C.2   118  GLY118      0.2309
     42  O         18.9420   11.6260   14.5480 O.2   118  GLY118     -0.2863
     43  N         15.6620    1.0010   13.7630 N.3   129  VAL129     -0.1245
     44  CA        15.5050    0.4610   15.0680 C.3   129  VAL129      0.1561
     45  C         14.1920    0.9880   15.6750 C.2   129  VAL129      0.2260
     46  O         13.5890    1.9320   15.1440 O.2   129  VAL129     -0.2867
     47  CB        16.6720    0.7710   15.9700 C.3   129  VAL129      0.0252
     48  CG1       18.0010    0.1910   15.4600 C.3   129  VAL129      0.0019
     49  CG2       16.7890    2.2660   16.2590 C.3   129  VAL129      0.0019
     50  N         12.8030    2.9650   19.0740 N.3   131  HIS131     -0.1241
     51  CA        13.2810    3.7740   20.1860 C.3   131  HIS131      0.1621
     52  C         12.1230    4.5750   20.7250 C.2   131  HIS131      0.2264
     53  O         11.2900    5.0660   19.9570 O.2   131  HIS131     -0.2867
     54  CB        14.4340    4.6650   19.6930 C.3   131  HIS131      0.0745
     55  CG        15.2910    5.2130   20.8070 C.ar  131  HIS131      0.0817
     56  ND1       14.9020    6.2710   21.5770 N.ar  131  HIS131     -0.2268
     57  CD2       16.4990    4.8340   21.2550 C.ar  131  HIS131      0.1154
     58  CE1       15.8350    6.5350   22.4720 C.ar  131  HIS131      0.1986
     59  NE2       16.7960    5.6490   22.3500 N.ar  131  HIS131     -0.2212
     60  N         12.2070    7.7280   21.9390 N.3   133  ASP133     -0.1239
     61  CA        12.3160    9.1580   21.7990 C.3   133  ASP133      0.1674
     62  C         11.4690    9.6700   20.6960 C.2   133  ASP133      0.2266
     63  O         11.2290    8.9500   19.7270 O.2   133  ASP133     -0.2867
     64  CB        13.7480    9.5530   21.5390 C.3   133  ASP133      0.1410
     65  CG        14.6290    9.6210   22.7800 C.2   133  ASP133      0.3668
     66  OD1       14.1740    9.3910   23.9010 O.co2 133  ASP133     -0.2456
     67  OD2       15.7550   10.0080   22.5850 O.co2 133  ASP133     -0.2456
     68  N         11.3910   13.1690   18.0710 N.3   135  HIS135     -0.1241
     69  CA        12.1300   14.3020   17.5380 C.3   135  HIS135      0.1621
     70  C         11.9600   14.3030   16.0250 C.2   135  HIS135      0.2264
     71  O         11.3340   13.4130   15.4380 O.2   135  HIS135     -0.2867
     72  CB        13.5600   14.3710   17.9300 C.3   135  HIS135      0.0745
     73  CG        14.3660   13.1180   17.6820 C.ar  135  HIS135      0.0817
     74  ND1       14.5420   12.5710   16.4250 N.ar  135  HIS135     -0.2268
     75  CD2       14.9400   12.2510   18.5280 C.ar  135  HIS135      0.1154
     76  CE1       15.2560   11.4540   16.5290 C.ar  135  HIS135      0.1986
     77  NE2       15.5290   11.2550   17.8020 N.ar  135  HIS135     -0.2212
     78  N         13.8540   13.6970   13.6280 N.3   137  ARG137     -0.1245
     79  CA        14.6280   12.6820   12.8500 C.3   137  ARG137      0.1563
     80  C         14.0140   11.2920   12.9700 C.2   137  ARG137      0.2260
     81  O         14.5690   10.3050   12.4550 O.2   137  ARG137     -0.2867
     82  CB        16.0840   12.7160   13.2900 C.3   137  ARG137      0.0307
     83  CG        16.8050   14.0060   13.0220 C.3   137  ARG137      0.0489
     84  CD        17.0080   14.8350   14.2440 C.3   137  ARG137      0.2205
     85  NE        17.7420   14.1220   15.2260 N.pl3 137  ARG137     -0.0865
     86  CZ        17.7410   14.3050   16.5520 C.cat 137  ARG137      0.5346
     87  NH1       18.4020   13.4780   17.2600 N.pl3 137  ARG137      0.1354
     88  NH2       17.0680   15.2550   17.2040 N.pl3 137  ARG137      0.1354
@<TRIPOS>BOND
     1    23    24    1
     2    23    20    1
     3    24    25    1
     4    20    19    1
     5    20    21    1
     6    25    19    1
     7    81    80    2
     8    19    11   am
     9    79    80    1
    10    79    82    1
    11    79    78    1
    12    83    82    1
    13    83    84    1
    14    12    11    2
    15    11    10    1
    16    21    26   am
    17    21    22    2
    18    26    27    1
    19    43    44    1
    20    29    28    2
    21    10     9    1
    22    10    13    1
    23    84    85    1
    24    41    42    2
    25    41    40    1
    26    30    27    1
    27    30    31    1
    28    27    28    1
    29    28    35   am
    30    44    45    1
    31    44    47    1
    32    46    45    2
    33    85    86    2
    34    40    39    1
    35    39    37   am
    36    71    70    2
    37    48    47    1
    38    13    14    1
    39    32    31    1
    40    32    33    1
    41    37    36    1
    42    37    38    2
    43    47    49    1
    44    35    36    1
    45    70    69    1
    46    74    76   ar
    47    74    73   ar
    48    14    15   ar
    49    14    16   ar
    50    76    77   ar
    51    86    88    1
    52    86    87    1
    53    15    17   ar
    54    16    18   ar
    55    34    33    1
    56    69    72    1
    57    69    68    1
    58    73    72    1
    59    73    75   ar
    60    77    75   ar
    61    17    18   ar
    62     4     3    2
    63    50    51    1
    64     3     2    1
    65     7     6   ar
    66    54    51    1
    67    54    55    1
    68     2     5    1
    69     2     1    1
    70    63    62    2
    71     6     5    1
    72     6     8   ar
    73    53    52    2
    74    51    52    1
    75    62    61    1
    76    55    57   ar
    77    55    56   ar
    78    57    59   ar
    79    64    61    1
    80    64    65    1
    81    56    58   ar
    82    61    60    1
    83    59    58   ar
    84    67    65   ar
    85    65    66   ar
