@<TRIPOS>MOLECULE
tmp/5xg5A00.pdb
 88 85 0 0 0
SMALL
GASTEIGER

@<TRIPOS>ATOM
      1  N         14.7600    0.2090    3.0770 N.3    18  HIS18      -0.1227
      2  CA        15.1410   -0.9190    2.2730 C.3    18  HIS18       0.1737
      3  C         15.4040   -2.1710    3.1180 C.2    18  HIS18       0.2438
      4  O         15.8840   -2.0380    4.2320 O.2    18  HIS18      -0.2733
      5  CB        16.4680   -0.7240    1.5640 C.3    18  HIS18       0.0758
      6  CG        16.4890    0.3270    0.5070 C.ar   18  HIS18       0.0818
      7  ND1       16.8730    0.0110   -0.7910 N.ar   18  HIS18      -0.2268
      8  CD2       16.1840    1.6410    0.5070 C.ar   18  HIS18       0.1154
      9  CE1       16.7970    1.1040   -1.5290 C.ar   18  HIS18       0.1986
     10  NE2       16.3900    2.0880   -0.7820 N.ar   18  HIS18      -0.2212
     11  N         15.2480   -3.3650    2.6180 N.am   19  PRO19      -0.2718
     12  CA        15.9240   -4.5500    3.1930 C.3    19  PRO19       0.1535
     13  C         17.4320   -4.3450    2.9820 C.2    19  PRO19       0.2598
     14  O         17.8380   -3.8940    1.9330 O.2    19  PRO19      -0.2715
     15  CB        15.4000   -5.7170    2.3460 C.3    19  PRO19       0.0310
     16  CG        15.0610   -5.1210    1.0660 C.3    19  PRO19       0.0237
     17  CD        14.7050   -3.6450    1.2620 C.3    19  PRO19       0.0939
     18  N         18.2650   -4.6640    3.9660 N.am   20  LYS20      -0.1964
     19  CA        19.6850   -4.6810    3.7460 C.3    20  LYS20       0.1728
     20  C         20.0870   -5.5990    2.6530 C.2    20  LYS20       0.2617
     21  O         19.6850   -6.7630    2.6860 O.2    20  LYS20      -0.2715
     22  CB        20.3790   -5.1320    5.0800 C.3    20  LYS20       0.0311
     23  CG        21.9230   -5.1110    4.9950 C.3    20  LYS20       0.0038
     24  CD        22.6000   -5.2380    6.3580 C.3    20  LYS20       0.0206
     25  CE        24.0990   -4.8580    6.3280 C.3    20  LYS20       0.1093
     26  NZ        24.5540   -4.0620    5.1470 N.3    20  LYS20      -0.1314
     27  N         20.7680   -5.0340    1.6570 N.am   21  GLY21      -0.1940
     28  CA        21.1340   -5.7760    0.4540 C.3    21  GLY21       0.2014
     29  C         20.1810   -5.5840   -0.6630 C.2    21  GLY21       0.2636
     30  O         20.4580   -6.0050   -1.7970 O.2    21  GLY21      -0.2714
     31  N         18.9700   -5.0410   -0.3860 N.am   22  GLY22      -0.2011
     32  CA        18.0930   -4.6890   -1.4630 C.3    22  GLY22       0.1506
     33  C         17.4960   -5.8220   -2.2380 C.3    22  GLY22       0.2054
     34  O         17.0440   -5.5680   -3.4200 O.3    22  GLY22      -0.2184
     35  N         17.0340   -1.1210    6.7010 N.3    33  VAL33      -0.1245
     36  CA        18.0350   -0.0680    6.6820 C.3    33  VAL33       0.1561
     37  C         17.5040    1.1230    5.9150 C.2    33  VAL33       0.2260
     38  O         16.5120    1.0610    5.2280 O.2    33  VAL33      -0.2867
     39  CB        19.3650   -0.5270    6.0780 C.3    33  VAL33       0.0252
     40  CG1       19.9810   -1.6880    6.8200 C.3    33  VAL33       0.0019
     41  CG2       19.2800   -0.7390    4.5750 C.3    33  VAL33       0.0019
     42  N         18.5250    3.8020    2.7880 N.3    35  HIS35      -0.1241
     43  CA        19.3970    3.9220    1.6470 C.3    35  HIS35       0.1621
     44  C         18.7450    4.9050    0.6140 C.2    35  HIS35       0.2264
     45  O         17.5490    4.9630    0.4970 O.2    35  HIS35      -0.2867
     46  CB        19.5820    2.5820    0.9830 C.3    35  HIS35       0.0745
     47  CG        20.7710    2.5030    0.0980 C.ar   35  HIS35       0.0817
     48  ND1       20.7770    3.0160   -1.1540 N.ar   35  HIS35      -0.2268
     49  CD2       21.9660    1.8710    0.2490 C.ar   35  HIS35       0.1154
     50  CE1       21.9500    2.8000   -1.7080 C.ar   35  HIS35       0.1986
     51  NE2       22.7010    2.1140   -0.8530 N.ar   35  HIS35      -0.2212
     52  N         18.8150    4.8640   -2.6380 N.3    37  ASP37      -0.1239
     53  CA        18.3900    4.3220   -3.9370 C.3    37  ASP37       0.1674
     54  C         16.8490    4.0390   -3.9610 C.2    37  ASP37       0.2266
     55  O         16.1800    3.8020   -2.9720 O.2    37  ASP37      -0.2867
     56  CB        19.0480    2.9880   -4.2940 C.3    37  ASP37       0.1410
     57  CG        20.4540    3.0490   -4.6560 C.2    37  ASP37       0.3668
     58  OD1       21.0760    4.1120   -4.8090 O.co2  37  ASP37      -0.2456
     59  OD2       21.0620    1.9830   -4.9240 O.co2  37  ASP37      -0.2456
     60  N         14.0760    1.7200   -6.2930 N.3    39  HIS39      -0.1241
     61  CA        13.8610    0.5570   -7.1100 C.3    39  HIS39       0.1621
     62  C         12.6830   -0.2860   -6.5470 C.2    39  HIS39       0.2264
     63  O         12.1020    0.0210   -5.5120 O.2    39  HIS39      -0.2867
     64  CB        15.1050   -0.3110   -7.3380 C.3    39  HIS39       0.0745
     65  CG        15.7730   -0.7090   -6.0660 C.ar   39  HIS39       0.0817
     66  ND1       15.1800   -1.5120   -5.1350 N.ar   39  HIS39      -0.2268
     67  CD2       17.0120   -0.4030   -5.6040 C.ar   39  HIS39       0.1154
     68  CE1       16.0020   -1.6490   -4.0910 C.ar   39  HIS39       0.1986
     69  NE2       17.1330   -1.0100   -4.3870 N.ar   39  HIS39      -0.2212
     70  N         12.4640   -3.0400   -5.1750 N.3    41  ARG41      -0.1245
     71  CA        12.7690   -3.7960   -3.9270 C.3    41  ARG41       0.1563
     72  C         12.7740   -2.9420   -2.7000 C.2    41  ARG41       0.2260
     73  O         13.0470   -3.4370   -1.6010 O.2    41  ARG41      -0.2867
     74  CB        14.0110   -4.6290   -4.1060 C.3    41  ARG41       0.0307
     75  CG        13.8000   -5.7960   -5.1010 C.3    41  ARG41       0.0489
     76  CD        15.0500   -6.1190   -5.8740 C.3    41  ARG41       0.2205
     77  NE        15.4050   -5.1160   -6.8900 N.pl3  41  ARG41      -0.0865
     78  CZ        16.4610   -4.3030   -6.9250 C.cat  41  ARG41       0.5346
     79  NH1       17.3290   -4.1840   -5.9290 N.pl3  41  ARG41       0.1354
     80  NH2       16.6110   -3.4780   -7.9460 N.pl3  41  ARG41       0.1354
     81  N         22.7760    2.3180    4.4530 N.3   125  ASP125     -0.1239
     82  CA        22.8390    1.0480    5.1690 C.3   125  ASP125      0.1674
     83  C         22.8520    1.1970    6.6880 C.2   125  ASP125      0.2266
     84  O         23.0420    0.1790    7.4140 O.2   125  ASP125     -0.2867
     85  CB        23.9840    0.1790    4.6440 C.3   125  ASP125      0.1410
     86  CG        23.7010   -0.4420    3.2770 C.2   125  ASP125      0.3668
     87  OD1       22.5620   -0.2950    2.8290 O.co2 125  ASP125     -0.2456
     88  OD2       24.6170   -1.2040    2.8140 O.co2 125  ASP125     -0.2456
@<TRIPOS>BOND
     1    80    78    1
     2    64    61    1
     3    64    65    1
     4    61    62    1
     5    61    60    1
     6    78    77    2
     7    78    79    1
     8    77    76    1
     9    62    63    2
    10    65    67   ar
    11    65    66   ar
    12    76    75    1
    13    67    69   ar
    14    70    71    1
    15    66    68   ar
    16    75    74    1
    17    59    57   ar
    18    58    57   ar
    19    57    56    1
    20    69    68   ar
    21    56    53    1
    22    74    71    1
    23    54    53    1
    24    54    55    2
    25    53    52    1
    26    71    72    1
    27    34    33    1
    28    72    73    2
    29    33    32    1
    30    30    29    2
    31    50    48   ar
    32    50    51   ar
    33     9     7   ar
    34     9    10   ar
    35    32    31    1
    36    48    47   ar
    37    51    49   ar
    38     7     6   ar
    39    10     8   ar
    40    29    31   am
    41    29    28    1
    42    47    49   ar
    43    47    46    1
    44    28    27    1
    45    45    44    2
    46     6     8   ar
    47     6     5    1
    48    44    43    1
    49    46    43    1
    50    16    17    1
    51    16    15    1
    52    17    11    1
    53     5     2    1
    54    43    42    1
    55    27    20   am
    56    14    13    2
    57     2     1    1
    58     2     3    1
    59    15    12    1
    60    11     3   am
    61    11    12    1
    62    20    21    2
    63    20    19    1
    64    88    86   ar
    65    87    86   ar
    66    13    12    1
    67    13    18   am
    68     3     4    2
    69    86    85    1
    70    19    18    1
    71    19    22    1
    72    81    82    1
    73    41    39    1
    74    85    82    1
    75    23    22    1
    76    23    24    1
    77    26    25    1
    78    82    83    1
    79    38    37    2
    80    37    36    1
    81    39    36    1
    82    39    40    1
    83    25    24    1
    84    36    35    1
    85    83    84    2
