@<TRIPOS>MOLECULE
tmp/5xg5A01.pdb
 94 91 0 0 0
SMALL
GASTEIGER

@<TRIPOS>ATOM
      1  N         14.6840  -12.4240    9.1540 N.3    29  ASP29      -0.1239
      2  CA        15.5760  -11.6590   10.0390 C.3    29  ASP29       0.1674
      3  C         16.5980  -10.8060    9.3640 C.2    29  ASP29       0.2266
      4  O         17.5280  -10.3050    9.9600 O.2    29  ASP29      -0.2867
      5  CB        16.2060  -12.5340   11.1640 C.3    29  ASP29       0.1410
      6  CG        15.2210  -12.7970   12.2860 C.2    29  ASP29       0.3668
      7  OD1       14.1650  -12.2090   12.4390 O.co2  29  ASP29      -0.2456
      8  OD2       15.5830  -13.7070   13.1270 O.co2  29  ASP29      -0.2456
      9  N          9.1500   -6.5360   11.5270 N.3    66  HIS66      -0.1227
     10  CA         9.1510   -6.9630   12.9240 C.3    66  HIS66       0.1737
     11  C         10.2170   -6.2700   13.7020 C.2    66  HIS66       0.2438
     12  O         11.3030   -6.0380   13.1870 O.2    66  HIS66      -0.2733
     13  CB         9.4670   -8.4600   13.0350 C.3    66  HIS66       0.0758
     14  CG         8.3910   -9.3820   12.5350 C.ar   66  HIS66       0.0818
     15  ND1        7.8720  -10.3600   13.3680 N.ar   66  HIS66      -0.2268
     16  CD2        7.7770   -9.5450   11.3340 C.ar   66  HIS66       0.1154
     17  CE1        6.9750  -11.0620   12.7000 C.ar   66  HIS66       0.1986
     18  NE2        6.9130  -10.5950   11.4620 N.ar   66  HIS66      -0.2212
     19  N          9.9930   -6.1260   15.0190 N.am   67  PRO67      -0.2718
     20  CA        11.1510   -6.0500   15.8610 C.3    67  PRO67       0.1535
     21  C         11.9060   -7.3350   15.9490 C.2    67  PRO67       0.2598
     22  O         11.2710   -8.3620   16.1150 O.2    67  PRO67      -0.2715
     23  CB        10.5520   -5.6610   17.2280 C.3    67  PRO67       0.0310
     24  CG         9.2030   -6.2500   17.2260 C.3    67  PRO67       0.0237
     25  CD         8.7450   -6.3720   15.7740 C.3    67  PRO67       0.0939
     26  N         13.2400   -7.3250   15.8550 N.am   68  LYS68      -0.1964
     27  CA        14.0380   -8.5000   15.9640 C.3    68  LYS68       0.1728
     28  C         13.7480   -9.1870   17.2820 C.2    68  LYS68       0.2617
     29  O         13.8670   -8.4860   18.3310 O.2    68  LYS68      -0.2715
     30  CB        15.5160   -8.1740   15.8170 C.3    68  LYS68       0.0311
     31  CG        16.3790   -9.4440   15.7490 C.3    68  LYS68       0.0038
     32  CD        17.7540   -9.1480   15.2520 C.3    68  LYS68       0.0206
     33  CE        18.5390  -10.4220   15.1580 C.3    68  LYS68       0.1093
     34  NZ        17.6340  -11.5810   14.8760 N.3    68  LYS68      -0.1314
     35  N         13.3520  -10.4660   17.2230 N.am   69  GLY69      -0.1940
     36  CA        12.9760  -11.2000   18.4570 C.3    69  GLY69       0.2014
     37  C         11.5040  -11.2120   18.7570 C.2    69  GLY69       0.2639
     38  O         11.0420  -12.0730   19.5310 O.2    69  GLY69      -0.2714
     39  N         10.7440  -10.3210   18.1620 N.am   70  GLY70      -0.1939
     40  CA         9.2950  -10.2510   18.2900 C.3    70  GLY70       0.2014
     41  C          8.6760   -9.9250   19.6390 C.2    70  GLY70       0.2639
     42  O          7.5640  -10.3810   19.9580 O.2    70  GLY70      -0.2714
     43  N          9.4200   -9.2640   20.4980 N.am   71  SER71      -0.1949
     44  CA         8.9220   -8.9710   21.8500 C.3    71  SER71       0.1924
     45  C          7.8270   -7.9170   21.8350 C.2    71  SER71       0.2314
     46  O          7.7570   -7.0240   20.9570 O.2    71  SER71      -0.2863
     47  CB        10.0620   -8.4190   22.6840 C.3    71  SER71       0.2116
     48  OG         9.6620   -8.1380   24.0650 O.3    71  SER71      -0.2180
     49  N         13.5230   -5.8550   11.3950 N.3    81  VAL81      -0.1245
     50  CA        13.8700   -6.8690   10.3990 C.3    81  VAL81       0.1561
     51  C         12.6050   -7.2270    9.5770 C.2    81  VAL81       0.2260
     52  O         11.4880   -6.9100    9.9650 O.2    81  VAL81      -0.2867
     53  CB        14.4350   -8.1270   11.0630 C.3    81  VAL81       0.0252
     54  CG1       15.6930   -7.7970   11.8290 C.3    81  VAL81       0.0019
     55  CG2       13.4210   -8.7770   11.9740 C.3    81  VAL81       0.0019
     56  N         10.3450  -10.5120    8.3940 N.3    83  HIS83      -0.1241
     57  CA        10.0440  -11.8860    8.8130 C.3    83  HIS83       0.1621
     58  C          8.6880  -12.2230    8.2740 C.2    83  HIS83       0.2264
     59  O          7.7850  -11.4010    8.2930 O.2    83  HIS83      -0.2867
     60  CB        10.1890  -11.9680   10.3650 C.3    83  HIS83       0.0745
     61  CG        10.3380  -13.3630   10.8970 C.ar   83  HIS83       0.0817
     62  ND1        9.3280  -14.2940   10.9410 N.ar   83  HIS83      -0.2268
     63  CD2       11.4310  -13.9930   11.4080 C.ar   83  HIS83       0.1154
     64  CE1        9.7970  -15.4440   11.4020 C.ar   83  HIS83       0.1986
     65  NE2       11.0820  -15.2910   11.6500 N.ar   83  HIS83      -0.2212
     66  N          6.4770  -14.2510    9.7890 N.3    85  ASP85      -0.1239
     67  CA         5.4840  -14.5550   10.7660 C.3    85  ASP85       0.1674
     68  C          4.5370  -13.3980   10.9720 C.2    85  ASP85       0.2266
     69  O          4.8510  -12.2100   10.7350 O.2    85  ASP85      -0.2867
     70  CB         6.1250  -14.8260   12.1410 C.3    85  ASP85       0.1410
     71  CG         6.7270  -16.2380   12.3350 C.2    85  ASP85       0.3668
     72  OD1        6.7220  -17.1410   11.4820 O.co2  85  ASP85      -0.2456
     73  OD2        7.2870  -16.4330   13.4940 O.co2  85  ASP85      -0.2456
     74  N          1.7010  -11.8850   13.9220 N.3    87  HIS87      -0.1241
     75  CA         1.2700  -11.8600   15.3440 C.3    87  HIS87       0.1621
     76  C          1.1120  -10.4010   15.7820 C.2    87  HIS87       0.2264
     77  O          1.5240   -9.4490   15.0800 O.2    87  HIS87      -0.2867
     78  CB         2.1830  -12.6720   16.2170 C.3    87  HIS87       0.0745
     79  CG         3.6260  -12.3340   16.1080 C.ar   87  HIS87       0.0817
     80  ND1        4.1320  -11.0910   16.4030 N.ar   87  HIS87      -0.2268
     81  CD2        4.6660  -13.0920   15.7580 C.ar   87  HIS87       0.1154
     82  CE1        5.4380  -11.1020   16.2320 C.ar   87  HIS87       0.1986
     83  NE2        5.7920  -12.2920   15.8170 N.ar   87  HIS87      -0.2212
     84  N          2.7360   -8.4960   17.6840 N.3    89  ARG89      -0.1245
     85  CA         3.9610   -7.7180   17.9330 C.3    89  ARG89       0.1563
     86  C          4.5940   -7.2570   16.6180 C.2    89  ARG89       0.2260
     87  O          5.7270   -6.6900   16.6080 O.2    89  ARG89      -0.2867
     88  CB         4.9170   -8.5890   18.7720 C.3    89  ARG89       0.0307
     89  CG         4.3120   -8.9430   20.1330 C.3    89  ARG89       0.0489
     90  CD         3.8640  -10.3710   20.2480 C.3    89  ARG89       0.2205
     91  NE         4.9390  -11.2690   19.9420 N.pl3  89  ARG89      -0.0865
     92  CZ         4.7980  -12.5270   19.5860 C.cat  89  ARG89       0.5346
     93  NH1        5.8990  -13.1880   19.3350 N.pl3  89  ARG89       0.1354
     94  NH2        3.5790  -13.1200   19.4880 N.pl3  89  ARG89       0.1354
@<TRIPOS>BOND
     1    58    59    2
     2    58    57    1
     3    56    57    1
     4    57    60    1
     5     1     2    1
     6     3     4    2
     7     3     2    1
     8    51    52    2
     9    51    50    1
    10    66    67    1
    11     2     5    1
    12    60    61    1
    13    50    53    1
    14    50    49    1
    15    69    68    2
    16    67    68    1
    17    67    70    1
    18    61    62   ar
    19    61    63   ar
    20    62    64   ar
    21    53    54    1
    22    53    55    1
    23     5     6    1
    24    16    18   ar
    25    16    14   ar
    26    64    65   ar
    27    63    65   ar
    28    18    17   ar
    29    72    71   ar
    30     9    10    1
    31    70    71    1
    32     6     7   ar
    33     6     8   ar
    34    71    73   ar
    35    14    13    1
    36    14    15   ar
    37    17    15   ar
    38    10    13    1
    39    10    11    1
    40    12    11    2
    41    11    19   am
    42    74    75    1
    43    34    33    1
    44    19    25    1
    45    19    20    1
    46    77    76    2
    47    33    32    1
    48    32    31    1
    49    75    76    1
    50    75    78    1
    51    31    30    1
    52    81    83   ar
    53    81    79   ar
    54    25    24    1
    55    83    82   ar
    56    30    27    1
    57    26    21   am
    58    26    27    1
    59    20    21    1
    60    20    23    1
    61    21    22    2
    62    27    28    1
    63    79    78    1
    64    79    80   ar
    65    82    80   ar
    66    87    86    2
    67    86    85    1
    68    35    28   am
    69    35    36    1
    70    24    23    1
    71    28    29    2
    72    84    85    1
    73    85    88    1
    74    39    40    1
    75    39    37   am
    76    40    41    1
    77    36    37    1
    78    37    38    2
    79    88    89    1
    80    93    92    1
    81    94    92    1
    82    92    91    2
    83    41    42    2
    84    41    43   am
    85    91    90    1
    86    89    90    1
    87    43    44    1
    88    46    45    2
    89    45    44    1
    90    44    47    1
    91    47    48    1
