@<TRIPOS>MOLECULE
tmp/5xgaA00.pdb
 122 113 0 0 0
SMALL
GASTEIGER

@<TRIPOS>ATOM
      1  N         -2.2290   12.6720  -11.6460 N.3    19  VAL19      -0.1245
      2  CA        -3.0610   13.8120  -12.0180 C.3    19  VAL19       0.1561
      3  C         -2.9360   14.1220  -13.5110 C.2    19  VAL19       0.2260
      4  O         -3.9040   14.5350  -14.1550 O.2    19  VAL19      -0.2867
      5  CB        -2.7090   15.0480  -11.2140 C.3    19  VAL19       0.0252
      6  CG1       -3.3820   16.2760  -11.8230 C.3    19  VAL19       0.0019
      7  CG2       -3.1530   14.8470   -9.7720 C.3    19  VAL19       0.0019
      8  N         -5.3390   11.9290  -15.0000 N.3    22  LEU22      -0.1231
      9  CA        -6.6830   12.4210  -14.7260 C.3    22  LEU22       0.1693
     10  C         -7.0910   13.4270  -15.7610 C.2    22  LEU22       0.2592
     11  O         -8.2600   13.5250  -16.1410 O.2    22  LEU22      -0.2718
     12  CB        -6.7630   13.0880  -13.3640 C.3    22  LEU22       0.0284
     13  CG        -7.1230   12.1990  -12.2020 C.3    22  LEU22       0.0019
     14  CD1       -7.2390   13.1000  -10.9950 C.3    22  LEU22       0.0001
     15  CD2       -8.4370   11.4710  -12.5300 C.3    22  LEU22       0.0001
     16  N         -6.0970   14.1880  -16.2000 N.am   23  MET23      -0.1965
     17  CA        -6.3290   15.3910  -16.9790 C.3    23  MET23       0.1736
     18  C         -6.6390   15.1530  -18.4390 C.2    23  MET23       0.2617
     19  O         -7.0610   16.0750  -19.1320 O.2    23  MET23      -0.2715
     20  CB        -5.1100   16.3050  -16.8720 C.3    23  MET23       0.0427
     21  CG        -5.0990   17.1200  -15.6060 C.3    23  MET23       0.0599
     22  SD        -3.7010   18.2600  -15.5380 S.3    23  MET23      -0.1393
     23  CE        -2.5110   17.3660  -16.5070 C.3    23  MET23       0.0692
     24  N         -6.4380   13.9340  -18.9280 N.am   24  THR24      -0.1951
     25  CA        -6.5550   13.7350  -20.3650 C.3    24  THR24       0.1897
     26  C         -6.9600   12.3090  -20.7330 C.2    24  THR24       0.2313
     27  O         -6.8220   11.3870  -19.9360 O.2    24  THR24      -0.2863
     28  CB        -5.2110   14.0900  -21.0540 C.3    24  THR24       0.1794
     29  OG1       -5.3600   14.0650  -22.4820 O.3    24  THR24      -0.2208
     30  CG2       -4.1230   13.1020  -20.6350 C.3    24  THR24       0.0378
     31  N         -8.8990    6.4540  -15.0290 N.3    42  ARG42      -0.1245
     32  CA        -9.0510    7.8190  -14.5430 C.3    42  ARG42       0.1563
     33  C         -9.9950    7.8680  -13.3470 C.2    42  ARG42       0.2260
     34  O         -9.7120    8.5370  -12.3550 O.2    42  ARG42      -0.2867
     35  CB        -9.5440    8.7150  -15.6730 C.3    42  ARG42       0.0307
     36  CG        -8.4620    8.9700  -16.7250 C.3    42  ARG42       0.0489
     37  CD        -8.5860   10.4210  -17.2140 C.3    42  ARG42       0.2205
     38  NE        -9.3620   10.4490  -18.4220 N.pl3  42  ARG42      -0.0865
     39  CZ        -9.8570   11.5290  -19.0210 C.cat  42  ARG42       0.5346
     40  NH1       -9.7000   12.7640  -18.5320 N.pl3  42  ARG42       0.1354
     41  NH2      -10.5370   11.3450  -20.1330 N.pl3  42  ARG42       0.1354
     42  N         -8.6940    8.8150   -9.4400 N.3    46  TYR46      -0.1241
     43  CA        -9.4200    9.8030   -8.6490 C.3    46  TYR46       0.1605
     44  C         -9.8080    9.2100   -7.2940 C.2    46  TYR46       0.2264
     45  O         -9.5470    9.7960   -6.2590 O.2    46  TYR46      -0.2867
     46  CB       -10.6650   10.2940   -9.3870 C.3    46  TYR46       0.0534
     47  CG       -11.2770   11.5390   -8.7520 C.ar   46  TYR46      -0.0201
     48  CD1      -10.8540   12.8090   -9.1280 C.ar   46  TYR46      -0.0009
     49  CD2      -12.2530   11.4410   -7.7630 C.ar   46  TYR46      -0.0009
     50  CE1      -11.3860   13.9480   -8.5410 C.ar   46  TYR46       0.0417
     51  CE2      -12.8040   12.5810   -7.1750 C.ar   46  TYR46       0.0417
     52  CZ       -12.3610   13.8290   -7.5700 C.ar   46  TYR46       0.1957
     53  OH       -12.8900   14.9690   -7.0040 O.3    46  TYR46      -0.2866
     54  N         -8.8760   12.2670   -3.6180 N.3    51  ILE51      -0.1245
     55  CA        -8.9880   13.6840   -3.9100 C.3    51  ILE51       0.1561
     56  C        -10.3010   14.2440   -3.3790 C.2    51  ILE51       0.2260
     57  O        -11.3650   13.6660   -3.6140 O.2    51  ILE51      -0.2867
     58  CB        -8.9050   13.9460   -5.4230 C.3    51  ILE51       0.0252
     59  CG1       -7.4590   13.8170   -5.9080 C.3    51  ILE51       0.0019
     60  CG2       -9.5170   15.3210   -5.7860 C.3    51  ILE51       0.0019
     61  CD1       -7.3290   13.6860   -7.4180 C.3    51  ILE51       0.0001
     62  N        -12.3100   18.0570   -3.6080 N.3    53  LEU53      -0.1245
     63  CA       -12.3040   19.3570   -4.2850 C.3    53  LEU53       0.1561
     64  C        -12.9120   20.4280   -3.3940 C.2    53  LEU53       0.2260
     65  O        -14.0190   20.2550   -2.8830 O.2    53  LEU53      -0.2867
     66  CB       -13.0790   19.2960   -5.5990 C.3    53  LEU53       0.0270
     67  CG       -12.6460   18.2310   -6.5980 C.3    53  LEU53       0.0019
     68  CD1      -13.4650   18.3660   -7.8850 C.3    53  LEU53       0.0001
     69  CD2      -11.1540   18.3610   -6.8950 C.3    53  LEU53       0.0001
     70  N         -3.3080   21.4910   -3.9500 N.3   100  LEU100     -0.1231
     71  CA        -2.8850   21.6800   -5.3300 C.3   100  LEU100      0.1693
     72  C         -3.8890   22.5600   -6.0630 C.2   100  LEU100      0.2592
     73  O         -5.0970   22.3380   -5.9680 O.2   100  LEU100     -0.2718
     74  CB        -2.7560   20.3160   -6.0360 C.3   100  LEU100      0.0284
     75  CG        -2.6050   20.3070   -7.5510 C.3   100  LEU100      0.0019
     76  CD1       -1.2310   20.8260   -7.9650 C.3   100  LEU100      0.0001
     77  CD2       -2.8440   18.9260   -8.1210 C.3   100  LEU100      0.0001
     78  N         -3.3860   23.5700   -6.7720 N.am  101  LYS101     -0.1966
     79  CA        -4.2060   24.3670   -7.6660 C.3   101  LYS101      0.1728
     80  C         -3.4890   24.4690   -9.0120 C.2   101  LYS101      0.2616
     81  O         -2.2650   24.6070   -9.0520 O.2   101  LYS101     -0.2715
     82  CB        -4.4750   25.7620   -7.0710 C.3   101  LYS101      0.0311
     83  CG        -5.3520   26.6380   -7.9610 C.3   101  LYS101      0.0038
     84  CD        -5.8060   27.9150   -7.2670 C.3   101  LYS101      0.0206
     85  CE        -7.1000   27.6920   -6.4720 C.3   101  LYS101      0.1093
     86  NZ        -7.6610   28.9940   -5.9970 N.3   101  LYS101     -0.1314
     87  N         -4.2370   24.3660  -10.1090 N.am  102  THR102     -0.1951
     88  CA        -3.6280   24.4520  -11.4420 C.3   102  THR102      0.1897
     89  C         -4.3050   25.4800  -12.3080 C.2   102  THR102      0.2313
     90  O         -5.4030   25.9420  -12.0000 O.2   102  THR102     -0.2863
     91  CB        -3.6760   23.1230  -12.2280 C.3   102  THR102      0.1794
     92  OG1       -4.9640   22.9810  -12.8510 O.3   102  THR102     -0.2208
     93  CG2       -3.3550   21.9140  -11.3270 C.3   102  THR102      0.0378
     94  N         -5.7140   25.1190  -14.9690 N.3   104  LEU104     -0.1231
     95  CA        -6.9180   24.5320  -15.5650 C.3   104  LEU104      0.1693
     96  C         -8.1930   24.8310  -14.7780 C.2   104  LEU104      0.2592
     97  O         -9.2740   24.9420  -15.3550 O.2   104  LEU104     -0.2718
     98  CB        -6.7610   23.0100  -15.6950 C.3   104  LEU104      0.0284
     99  CG        -5.7130   22.4130  -16.6340 C.3   104  LEU104      0.0019
    100  CD1       -5.5140   20.9350  -16.3190 C.3   104  LEU104      0.0001
    101  CD2       -6.1010   22.5950  -18.0970 C.3   104  LEU104      0.0001
    102  N         -8.0750   24.9440  -13.4610 N.am  105  SER105     -0.1952
    103  CA        -9.2350   25.2170  -12.6140 C.3   105  SER105      0.1924
    104  C         -8.8620   26.1600  -11.4990 C.2   105  SER105      0.2314
    105  O         -8.7230   25.7440  -10.3500 O.2   105  SER105     -0.2863
    106  CB        -9.8000   23.9230  -12.0250 C.3   105  SER105      0.2116
    107  OG       -10.1420   23.0090  -13.0440 O.3   105  SER105     -0.2180
    108  N        -10.6250   26.1620   -7.9690 N.3   108  ILE108     -0.1245
    109  CA       -10.7290   24.8990   -7.2230 C.3   108  ILE108      0.1561
    110  C         -9.3960   24.5380   -6.5620 C.2   108  ILE108      0.2260
    111  O         -8.3460   24.5590   -7.2130 O.2   108  ILE108     -0.2867
    112  CB       -11.1570   23.7140   -8.1430 C.3   108  ILE108      0.0252
    113  CG1      -12.5490   23.9460   -8.7250 C.3   108  ILE108      0.0019
    114  CG2      -11.1010   22.3830   -7.3940 C.3   108  ILE108      0.0019
    115  CD1      -13.6160   24.1740   -7.6670 C.3   108  ILE108      0.0001
    116  N         -7.4130   21.3460   -4.9360 N.3   110  VAL110     -0.1245
    117  CA        -7.4070   19.8860   -4.8650 C.3   110  VAL110      0.1561
    118  C         -6.7160   19.4570   -3.5770 C.2   110  VAL110      0.2260
    119  O         -5.5530   19.8050   -3.3530 O.2   110  VAL110     -0.2867
    120  CB        -6.6910   19.2720   -6.0940 C.3   110  VAL110      0.0252
    121  CG1       -6.4640   17.7940   -5.9140 C.3   110  VAL110      0.0019
    122  CG2       -7.4930   19.5480   -7.3720 C.3   110  VAL110      0.0019
@<TRIPOS>BOND
     1    29    28    1
     2    28    30    1
     3    28    25    1
     4    26    25    1
     5    26    27    2
     6    25    24    1
     7    41    39    1
     8    19    18    2
     9    39    40    1
    10    39    38    2
    11    24    18   am
    12    18    17    1
    13    38    37    1
    14   101    99    1
    15    37    36    1
    16    17    20    1
    17    17    16    1
    18    20    21    1
    19    36    35    1
    20    99   100    1
    21    99    98    1
    22    23    22    1
    23    16    10   am
    24    11    10    2
    25    10     9    1
    26    98    95    1
    27    35    32    1
    28    21    22    1
    29    95    94    1
    30    95    96    1
    31    97    96    2
    32    31    32    1
    33     8     9    1
    34    96   102   am
    35     9    12    1
    36    32    33    1
    37     4     3    2
    38     3     2    1
    39   102   103    1
    40    12    13    1
    41    33    34    2
    42   107   106    1
    43    92    91    1
    44   103   106    1
    45   103   104    1
    46    15    13    1
    47    89    90    2
    48    89    88    1
    49    91    88    1
    50    91    93    1
    51    13    14    1
    52     2     1    1
    53     2     5    1
    54     6     5    1
    55   104   105    2
    56    88    87    1
    57     5     7    1
    58    87    80   am
    59    42    43    1
    60    46    47    1
    61    46    43    1
    62    48    47   ar
    63    48    50   ar
    64    81    80    2
    65    80    79    1
    66    47    49   ar
    67   113   112    1
    68   113   115    1
    69    43    44    1
    70    50    52   ar
    71   112   114    1
    72   112   109    1
    73    77    75    1
    74   108   109    1
    75    76    75    1
    76    83    84    1
    77    83    82    1
    78    68    67    1
    79    49    51   ar
    80    79    82    1
    81    79    78    1
    82    52    51   ar
    83    52    53    1
    84    75    74    1
    85    61    59    1
    86   122   120    1
    87    44    45    2
    88    84    85    1
    89   109   110    1
    90   111   110    2
    91    69    67    1
    92    78    72   am
    93    67    66    1
    94    85    86    1
    95   120   121    1
    96   120   117    1
    97    72    73    2
    98    72    71    1
    99    74    71    1
   100    59    58    1
   101    60    58    1
   102    66    63    1
   103    58    55    1
   104    71    70    1
   105   116   117    1
   106   117   118    1
   107    63    62    1
   108    63    64    1
   109    55    54    1
   110    55    56    1
   111    57    56    2
   112   118   119    2
   113    64    65    2
