@<TRIPOS>MOLECULE
tmp/5xgdA00.pdb
 195 183 0 0 0
SMALL
GASTEIGER

@<TRIPOS>ATOM
      1  N         48.2100    6.7870   95.2380 N.3   130  LEU130     -0.1245
      2  CA        48.8290    6.7180   93.9100 C.3   130  LEU130      0.1561
      3  C         49.6150    7.9510   93.5510 C.2   130  LEU130      0.2260
      4  O         50.8250    7.9030   93.3470 O.2   130  LEU130     -0.2867
      5  CB        47.7700    6.4540   92.8140 C.3   130  LEU130      0.0270
      6  CG        48.2600    6.4720   91.3710 C.3   130  LEU130      0.0019
      7  CD1       49.0550    5.2350   91.0450 C.3   130  LEU130      0.0001
      8  CD2       47.1120    6.6320   90.4060 C.3   130  LEU130      0.0001
      9  N         38.9360   16.9210   84.8050 N.3   163  ASP163     -0.1225
     10  CA        38.6790   15.5150   84.5060 C.3   163  ASP163      0.1805
     11  C         39.3640   15.1740   83.1930 C.2   163  ASP163      0.2598
     12  O         39.1680   15.8750   82.2030 O.2   163  ASP163     -0.2718
     13  CB        37.1540   15.3040   84.4100 C.3   163  ASP163      0.1424
     14  CG        36.6320   13.9930   84.9270 C.2   163  ASP163      0.3668
     15  OD1       36.8780   12.9640   84.2760 O.co2 163  ASP163     -0.2456
     16  OD2       35.8820   14.0070   85.9230 O.co2 163  ASP163     -0.2456
     17  N         40.2080   14.1410   83.2000 N.am  164  LEU164     -0.1966
     18  CA        40.9260   13.6660   82.0080 C.3   164  LEU164      0.1728
     19  C         39.9580   13.1140   80.9680 C.2   164  LEU164      0.2616
     20  O         38.9700   12.4680   81.3170 O.2   164  LEU164     -0.2715
     21  CB        41.9540   12.5910   82.3860 C.3   164  LEU164      0.0311
     22  CG        43.4290   13.0060   82.4540 C.3   164  LEU164      0.0022
     23  CD1       43.6180   14.3110   83.2060 C.3   164  LEU164      0.0001
     24  CD2       44.2530   11.9120   83.1080 C.3   164  LEU164      0.0001
     25  N         40.2130   13.4230   79.6950 N.am  165  ASP165     -0.1957
     26  CA        39.3510   12.9870   78.5970 C.3   165  ASP165      0.1840
     27  C         39.7880   11.6260   78.0990 C.2   165  ASP165      0.2622
     28  O         40.9910   11.3460   78.0680 O.2   165  ASP165     -0.2715
     29  CB        39.3030   14.0310   77.4740 C.3   165  ASP165      0.1450
     30  CG        38.9330   15.4290   77.9460 C.2   165  ASP165      0.3671
     31  OD1       38.1080   15.5430   78.8750 O.co2 165  ASP165     -0.2456
     32  OD2       39.4480   16.4070   77.3660 O.co2 165  ASP165     -0.2456
     33  N         38.8030   10.7610   77.7680 N.am  166  GLN166     -0.1963
     34  CA        39.0170    9.3830   77.3160 C.3   166  GLN166      0.1733
     35  C         40.1750    8.7290   78.0940 C.2   166  GLN166      0.2616
     36  O         41.2120    8.3870   77.5070 O.2   166  GLN166     -0.2715
     37  CB        39.2340    9.3150   75.7880 C.3   166  GLN166      0.0408
     38  CG        37.9500    9.1710   74.9700 C.3   166  GLN166      0.0908
     39  CD        37.2280   10.4760   74.7500 C.2   166  GLN166      0.2608
     40  OE1       37.8270   11.5090   74.4200 O.2   166  GLN166     -0.2717
     41  NE2       35.9140   10.4450   74.8840 N.am  166  GLN166     -0.0878
     42  N         40.0460    8.6740   79.4390 N.am  167  PHE167     -0.1960
     43  CA        41.0880    8.0780   80.2690 C.3   167  PHE167      0.1771
     44  C         40.9440    6.5820   80.2640 C.2   167  PHE167      0.2619
     45  O         41.9440    5.8800   80.4060 O.2   167  PHE167     -0.2715
     46  CB        41.0950    8.6460   81.6840 C.3   167  PHE167      0.0574
     47  CG        42.0860    7.9840   82.6120 C.ar  167  PHE167     -0.0200
     48  CD1       43.4540    8.0970   82.3930 C.ar  167  PHE167     -0.0042
     49  CD2       41.6510    7.2200   83.6870 C.ar  167  PHE167     -0.0042
     50  CE1       44.3600    7.4600   83.2330 C.ar  167  PHE167     -0.0003
     51  CE2       42.5630    6.6090   84.5430 C.ar  167  PHE167     -0.0003
     52  CZ        43.9070    6.7170   84.3000 C.ar  167  PHE167     -0.0000
     53  N         39.7120    6.0920   80.0090 N.am  168  LYS168     -0.1963
     54  CA        39.4050    4.6700   79.8920 C.3   168  LYS168      0.1728
     55  C         40.1430    4.0970   78.6780 C.2   168  LYS168      0.2616
     56  O         40.5320    2.9300   78.7150 O.2   168  LYS168     -0.2715
     57  CB        37.8860    4.4400   79.7920 C.3   168  LYS168      0.0311
     58  CG        37.4600    2.9970   80.0660 C.3   168  LYS168      0.0038
     59  CD        36.0550    2.8750   80.6640 C.3   168  LYS168      0.0206
     60  CE        35.3560    1.5890   80.2600 C.3   168  LYS168      0.1093
     61  NZ        35.9070    0.3850   80.9360 N.3   168  LYS168     -0.1314
     62  N         40.3690    4.9330   77.6260 N.am  169  LEU169     -0.1977
     63  CA        41.0860    4.5820   76.3960 C.3   169  LEU169      0.1596
     64  C         42.4520    4.0260   76.7720 C.2   169  LEU169      0.2287
     65  O         42.7160    2.8540   76.5000 O.2   169  LEU169     -0.2864
     66  CB        41.2550    5.8160   75.5030 C.3   169  LEU169      0.0297
     67  CG        41.3240    5.5610   74.0010 C.3   169  LEU169      0.0022
     68  CD1       40.4180    6.5140   73.2500 C.3   169  LEU169      0.0001
     69  CD2       42.7510    5.6640   73.4860 C.3   169  LEU169      0.0001
     70  N         43.6350    2.9840   79.6960 N.3   171  ASN171     -0.1225
     71  CA        43.5440    1.7730   80.5110 C.3   171  ASN171      0.1785
     72  C         43.1180    0.5330   79.7240 C.2   171  ASN171      0.2597
     73  O         43.7540   -0.5050   79.8500 O.2   171  ASN171     -0.2718
     74  CB        42.6280    1.9910   81.6970 C.3   171  ASN171      0.1169
     75  CG        43.2600    2.7910   82.7830 C.2   171  ASN171      0.2627
     76  OD1       43.7570    2.2650   83.7750 O.2   171  ASN171     -0.2716
     77  ND2       43.2530    4.0820   82.6120 N.am  171  ASN171     -0.0877
     78  N         42.0630    0.6230   78.9150 N.am  172  ASP172     -0.1974
     79  CA        41.6170   -0.5250   78.1390 C.3   172  ASP172      0.1709
     80  C         42.5920   -0.8660   77.0060 C.2   172  ASP172      0.2293
     81  O         42.6200   -2.0190   76.5720 O.2   172  ASP172     -0.2864
     82  CB        40.1980   -0.2920   77.5850 C.3   172  ASP172      0.1436
     83  CG        39.0930   -0.0100   78.5980 C.2   172  ASP172      0.3671
     84  OD1       39.3410   -0.1820   79.8350 O.co2 172  ASP172     -0.2456
     85  OD2       37.9710    0.3480   78.1600 O.co2 172  ASP172     -0.2456
     86  N         46.1420   -0.9140   83.2680 N.3   176  HIS176     -0.1241
     87  CA        46.0770   -0.1100   84.4660 C.3   176  HIS176      0.1621
     88  C         47.3990    0.6000   84.7860 C.2   176  HIS176      0.2264
     89  O         47.3720    1.7570   85.2160 O.2   176  HIS176     -0.2867
     90  CB        45.6660   -1.0220   85.6260 C.3   176  HIS176      0.0745
     91  CG        45.1450   -0.2980   86.8200 C.ar  176  HIS176      0.0817
     92  ND1       43.8000   -0.0710   86.9870 N.ar  176  HIS176     -0.2268
     93  CD2       45.8090    0.2020   87.8790 C.ar  176  HIS176      0.1154
     94  CE1       43.6840    0.5670   88.1310 C.ar  176  HIS176      0.1986
     95  NE2       44.8640    0.7410   88.7120 N.ar  176  HIS176     -0.2212
     96  N         47.8070    3.8300   82.7800 N.3   179  GLY179     -0.1210
     97  CA        46.8760    4.8340   83.2740 C.3   179  GLY179      0.1956
     98  C         47.3480    5.4850   84.5560 C.2   179  GLY179      0.2611
     99  O         47.1300    6.6760   84.7540 O.2   179  GLY179     -0.2717
    100  N         48.0010    4.7050   85.4390 N.am  180  ASP180     -0.1973
    101  CA        48.5710    5.1830   86.7060 C.3   180  ASP180      0.1709
    102  C         49.7350    6.1720   86.4260 C.2   180  ASP180      0.2293
    103  O         49.8910    7.1730   87.1350 O.2   180  ASP180     -0.2864
    104  CB        49.1130    3.9930   87.5170 C.3   180  ASP180      0.1436
    105  CG        48.1120    3.1590   88.2950 C.2   180  ASP180      0.3671
    106  OD1       46.9480    3.6110   88.4560 O.co2 180  ASP180     -0.2456
    107  OD2       48.5240    2.1050   88.8460 O.co2 180  ASP180     -0.2456
    108  N         48.2230    9.4190   85.0950 N.3   183  LEU183     -0.1245
    109  CA        47.7220   10.1100   86.2870 C.3   183  LEU183      0.1561
    110  C         48.8720   10.7850   87.0610 C.2   183  LEU183      0.2260
    111  O         48.8000   11.9880   87.3010 O.2   183  LEU183     -0.2867
    112  CB        46.9060    9.1680   87.1910 C.3   183  LEU183      0.0270
    113  CG        45.4550    8.8870   86.7530 C.3   183  LEU183      0.0019
    114  CD1       44.8310    7.7830   87.5890 C.3   183  LEU183      0.0001
    115  CD2       44.5670   10.1320   86.8490 C.3   183  LEU183      0.0001
    116  N         43.5440   14.5670   94.1340 N.3   202  ARG202     -0.1245
    117  CA        42.8940   13.6330   93.2260 C.3   202  ARG202      0.1563
    118  C         41.5950   13.3130   93.9720 C.2   202  ARG202      0.2260
    119  O         41.6350   12.8660   95.1270 O.2   202  ARG202     -0.2867
    120  CB        43.6970   12.3700   92.9060 C.3   202  ARG202      0.0307
    121  CG        42.8880   11.4990   91.9300 C.3   202  ARG202      0.0489
    122  CD        43.6260   10.4230   91.1670 C.3   202  ARG202      0.2205
    123  NE        43.9360    9.2760   92.0180 N.pl3 202  ARG202     -0.0865
    124  CZ        43.6050    8.0190   91.7470 C.cat 202  ARG202      0.5346
    125  NH1       42.9040    7.7290   90.6620 N.pl3 202  ARG202      0.1354
    126  NH2       43.9510    7.0430   92.5770 N.pl3 202  ARG202      0.1354
    127  N         39.0740    8.6560   90.5350 N.3   205  GLY205     -0.1210
    128  CA        39.1780    8.3370   89.1160 C.3   205  GLY205      0.1956
    129  C         40.2670    9.1300   88.4330 C.2   205  GLY205      0.2611
    130  O         41.3890    9.2120   88.9340 O.2   205  GLY205     -0.2717
    131  N         39.9010    9.7870   87.3370 N.am  206  ASP206     -0.1973
    132  CA        40.7510   10.6650   86.5450 C.3   206  ASP206      0.1709
    133  C         40.3550   12.1090   86.8290 C.2   206  ASP206      0.2293
    134  O         40.5570   12.9830   85.9830 O.2   206  ASP206     -0.2864
    135  CB        40.5700   10.3440   85.0460 C.3   206  ASP206      0.1436
    136  CG        39.1630   10.4930   84.4830 C.2   206  ASP206      0.3671
    137  OD1       38.1970   10.5310   85.2780 O.co2 206  ASP206     -0.2456
    138  OD2       39.0240   10.5300   83.2580 O.co2 206  ASP206     -0.2456
    139  N         32.4550   18.8550   79.1490 N.3   276  LYS276     -0.1245
    140  CA        32.4940   17.5450   78.4910 C.3   276  LYS276      0.1561
    141  C         31.3990   17.5010   77.4400 C.2   276  LYS276      0.2260
    142  O         31.7160   17.3320   76.2560 O.2   276  LYS276     -0.2867
    143  CB        32.3400   16.3840   79.4840 C.3   276  LYS276      0.0271
    144  CG        33.4000   16.3540   80.5720 C.3   276  LYS276      0.0035
    145  CD        33.9220   14.9660   80.8550 C.3   276  LYS276      0.0206
    146  CE        35.2470   14.7670   80.1760 C.3   276  LYS276      0.1093
    147  NZ        36.3440   14.4850   81.1350 N.3   276  LYS276     -0.1314
    148  N         34.6050   18.4910   75.1930 N.3   280  ARG280     -0.1245
    149  CA        35.9040   18.2000   75.8530 C.3   280  ARG280      0.1563
    150  C         37.0320   19.1810   75.4560 C.2   280  ARG280      0.2260
    151  O         36.8660   19.9590   74.5140 O.2   280  ARG280     -0.2867
    152  CB        36.3460   16.7400   75.6700 C.3   280  ARG280      0.0307
    153  CG        35.5840   15.7670   76.5380 C.3   280  ARG280      0.0489
    154  CD        35.4760   14.4290   75.8530 C.3   280  ARG280      0.2205
    155  NE        34.7060   13.4850   76.6540 N.pl3 280  ARG280     -0.0865
    156  CZ        33.3900   13.3320   76.5760 C.cat 280  ARG280      0.5346
    157  NH1       32.6770   14.0670   75.7300 N.pl3 280  ARG280      0.1354
    158  NH2       32.7740   12.4490   77.3500 N.pl3 280  ARG280      0.1354
    159  N         29.8070    6.0820   75.7350 N.3   352  LEU352     -0.1245
    160  CA        30.0480    7.3900   76.3460 C.3   352  LEU352      0.1561
    161  C         29.1440    8.4820   75.7450 C.2   352  LEU352      0.2260
    162  O         29.0690    9.5930   76.2830 O.2   352  LEU352     -0.2867
    163  CB        31.5290    7.7720   76.1860 C.3   352  LEU352      0.0270
    164  CG        32.1970    8.4240   77.3800 C.3   352  LEU352      0.0019
    165  CD1       32.6310    7.3760   78.4200 C.3   352  LEU352      0.0001
    166  CD2       33.3970    9.2040   76.9290 C.3   352  LEU352      0.0001
    167  N         26.7480    8.4660   80.2310 N.3   356  PRO356     -0.2116
    168  CA        27.0290    9.5990   81.1360 C.3   356  PRO356      0.1372
    169  C         25.8410   10.5610   81.2890 C.2   356  PRO356      0.2244
    170  O         25.5840   11.0490   82.3950 O.2   356  PRO356     -0.2868
    171  CB        28.2040   10.3070   80.4470 C.3   356  PRO356      0.0268
    172  CG        28.8580    9.2650   79.6560 C.3   356  PRO356      0.0207
    173  CD        27.7430    8.4170   79.1380 C.3   356  PRO356      0.0892
    174  N         34.4540   -4.3280   88.3470 N.3   460  ASP460     -0.1239
    175  CA        35.5700   -3.3770   88.3260 C.3   460  ASP460      0.1674
    176  C         36.2560   -3.3120   89.6940 C.2   460  ASP460      0.2266
    177  O         36.5460   -2.2290   90.2270 O.2   460  ASP460     -0.2867
    178  CB        35.0910   -1.9890   87.8270 C.3   460  ASP460      0.1410
    179  CG        34.3780   -1.9610   86.4760 C.2   460  ASP460      0.3668
    180  OD1       34.6000   -2.8900   85.6570 O.co2 460  ASP460     -0.2456
    181  OD2       33.6240   -0.9950   86.2260 O.co2 460  ASP460     -0.2456
    182  N         38.9250   -6.0290   87.4490 N.3   482  ASP482     -0.1239
    183  CA        38.8750   -4.9500   86.4650 C.3   482  ASP482      0.1674
    184  C         39.7910   -5.3540   85.3050 C.2   482  ASP482      0.2266
    185  O         40.9190   -5.7920   85.5240 O.2   482  ASP482     -0.2867
    186  CB        39.3660   -3.6460   87.1010 C.3   482  ASP482      0.1410
    187  CG        39.1030   -2.3780   86.3210 C.2   482  ASP482      0.3668
    188  OD1       39.3140   -2.3790   85.0850 O.co2 482  ASP482     -0.2456
    189  OD2       38.7590   -1.3580   86.9540 O.co2 482  ASP482     -0.2456
    190  N         41.4870   -3.6470   83.1470 N.3   484  SER484     -0.1217
    191  CA        42.7500   -2.8950   83.0780 C.3   484  SER484      0.1889
    192  C         43.9200   -3.6410   83.7460 C.2   484  SER484      0.2288
    193  O         45.0490   -3.5110   83.2770 O.2   484  SER484     -0.2866
    194  CB        42.5970   -1.4940   83.6580 C.3   484  SER484      0.2089
    195  OG        42.1340   -1.5280   84.9990 O.3   484  SER484     -0.2183
@<TRIPOS>BOND
     1    68    67    1
     2    69    67    1
     3    67    66    1
     4    40    39    2
     5   151   150    2
     6    39    41   am
     7    39    38    1
     8    38    37    1
     9   148   149    1
    10   150   149    1
    11    66    63    1
    12   152   149    1
    13   152   153    1
    14   157   156    1
    15   159   160    1
    16   161   162    2
    17   161   160    1
    18    37    34    1
    19   154   153    1
    20   154   155    1
    21   163   160    1
    22   163   164    1
    23   142   141    2
    24    63    64    1
    25    63    62    1
    26    65    64    2
    27    81    80    2
    28   156   155    2
    29   156   158    1
    30   166   164    1
    31    80    79    1
    32    34    33    1
    33    34    35    1
    34    32    30   ar
    35   164   165    1
    36   141   140    1
    37    29    30    1
    38    29    26    1
    39    36    35    2
    40    82    79    1
    41    82    83    1
    42    62    55   am
    43    33    27   am
    44    30    31   ar
    45    28    27    2
    46    35    42   am
    47    27    26    1
    48    79    78    1
    49    85    83   ar
    50   140   139    1
    51   140   143    1
    52    26    25    1
    53    83    84   ar
    54    55    56    2
    55    55    54    1
    56    78    72   am
    57   173   172    1
    58   173   167    1
    59    42    43    1
    60   143   144    1
    61   172   171    1
    62    25    19   am
    63    70    71    1
    64    72    73    2
    65    72    71    1
    66    57    54    1
    67    57    58    1
    68    54    53    1
    69    53    44   am
    70    58    59    1
    71   146   145    1
    72   146   147    1
    73   167   168    1
    74    60    59    1
    75    60    61    1
    76    44    43    1
    77    44    45    2
    78    43    46    1
    79   171   168    1
    80    71    74    1
    81   144   145    1
    82    19    20    2
    83    19    18    1
    84   168   169    1
    85   169   170    2
    86    46    47    1
    87    74    75    1
    88    18    21    1
    89    18    17    1
    90    12    11    2
    91    21    22    1
    92    48    47   ar
    93    48    50   ar
    94    22    24    1
    95    22    23    1
    96    47    49   ar
    97    77    75   am
    98    96    97    1
    99    75    76    2
   100   191   190    1
   101   191   194    1
   102   191   192    1
   103    11    17   am
   104    11    10    1
   105    50    52   ar
   106   138   136   ar
   107    86    87    1
   108    97    98    1
   109   193   192    2
   110   194   195    1
   111    49    51   ar
   112    15    14   ar
   113    52    51   ar
   114    13    10    1
   115    13    14    1
   116    87    88    1
   117    87    90    1
   118   136   135    1
   119   136   137   ar
   120    10     9    1
   121    98    99    2
   122    98   100   am
   123    88    89    2
   124    14    16   ar
   125   135   132    1
   126   188   187   ar
   127   108   109    1
   128   184   185    2
   129   184   183    1
   130   100   101    1
   131    90    91    1
   132   180   179   ar
   133   134   133    2
   134   181   179   ar
   135   109   110    1
   136   109   112    1
   137   187   189   ar
   138   187   186    1
   139   102   101    1
   140   102   103    2
   141   183   186    1
   142   183   182    1
   143   179   178    1
   144   132   133    1
   145   132   131    1
   146   101   104    1
   147   113   115    1
   148   113   112    1
   149   113   114    1
   150    91    92   ar
   151    91    93   ar
   152    92    94   ar
   153   110   111    2
   154   131   129   am
   155   104   105    1
   156   178   175    1
   157    93    95   ar
   158    94    95   ar
   159   105   106   ar
   160   105   107   ar
   161   175   174    1
   162   175   176    1
   163   129   130    2
   164   129   128    1
   165   128   127    1
   166   176   177    2
   167     8     6    1
   168   125   124    1
   169     7     6    1
   170   122   121    1
   171   122   123    1
   172     6     5    1
   173   124   123    2
   174   124   126    1
   175   121   120    1
   176     5     2    1
   177   120   117    1
   178   117   118    1
   179   117   116    1
   180     4     3    2
   181     3     2    1
   182     2     1    1
   183   118   119    2
