@<TRIPOS>MOLECULE
tmp/5xgjA00.pdb
 181 168 0 0 0
SMALL
GASTEIGER

@<TRIPOS>ATOM
      1  N         30.6850   56.1970   36.8870 N.3   704  MET704     -0.1245
      2  CA        31.7510   55.2500   37.2280 C.3   704  MET704      0.1570
      3  C         32.8470   55.2370   36.1570 C.2   704  MET704      0.2261
      4  O         32.6910   55.8290   35.0860 O.2   704  MET704     -0.2867
      5  CB        31.1530   53.8540   37.4300 C.3   704  MET704      0.0387
      6  CG        30.1080   53.8080   38.5380 C.3   704  MET704      0.0595
      7  SD        29.4500   52.1650   38.8680 S.3   704  MET704     -0.1393
      8  CE        30.8780   51.3510   39.5810 C.3   704  MET704      0.0692
      9  N         34.1850   53.0210   34.0730 N.3   706  SER706     -0.1217
     10  CA        34.0900   52.2470   32.8240 C.3   706  SER706      0.1889
     11  C         33.7640   53.1190   31.6070 C.2   706  SER706      0.2288
     12  O         33.1190   54.1620   31.7320 O.2   706  SER706     -0.2866
     13  CB        33.0440   51.1290   32.9680 C.3   706  SER706      0.2089
     14  OG        32.8720   50.3990   31.7630 O.3   706  SER706     -0.2183
     15  N         28.5360   53.6480   33.4420 N.3   710  PRO710     -0.2116
     16  CA        27.5140   53.2710   34.4160 C.3   710  PRO710      0.1372
     17  C         27.2850   54.3840   35.4280 C.2   710  PRO710      0.2244
     18  O         28.2060   55.1480   35.7190 O.2   710  PRO710     -0.2868
     19  CB        28.1080   52.0360   35.1150 C.3   710  PRO710      0.0268
     20  CG        29.4890   51.8580   34.5760 C.3   710  PRO710      0.0207
     21  CD        29.8460   53.0800   33.7980 C.3   710  PRO710      0.0892
     22  N         26.3470   55.3250   39.2800 N.3   712  TRP712     -0.1241
     23  CA        26.2030   54.9710   40.6920 C.3   712  TRP712      0.1605
     24  C         25.1620   55.9200   41.2940 C.2   712  TRP712      0.2264
     25  O         25.4780   57.0580   41.6480 O.2   712  TRP712     -0.2867
     26  CB        27.5560   55.0990   41.4060 C.3   712  TRP712      0.0550
     27  CG        27.5750   54.6420   42.8420 C.ar  712  TRP712      0.0003
     28  CD1       27.0290   55.2820   43.9200 C.ar  712  TRP712      0.0946
     29  CD2       28.2030   53.4610   43.3550 C.ar  712  TRP712      0.0152
     30  NE1       27.2640   54.5630   45.0670 N.ar  712  TRP712     -0.2442
     31  CE2       27.9840   53.4420   44.7490 C.ar  712  TRP712      0.0810
     32  CE3       28.9240   52.4110   42.7690 C.ar  712  TRP712      0.0012
     33  CZ2       28.4610   52.4140   45.5700 C.ar  712  TRP712      0.0191
     34  CZ3       29.3990   51.3860   43.5870 C.ar  712  TRP712      0.0001
     35  CH2       29.1620   51.3970   44.9720 C.ar  712  TRP712      0.0015
     36  N         23.4360   50.5450   41.0030 N.3   732  ILE732     -0.1245
     37  CA        24.3240   50.8040   39.8700 C.3   732  ILE732      0.1561
     38  C         23.5800   50.5010   38.5690 C.2   732  ILE732      0.2260
     39  O         23.2730   49.3450   38.2790 O.2   732  ILE732     -0.2867
     40  CB        25.6080   49.9460   39.9400 C.3   732  ILE732      0.0252
     41  CG1       26.4010   50.2640   41.2170 C.3   732  ILE732      0.0019
     42  CG2       26.4760   50.1690   38.7030 C.3   732  ILE732      0.0019
     43  CD1       27.4840   49.2560   41.5470 C.3   732  ILE732      0.0001
     44  N         23.5970   50.3240   34.4720 N.3   734  LYS734     -0.1245
     45  CA        24.5970   49.9780   33.4550 C.3   734  LYS734      0.1561
     46  C         23.9430   49.8570   32.0770 C.2   734  LYS734      0.2260
     47  O         22.9560   49.1440   31.9260 O.2   734  LYS734     -0.2867
     48  CB        25.3000   48.6650   33.8370 C.3   734  LYS734      0.0271
     49  CG        26.4250   48.2120   32.9080 C.3   734  LYS734      0.0035
     50  CD        27.5700   49.2130   32.8620 C.3   734  LYS734      0.0206
     51  CE        28.6800   48.7860   31.9180 C.3   734  LYS734      0.1093
     52  NZ        29.6510   47.8400   32.5260 N.3   734  LYS734     -0.1314
     53  N         26.9350   46.7530   28.9950 N.3   737  ASP737     -0.1239
     54  CA        27.2700   45.3280   29.1040 C.3   737  ASP737      0.1674
     55  C         26.0740   44.4320   29.4120 C.2   737  ASP737      0.2266
     56  O         25.0910   44.8630   30.0160 O.2   737  ASP737     -0.2867
     57  CB        28.3430   45.1210   30.1800 C.3   737  ASP737      0.1410
     58  CG        29.6670   45.7850   29.8330 C.2   737  ASP737      0.3668
     59  OD1       29.9040   46.1200   28.6500 O.co2 737  ASP737     -0.2456
     60  OD2       30.4830   45.9700   30.7610 O.co2 737  ASP737     -0.2456
     61  N         24.2790   41.7650   31.4420 N.3   739  LEU739     -0.1245
     62  CA        24.2900   41.3150   32.8420 C.3   739  LEU739      0.1561
     63  C         23.4180   40.0720   33.0970 C.2   739  LEU739      0.2260
     64  O         23.0940   39.7640   34.2470 O.2   739  LEU739     -0.2867
     65  CB        23.8650   42.4730   33.7600 C.3   739  LEU739      0.0270
     66  CG        24.8130   43.6780   33.8270 C.3   739  LEU739      0.0019
     67  CD1       24.1210   44.8590   34.4900 C.3   739  LEU739      0.0001
     68  CD2       26.1000   43.3310   34.5620 C.3   739  LEU739      0.0001
     69  N         25.7590   37.4640   35.0200 N.3   742  ASP742     -0.1239
     70  CA        25.8160   37.8100   36.4480 C.3   742  ASP742      0.1674
     71  C         24.4980   37.5120   37.1640 C.2   742  ASP742      0.2266
     72  O         24.5040   37.0040   38.2860 O.2   742  ASP742     -0.2867
     73  CB        26.1900   39.2860   36.6520 C.3   742  ASP742      0.1410
     74  CG        27.6550   39.5600   36.3770 C.2   742  ASP742      0.3668
     75  OD1       28.0460   39.5840   35.1920 O.co2 742  ASP742     -0.2456
     76  OD2       28.4170   39.7570   37.3470 O.co2 742  ASP742     -0.2456
     77  N         24.5240   34.8030   40.0570 N.3   746  LEU746     -0.1245
     78  CA        24.0280   35.2090   41.3840 C.3   746  LEU746      0.1561
     79  C         22.7670   34.4550   41.8320 C.2   746  LEU746      0.2260
     80  O         22.5520   34.2830   43.0350 O.2   746  LEU746     -0.2867
     81  CB        23.7810   36.7230   41.4310 C.3   746  LEU746      0.0270
     82  CG        25.0650   37.5650   41.4600 C.3   746  LEU746      0.0019
     83  CD1       24.8360   38.9790   40.9410 C.3   746  LEU746      0.0001
     84  CD2       25.6520   37.5990   42.8640 C.3   746  LEU746      0.0001
     85  N         23.9630   39.2120   45.9260 N.3   768  TYR768     -0.1241
     86  CA        23.4050   40.5620   45.7650 C.3   768  TYR768      0.1605
     87  C         22.5100   40.6520   44.5260 C.2   768  TYR768      0.2264
     88  O         22.6740   39.8870   43.5730 O.2   768  TYR768     -0.2867
     89  CB        24.5130   41.6320   45.7170 C.3   768  TYR768      0.0534
     90  CG        25.4890   41.5000   44.5620 C.ar  768  TYR768     -0.0201
     91  CD1       25.2180   42.0740   43.3160 C.ar  768  TYR768     -0.0009
     92  CD2       26.6910   40.8110   44.7160 C.ar  768  TYR768     -0.0009
     93  CE1       26.1080   41.9510   42.2570 C.ar  768  TYR768      0.0417
     94  CE2       27.5820   40.6830   43.6640 C.ar  768  TYR768      0.0417
     95  CZ        27.2910   41.2540   42.4390 C.ar  768  TYR768      0.1957
     96  OH        28.1860   41.1230   41.4030 O.3   768  TYR768     -0.2866
     97  N         20.7990   41.5320   41.0930 N.3   770  CYS770     -0.1235
     98  CA        21.2400   41.8850   39.7400 C.3   770  CYS770      0.1677
     99  C         20.1630   41.4920   38.7300 C.2   770  CYS770      0.2270
    100  O         19.9290   40.3050   38.5030 O.2   770  CYS770     -0.2867
    101  CB        22.5610   41.1940   39.3930 C.3   770  CYS770      0.0956
    102  SG        23.1340   41.5020   37.7010 S.3   770  CYS770     -0.0801
    103  N         22.2570   46.7400   39.4550 N.3   780  ILE780     -0.1231
    104  CA        23.0410   45.9660   40.4250 C.3   780  ILE780      0.1692
    105  C         22.8800   46.5760   41.8230 C.2   780  ILE780      0.2592
    106  O         23.0060   47.7900   41.9940 O.2   780  ILE780     -0.2718
    107  CB        24.5430   45.9230   40.0560 C.3   780  ILE780      0.0266
    108  CG1       24.7560   45.3110   38.6640 C.3   780  ILE780      0.0019
    109  CG2       25.3320   45.1360   41.1030 C.3   780  ILE780      0.0020
    110  CD1       26.1100   45.6160   38.0580 C.3   780  ILE780      0.0001
    111  N         22.6120   45.7210   42.8120 N.am  781  GLU781     -0.1966
    112  CA        22.4830   46.1410   44.2090 C.3   781  GLU781      0.1733
    113  C         23.8540   46.4910   44.7720 C.2   781  GLU781      0.2616
    114  O         24.8360   45.8080   44.4850 O.2   781  GLU781     -0.2715
    115  CB        21.8670   45.0210   45.0550 C.3   781  GLU781      0.0429
    116  CG        21.5760   45.3920   46.5100 C.3   781  GLU781      0.1163
    117  CD        21.1260   44.2140   47.3650 C.2   781  GLU781      0.3649
    118  OE1       21.0540   43.0710   46.8610 O.co2 781  GLU781     -0.2457
    119  OE2       20.8430   44.4320   48.5600 O.co2 781  GLU781     -0.2457
    120  N         23.9020   47.5480   45.5810 N.am  782  VAL782     -0.1963
    121  CA        25.1180   47.9600   46.2730 C.3   782  VAL782      0.1727
    122  C         25.0830   47.4110   47.6970 C.2   782  VAL782      0.2616
    123  O         24.1340   47.6680   48.4440 O.2   782  VAL782     -0.2715
    124  CB        25.2500   49.4950   46.3090 C.3   782  VAL782      0.0290
    125  CG1       26.4340   49.9280   47.1670 C.3   782  VAL782      0.0023
    126  CG2       25.3810   50.0480   44.8940 C.3   782  VAL782      0.0023
    127  N         26.1200   46.6580   48.0590 N.am  783  VAL783     -0.1977
    128  CA        26.3070   46.1660   49.4190 C.3   783  VAL783      0.1596
    129  C         26.9550   47.2840   50.2380 C.2   783  VAL783      0.2287
    130  O         27.9810   47.8390   49.8340 O.2   783  VAL783     -0.2864
    131  CB        27.2030   44.9070   49.4530 C.3   783  VAL783      0.0276
    132  CG1       27.4170   44.4330   50.8890 C.3   783  VAL783      0.0022
    133  CG2       26.5950   43.7960   48.6040 C.3   783  VAL783      0.0022
    134  N         31.1270   47.5340   51.9380 N.3   786  SER786     -0.1217
    135  CA        31.8530   46.5210   51.1680 C.3   786  SER786      0.1889
    136  C         33.1230   47.1360   50.5860 C.2   786  SER786      0.2288
    137  O         33.0620   48.1700   49.9170 O.2   786  SER786     -0.2866
    138  CB        30.9740   45.9740   50.0400 C.3   786  SER786      0.2089
    139  OG        30.4960   47.0150   49.2040 O.3   786  SER786     -0.2183
    140  N         36.8600   46.2690   48.4590 N.3   788  THR788     -0.1218
    141  CA        37.6970   45.3480   47.6820 C.3   788  THR788      0.1862
    142  C         38.9970   45.0590   48.4320 C.2   788  THR788      0.2287
    143  O         39.3660   45.7940   49.3490 O.2   788  THR788     -0.2866
    144  CB        38.0430   45.8920   46.2730 C.3   788  THR788      0.1770
    145  OG1       38.6790   47.1710   46.3810 O.3   788  THR788     -0.2211
    146  CG2       36.7970   46.0200   45.4050 C.3   788  THR788      0.0375
    147  N         35.7540   41.0140   47.4170 N.3   847  MET847     -0.1245
    148  CA        35.3630   42.0630   48.3690 C.3   847  MET847      0.1570
    149  C         35.1140   41.4850   49.7610 C.2   847  MET847      0.2261
    150  O         34.7850   40.3060   49.8970 O.2   847  MET847     -0.2867
    151  CB        34.1070   42.7880   47.8780 C.3   847  MET847      0.0387
    152  CG        34.2980   43.5270   46.5630 C.3   847  MET847      0.0595
    153  SD        32.9140   44.5930   46.1130 S.3   847  MET847     -0.1393
    154  CE        33.1810   45.9970   47.1890 C.3   847  MET847      0.0692
    155  N         33.0040   38.0670   49.7860 N.3   855  PHE855     -0.1241
    156  CA        32.1780   37.7360   48.6200 C.3   855  PHE855      0.1605
    157  C         32.8090   38.2470   47.3270 C.2   855  PHE855      0.2264
    158  O         33.7820   39.0050   47.3600 O.2   855  PHE855     -0.2867
    159  CB        30.7480   38.2740   48.7850 C.3   855  PHE855      0.0534
    160  CG        30.6380   39.7770   48.7350 C.ar  855  PHE855     -0.0203
    161  CD1       31.0340   40.5570   49.8190 C.ar  855  PHE855     -0.0042
    162  CD2       30.1140   40.4130   47.6110 C.ar  855  PHE855     -0.0042
    163  CE1       30.9240   41.9410   49.7780 C.ar  855  PHE855     -0.0003
    164  CE2       30.0020   41.7960   47.5650 C.ar  855  PHE855     -0.0003
    165  CZ        30.4080   42.5610   48.6490 C.ar  855  PHE855     -0.0000
    166  N         32.3740   39.8340   43.1560 N.3   857  ILE857     -0.1231
    167  CA        31.6130   40.6660   42.2150 C.3   857  ILE857      0.1692
    168  C         32.2010   40.5290   40.8120 C.2   857  ILE857      0.2592
    169  O         33.3340   40.0680   40.6520 O.2   857  ILE857     -0.2718
    170  CB        31.6060   42.1640   42.6130 C.3   857  ILE857      0.0266
    171  CG1       33.0310   42.7210   42.7720 C.3   857  ILE857      0.0019
    172  CG2       30.8270   42.3760   43.9040 C.3   857  ILE857      0.0020
    173  CD1       33.1320   44.2120   42.5360 C.3   857  ILE857      0.0001
    174  N         31.4220   40.9390   39.8110 N.am  858  ASP858     -0.1974
    175  CA        31.8340   40.9260   38.4010 C.3   858  ASP858      0.1709
    176  C         32.2340   39.5180   37.9620 C.2   858  ASP858      0.2293
    177  O         33.4140   39.2070   37.7840 O.2   858  ASP858     -0.2864
    178  CB        32.9550   41.9490   38.1410 C.3   858  ASP858      0.1436
    179  CG        33.1420   42.2710   36.6540 C.2   858  ASP858      0.3671
    180  OD1       32.8520   41.4170   35.7850 O.co2 858  ASP858     -0.2456
    181  OD2       33.5950   43.3970   36.3540 O.co2 858  ASP858     -0.2456
@<TRIPOS>BOND
     1    59    58   ar
     2    53    54    1
     3    54    55    1
     4    54    57    1
     5    55    56    2
     6    58    57    1
     7    58    60   ar
     8    61    62    1
     9    11    12    2
    10    11    10    1
    11    14    13    1
    12    51    52    1
    13    51    50    1
    14    47    46    2
    15    46    45    1
    16    10    13    1
    17    10     9    1
    18    62    63    1
    19    62    65    1
    20    50    49    1
    21    49    48    1
    22    63    64    2
    23    15    21    1
    24    15    16    1
    25    45    48    1
    26    45    44    1
    27    65    66    1
    28    21    20    1
    29    66    67    1
    30    66    68    1
    31    16    19    1
    32    16    17    1
    33    20    19    1
    34    69    70    1
    35     4     3    2
    36    75    74   ar
    37    17    18    2
    38   180   179   ar
    39     3     2    1
    40   181   179   ar
    41    74    73    1
    42    74    76   ar
    43    70    73    1
    44    70    71    1
    45   179   178    1
    46     1     2    1
    47    71    72    2
    48     2     5    1
    49     5     6    1
    50   102   101    1
    51   177   176    2
    52   176   175    1
    53   110   108    1
    54   178   175    1
    55    39    38    2
    56   175   174    1
    57   100    99    2
    58     6     7    1
    59    38    37    1
    60   108   107    1
    61    42    40    1
    62    99    98    1
    63     7     8    1
    64    22    23    1
    65   101    98    1
    66   103   104    1
    67    98    97    1
    68   174   168   am
    69    37    40    1
    70    37    36    1
    71    40    41    1
    72   107   104    1
    73   107   109    1
    74    77    78    1
    75   104   105    1
    76   169   168    2
    77    23    24    1
    78    23    26    1
    79   168   167    1
    80    83    82    1
    81    41    43    1
    82    24    25    2
    83    78    81    1
    84    78    79    1
    85    96    95    1
    86    26    27    1
    87    81    82    1
    88    82    84    1
    89   105   106    2
    90   105   111   am
    91    79    80    2
    92   167   170    1
    93   167   166    1
    94    93    95   ar
    95    93    91   ar
    96    95    94   ar
    97   173   171    1
    98   170   171    1
    99   170   172    1
   100    32    29   ar
   101    32    34   ar
   102   111   112    1
   103    27    29   ar
   104    27    28   ar
   105    91    90   ar
   106    29    31   ar
   107    88    87    2
   108    34    35   ar
   109    94    92   ar
   110    28    30   ar
   111   112   113    1
   112   112   115    1
   113   114   113    2
   114    87    86    1
   115    90    92   ar
   116    90    89    1
   117    31    30   ar
   118    31    33   ar
   119   113   120   am
   120   126   124    1
   121    35    33   ar
   122   115   116    1
   123   146   144    1
   124   120   121    1
   125    89    86    1
   126    86    85    1
   127   153   152    1
   128   153   154    1
   129   121   124    1
   130   121   122    1
   131   144   145    1
   132   144   141    1
   133   124   125    1
   134   116   117    1
   135   152   151    1
   136   118   117   ar
   137   157   158    2
   138   157   156    1
   139   117   119   ar
   140   147   148    1
   141   164   162   ar
   142   164   165   ar
   143   162   160   ar
   144   141   142    1
   145   141   140    1
   146   122   127   am
   147   122   123    2
   148   151   148    1
   149   127   128    1
   150   148   149    1
   151   142   143    2
   152   133   131    1
   153   156   159    1
   154   156   155    1
   155   165   163   ar
   156   160   159    1
   157   160   161   ar
   158   139   138    1
   159   128   131    1
   160   128   129    1
   161   131   132    1
   162   149   150    2
   163   163   161   ar
   164   130   129    2
   165   137   136    2
   166   138   135    1
   167   136   135    1
   168   135   134    1
