@<TRIPOS>MOLECULE
tmp/5xgkA00.pdb
 160 150 0 0 0
SMALL
GASTEIGER

@<TRIPOS>ATOM
      1  N         -8.7010  -17.1210    5.2350 N.3   177  HIS177     -0.1241
      2  CA        -8.7660  -17.6150    3.8670 C.3   177  HIS177      0.1621
      3  C         -9.9380  -16.9690    3.1450 C.2   177  HIS177      0.2264
      4  O        -10.9340  -16.5840    3.7630 O.2   177  HIS177     -0.2867
      5  CB        -8.8900  -19.1410    3.8220 C.3   177  HIS177      0.0745
      6  CG       -10.0070  -19.6860    4.6550 C.ar  177  HIS177      0.0817
      7  ND1       -9.8330  -20.0830    5.9630 N.ar  177  HIS177     -0.2268
      8  CD2      -11.3090  -19.9160    4.3620 C.ar  177  HIS177      0.1154
      9  CE1      -10.9800  -20.5320    6.4410 C.ar  177  HIS177      0.1986
     10  NE2      -11.8920  -20.4390    5.4900 N.ar  177  HIS177     -0.2212
     11  N        -12.6030  -17.6970    0.0780 N.3   179  VAL179     -0.1245
     12  CA       -13.2020  -18.8030   -0.6600 C.3   179  VAL179      0.1561
     13  C        -13.9990  -18.2370   -1.8270 C.2   179  VAL179      0.2260
     14  O        -14.7630  -17.2790   -1.6600 O.2   179  VAL179     -0.2867
     15  CB       -14.0950  -19.6610    0.2520 C.3   179  VAL179      0.0252
     16  CG1      -14.6080  -20.8780   -0.4970 C.3   179  VAL179      0.0019
     17  CG2      -13.3310  -20.0710    1.4980 C.3   179  VAL179      0.0019
     18  N         -8.1150  -32.1420    3.4770 N.3   203  GLU203     -0.1245
     19  CA        -8.9980  -32.1010    4.6330 C.3   203  GLU203      0.1567
     20  C         -9.2980  -33.5210    5.0940 C.2   203  GLU203      0.2260
     21  O         -9.4290  -34.4350    4.2740 O.2   203  GLU203     -0.2867
     22  CB       -10.3010  -31.3670    4.3070 C.3   203  GLU203      0.0388
     23  CG       -10.2370  -29.8770    4.3570 C.3   203  GLU203      0.1160
     24  CD       -11.5710  -29.2730    3.9660 C.2   203  GLU203      0.3649
     25  OE1      -12.5900  -29.6230    4.6050 O.co2 203  GLU203     -0.2457
     26  OE2      -11.5920  -28.4650    3.0040 O.co2 203  GLU203     -0.2457
     27  N        -21.7100  -29.5460   -2.9440 N.3   208  LEU208     -0.1245
     28  CA       -20.5270  -28.7340   -3.1780 C.3   208  LEU208      0.1561
     29  C        -19.2990  -29.6280   -3.2740 C.2   208  LEU208      0.2260
     30  O        -19.2540  -30.7140   -2.6900 O.2   208  LEU208     -0.2867
     31  CB       -20.3400  -27.6860   -2.0710 C.3   208  LEU208      0.0270
     32  CG       -20.4490  -28.1000   -0.6020 C.3   208  LEU208      0.0019
     33  CD1      -19.1350  -28.6580   -0.0720 C.3   208  LEU208      0.0001
     34  CD2      -20.9100  -26.9180    0.2380 C.3   208  LEU208      0.0001
     35  N        -15.1650  -28.9190   -2.7720 N.3   210  SER210     -0.1217
     36  CA       -14.2260  -27.9150   -2.2970 C.3   210  SER210      0.1889
     37  C        -12.8050  -28.4580   -2.3460 C.2   210  SER210      0.2288
     38  O        -12.5630  -29.6290   -2.0350 O.2   210  SER210     -0.2866
     39  CB       -14.5740  -27.4760   -0.8680 C.3   210  SER210      0.2089
     40  OG       -13.7990  -26.3600   -0.4640 O.3   210  SER210     -0.2183
     41  N         -8.6890  -26.8230   -1.4470 N.3   212  VAL212     -0.1245
     42  CA        -8.0040  -25.7140   -0.7940 C.3   212  VAL212      0.1561
     43  C         -6.5930  -25.6230   -1.3560 C.2   212  VAL212      0.2260
     44  O         -5.7680  -26.5210   -1.1410 O.2   212  VAL212     -0.2867
     45  CB        -7.9810  -25.8790    0.7320 C.3   212  VAL212      0.0252
     46  CG1       -7.1960  -24.7450    1.3770 C.3   212  VAL212      0.0019
     47  CG2       -9.4010  -25.9350    1.2810 C.3   212  VAL212      0.0019
     48  N         -9.4750  -21.6760   -0.6950 N.3   223  PRO223     -0.2116
     49  CA       -10.4240  -22.7250   -1.0760 C.3   223  PRO223      0.1372
     50  C        -11.2970  -22.2770   -2.2350 C.2   223  PRO223      0.2244
     51  O        -11.6130  -21.0950   -2.3850 O.2   223  PRO223     -0.2868
     52  CB       -11.2560  -22.9360    0.1950 C.3   223  PRO223      0.0268
     53  CG       -10.4300  -22.3520    1.3020 C.3   223  PRO223      0.0207
     54  CD        -9.7030  -21.2040    0.6800 C.3   223  PRO223      0.0892
     55  N        -14.8750  -23.5380   -4.5010 N.3   225  ASN225     -0.1240
     56  CA       -16.0730  -24.3620   -4.4370 C.3   225  ASN225      0.1653
     57  C        -16.7030  -24.5250   -5.8150 C.2   225  ASN225      0.2266
     58  O        -16.5850  -23.6550   -6.6820 O.2   225  ASN225     -0.2867
     59  CB       -17.1000  -23.7610   -3.4760 C.3   225  ASN225      0.1155
     60  CG       -16.6460  -23.8080   -2.0370 C.2   225  ASN225      0.2627
     61  OD1      -15.8240  -24.6410   -1.6630 O.2   225  ASN225     -0.2716
     62  ND2      -17.1790  -22.9130   -1.2170 N.am  225  ASN225     -0.0877
     63  N        -17.0600  -16.3570    0.5170 N.3   246  HIS246     -0.1241
     64  CA       -17.0250  -15.7940    1.8590 C.3   246  HIS246      0.1621
     65  C        -15.5780  -15.5670    2.2740 C.2   246  HIS246      0.2264
     66  O        -14.6390  -16.0610    1.6440 O.2   246  HIS246     -0.2867
     67  CB       -17.7520  -16.6900    2.8670 C.3   246  HIS246      0.0745
     68  CG       -17.0380  -17.9680    3.1730 C.ar  246  HIS246      0.0817
     69  ND1      -17.2080  -19.1150    2.4280 N.ar  246  HIS246     -0.2268
     70  CD2      -16.1590  -18.2840    4.1530 C.ar  246  HIS246      0.1154
     71  CE1      -16.4610  -20.0810    2.9310 C.ar  246  HIS246      0.1986
     72  NE2      -15.8140  -19.6030    3.9790 N.ar  246  HIS246     -0.2212
     73  N        -20.3460  -23.0190   15.7210 N.3   306  LEU306     -0.1245
     74  CA       -20.0480  -24.3660   15.2620 C.3   306  LEU306      0.1561
     75  C        -18.6430  -24.7560   15.6970 C.2   306  LEU306      0.2260
     76  O        -17.7050  -23.9620   15.6020 O.2   306  LEU306     -0.2867
     77  CB       -20.1650  -24.4540   13.7410 C.3   306  LEU306      0.0270
     78  CG       -21.5100  -24.0770   13.1220 C.3   306  LEU306      0.0019
     79  CD1      -21.3660  -23.8640   11.6260 C.3   306  LEU306      0.0001
     80  CD2      -22.5280  -25.1590   13.3990 C.3   306  LEU306      0.0001
     81  N        -16.2210  -21.8790   14.7350 N.3   317  GLN317     -0.1245
     82  CA       -16.6040  -21.0890   13.5760 C.3   317  GLN317      0.1566
     83  C        -18.0920  -20.7760   13.6180 C.2   317  GLN317      0.2260
     84  O        -18.8730  -21.4420   14.3020 O.2   317  GLN317     -0.2867
     85  CB       -16.2630  -21.8160   12.2720 C.3   317  GLN317      0.0367
     86  CG       -16.9760  -23.1450   12.1190 C.3   317  GLN317      0.0905
     87  CD       -16.6320  -23.8470   10.8250 C.2   317  GLN317      0.2608
     88  OE1      -17.0850  -24.9620   10.5730 O.2   317  GLN317     -0.2717
     89  NE2      -15.8270  -23.1960    9.9950 N.am  317  GLN317     -0.0878
     90  N        -21.1230  -18.5460   10.7740 N.3   319  PHE319     -0.1241
     91  CA       -21.3270  -17.8480    9.5160 C.3   319  PHE319      0.1605
     92  C        -22.3960  -16.7760    9.6740 C.2   319  PHE319      0.2264
     93  O        -23.3290  -16.9160   10.4710 O.2   319  PHE319     -0.2867
     94  CB       -21.7130  -18.8260    8.4010 C.3   319  PHE319      0.0534
     95  CG       -20.6400  -19.8260    8.0870 C.ar  319  PHE319     -0.0203
     96  CD1      -20.5670  -21.0240    8.7800 C.ar  319  PHE319     -0.0042
     97  CD2      -19.6940  -19.5620    7.1130 C.ar  319  PHE319     -0.0042
     98  CE1      -19.5750  -21.9450    8.4980 C.ar  319  PHE319     -0.0003
     99  CE2      -18.7000  -20.4780    6.8250 C.ar  319  PHE319     -0.0003
    100  CZ       -18.6400  -21.6710    7.5200 C.ar  319  PHE319     -0.0000
    101  N        -17.2220  -15.3070    7.4640 N.3   332  GLU332     -0.1245
    102  CA       -16.9970  -16.3850    8.4140 C.3   332  GLU332      0.1567
    103  C        -16.0730  -15.8880    9.5170 C.2   332  GLU332      0.2260
    104  O        -15.0330  -15.2850    9.2340 O.2   332  GLU332     -0.2867
    105  CB       -16.3870  -17.6030    7.7150 C.3   332  GLU332      0.0388
    106  CG       -16.1180  -18.7890    8.6190 C.3   332  GLU332      0.1160
    107  CD       -15.5120  -19.9600    7.8680 C.2   332  GLU332      0.3649
    108  OE1      -15.3850  -19.8710    6.6310 O.co2 332  GLU332     -0.2457
    109  OE2      -15.1640  -20.9720    8.5110 O.co2 332  GLU332     -0.2457
    110  N        -11.4020  -26.8580    7.9540 N.3   350  PHE350     -0.1227
    111  CA       -12.2700  -25.7580    7.5570 C.3   350  PHE350      0.1736
    112  C        -13.7330  -25.9610    7.9150 C.2   350  PHE350      0.2596
    113  O        -14.4790  -24.9760    7.9380 O.2   350  PHE350     -0.2718
    114  CB       -12.1600  -25.5090    6.0450 C.3   350  PHE350      0.0547
    115  CG       -10.7790  -25.1270    5.5970 C.ar  350  PHE350     -0.0202
    116  CD1      -10.3900  -23.7990    5.5650 C.ar  350  PHE350     -0.0042
    117  CD2       -9.8670  -26.0950    5.2160 C.ar  350  PHE350     -0.0042
    118  CE1       -9.1180  -23.4440    5.1600 C.ar  350  PHE350     -0.0003
    119  CE2       -8.5920  -25.7450    4.8100 C.ar  350  PHE350     -0.0003
    120  CZ        -8.2180  -24.4190    4.7810 C.ar  350  PHE350     -0.0000
    121  N        -14.1670  -27.1840    8.2050 N.am  351  GLY351     -0.1942
    122  CA       -15.5530  -27.4360    8.5420 C.3   351  GLY351      0.2014
    123  C        -16.2000  -28.4520    7.6270 C.2   351  GLY351      0.2638
    124  O        -17.4270  -28.4770    7.4870 O.2   351  GLY351     -0.2714
    125  N        -15.3790  -29.2940    6.9930 N.am  352  LYS352     -0.1977
    126  CA       -15.9070  -30.3200    6.1010 C.3   352  LYS352      0.1596
    127  C        -16.7250  -31.3580    6.8550 C.2   352  LYS352      0.2287
    128  O        -17.7110  -31.8750    6.3190 O.2   352  LYS352     -0.2864
    129  CB       -14.7300  -31.0010    5.3510 C.3   352  LYS352      0.0298
    130  CG       -15.1590  -32.2470    4.5590 C.3   352  LYS352      0.0038
    131  CD       -15.5660  -31.7040    3.2080 C.3   352  LYS352      0.0206
    132  CE       -16.0460  -32.7800    2.2450 C.3   352  LYS352      0.1093
    133  NZ       -16.7990  -32.0460    1.1620 N.3   352  LYS352     -0.1314
    134  N        -18.6280  -30.8660    9.3290 N.3   354  ASN354     -0.1225
    135  CA       -19.6650  -30.1600   10.0700 C.3   354  ASN354      0.1785
    136  C        -21.0640  -30.3900    9.5100 C.2   354  ASN354      0.2597
    137  O        -22.0400  -30.3110   10.2660 O.2   354  ASN354     -0.2718
    138  CB       -19.3530  -28.6570   10.0990 C.3   354  ASN354      0.1169
    139  CG       -19.8150  -27.9820   11.3820 C.2   354  ASN354      0.2627
    140  OD1      -19.1530  -28.0630   12.4210 O.2   354  ASN354     -0.2716
    141  ND2      -20.9490  -27.2950   11.3070 N.am  354  ASN354     -0.0877
    142  N        -21.1930  -30.6800    8.2110 N.am  355  PHE355     -0.1976
    143  CA       -22.4970  -31.0480    7.6650 C.3   355  PHE355      0.1639
    144  C        -22.9830  -32.3760    8.2300 C.2   355  PHE355      0.2290
    145  O        -24.1890  -32.5540    8.4420 O.2   355  PHE355     -0.2864
    146  CB       -22.4330  -31.1130    6.1380 C.3   355  PHE355      0.0560
    147  CG       -22.0200  -29.8130    5.4880 C.ar  355  PHE355     -0.0200
    148  CD1      -22.7560  -28.6910    5.7130 C.ar  355  PHE355     -0.0042
    149  CD2      -20.8320  -29.7480    4.7690 C.ar  355  PHE355     -0.0042
    150  CE1      -22.3830  -27.4700    5.1570 C.ar  355  PHE355     -0.0003
    151  CE2      -20.4480  -28.5290    4.2440 C.ar  355  PHE355     -0.0003
    152  CZ       -21.2190  -27.3890    4.4980 C.ar  355  PHE355     -0.0000
    153  N        -24.1730  -31.5830   11.8610 N.3   358  LEU358     -0.1245
    154  CA       -25.4500  -30.8770   11.8740 C.3   358  LEU358      0.1561
    155  C        -26.5910  -31.8010   11.4690 C.2   358  LEU358      0.2260
    156  O        -27.6850  -31.7300   12.0400 O.2   358  LEU358     -0.2867
    157  CB       -25.3920  -29.6590   10.9540 C.3   358  LEU358      0.0270
    158  CG       -24.6860  -28.4230   11.5130 C.3   358  LEU358      0.0019
    159  CD1      -24.7490  -27.2760   10.5160 C.3   358  LEU358      0.0001
    160  CD2      -25.2980  -28.0150   12.8450 C.3   358  LEU358      0.0001
@<TRIPOS>BOND
     1    58    57    2
     2    57    56    1
     3    55    56    1
     4    56    59    1
     5    59    60    1
     6    29    28    1
     7    29    30    2
     8    28    27    1
     9    28    31    1
    10    35    36    1
    11    51    50    2
    12    37    36    1
    13    37    38    2
    14    36    39    1
    15    50    49    1
    16    31    32    1
    17    60    61    2
    18    60    62   am
    19    13    14    2
    20    13    12    1
    21    41    42    1
    22    43    44    2
    23    43    42    1
    24    49    48    1
    25    49    52    1
    26    39    40    1
    27    42    45    1
    28    48    54    1
    29    12    11    1
    30    12    15    1
    31    32    33    1
    32    32    34    1
    33    16    15    1
    34    52    53    1
    35    15    17    1
    36    63    64    1
    37    54    53    1
    38    45    47    1
    39    45    46    1
    40   133   132    1
    41    66    65    2
    42    64    65    1
    43    64    67    1
    44   132   131    1
    45    69    71   ar
    46    69    68   ar
    47    67    68    1
    48    71    72   ar
    49    26    24   ar
    50     3     4    2
    51     3     2    1
    52    68    70   ar
    53   131   130    1
    54    18    19    1
    55     5     2    1
    56     5     6    1
    57     2     1    1
    58    24    23    1
    59    24    25   ar
    60    72    70   ar
    61   151   152   ar
    62   151   149   ar
    63    21    20    2
    64    22    23    1
    65    22    19    1
    66     8     6   ar
    67     8    10   ar
    68   152   150   ar
    69   130   129    1
    70    19    20    1
    71     6     7   ar
    72   149   147   ar
    73   120   119   ar
    74   120   118   ar
    75   119   117   ar
    76   150   148   ar
    77   118   116   ar
    78   117   115   ar
    79   129   126    1
    80   147   148   ar
    81   147   146    1
    82    10     9   ar
    83   116   115   ar
    84   115   114    1
    85     7     9   ar
    86   114   111    1
    87   126   127    1
    88   126   125    1
    89   146   143    1
    90   128   127    2
    91   108   107   ar
    92    99    97   ar
    93    99   100   ar
    94   125   123   am
    95    97    95   ar
    96   101   102    1
    97   124   123    2
    98   100    98   ar
    99   111   112    1
   100   111   110    1
   101   123   122    1
   102   143   142    1
   103   143   144    1
   104   105   102    1
   105   105   106    1
   106   107   109   ar
   107   107   106    1
   108   112   113    2
   109   112   121   am
   110    95    94    1
   111    95    96   ar
   112   121   122    1
   113   142   136   am
   114   144   145    2
   115    94    91    1
   116   102   103    1
   117    98    96   ar
   118   104   103    2
   119   134   135    1
   120   136   135    1
   121   136   137    2
   122    91    92    1
   123    91    90    1
   124    92    93    2
   125    89    87   am
   126   135   138    1
   127   138   139    1
   128   159   158    1
   129    88    87    2
   130    87    86    1
   131   157   158    1
   132   157   154    1
   133   141   139   am
   134   139   140    2
   135   155   154    1
   136   155   156    2
   137   158   160    1
   138    79    78    1
   139   153   154    1
   140    86    85    1
   141    85    82    1
   142    78    80    1
   143    78    77    1
   144    82    83    1
   145    82    81    1
   146    83    84    2
   147    77    74    1
   148    74    75    1
   149    74    73    1
   150    76    75    2
