@<TRIPOS>MOLECULE
tmp/5xgnA00.pdb
 192 182 0 0 0
SMALL
GASTEIGER

@<TRIPOS>ATOM
      1  N         13.1450   30.9830  191.0760 N.3    22  LEU22      -0.1231
      2  CA        13.2870   30.5920  192.4780 C.3    22  LEU22       0.1693
      3  C         14.6250   29.9030  192.7140 C.2    22  LEU22       0.2593
      4  O         15.2260   30.0450  193.7820 O.2    22  LEU22      -0.2718
      5  CB        12.1430   29.6790  192.9080 C.3    22  LEU22       0.0284
      6  CG        10.7230   30.1740  192.7110 C.3    22  LEU22       0.0019
      7  CD1        9.7020   29.0830  192.9800 C.3    22  LEU22       0.0001
      8  CD2       10.4250   31.4060  193.5460 C.3    22  LEU22       0.0001
      9  N         15.1080   29.1440  191.7420 N.am   23  GLY23      -0.1942
     10  CA        16.3250   28.4010  191.9780 C.3    23  GLY23       0.2014
     11  C         16.8930   27.8020  190.7200 C.2    23  GLY23       0.2640
     12  O         16.1990   27.6050  189.7150 O.2    23  GLY23      -0.2714
     13  N         18.1750   27.4800  190.8130 N.am   24  SER24      -0.1935
     14  CA        18.9580   27.0140  189.6840 C.3    24  SER24       0.2055
     15  C         19.4490   25.6010  189.9570 C.2    24  SER24       0.2643
     16  O         19.8790   25.2910  191.0730 O.2    24  SER24      -0.2714
     17  CB        20.1350   27.9580  189.4180 C.3    24  SER24       0.2130
     18  OG        21.1240   27.3380  188.6200 O.3    24  SER24      -0.2179
     19  N         19.3540   24.7540  188.9440 N.am   25  GLY25      -0.1954
     20  CA        19.9890   23.4510  188.9710 C.3    25  GLY25       0.1869
     21  C         20.5680   23.1480  187.6070 C.2    25  GLY25       0.2309
     22  O         20.1730   23.7420  186.5970 O.2    25  GLY25      -0.2863
     23  N         20.4210   20.1710  186.0060 N.3    27  PHE27      -0.1227
     24  CA        19.2920   19.6030  185.2820 C.3    27  PHE27       0.1736
     25  C         18.4630   20.6870  184.6000 C.2    27  PHE27       0.2596
     26  O         17.9940   20.4950  183.4740 O.2    27  PHE27      -0.2718
     27  CB        18.4040   18.8040  186.2320 C.3    27  PHE27       0.0547
     28  CG        17.7660   19.6290  187.3450 C.ar   27  PHE27      -0.0202
     29  CD1       16.4850   20.1610  187.1940 C.ar   27  PHE27      -0.0042
     30  CD2       18.4270   19.8220  188.5460 C.ar   27  PHE27      -0.0042
     31  CE1       15.9040   20.8990  188.2140 C.ar   27  PHE27      -0.0003
     32  CE2       17.8370   20.5380  189.5710 C.ar   27  PHE27      -0.0003
     33  CZ        16.5770   21.0710  189.4010 C.ar   27  PHE27      -0.0000
     34  N         18.2670   21.8270  185.2710 N.am   28  GLY28      -0.1957
     35  CA        17.3620   22.8790  184.8370 C.3    28  GLY28       0.1869
     36  C         16.9230   23.7500  186.0010 C.2    28  GLY28       0.2309
     37  O         17.4700   23.6700  187.1060 O.2    28  GLY28      -0.2863
     38  N         13.9220   26.3800  188.2010 N.3    30  VAL30      -0.1245
     39  CA        12.5730   26.5130  188.7290 C.3    30  VAL30       0.1561
     40  C         12.2010   27.9900  188.7740 C.2    30  VAL30       0.2260
     41  O         13.0010   28.8370  189.1950 O.2    30  VAL30      -0.2867
     42  CB        12.4270   25.8280  190.0960 C.3    30  VAL30       0.0252
     43  CG1       12.8430   26.7550  191.2560 C.3    30  VAL30       0.0019
     44  CG2       11.0080   25.2670  190.2470 C.3    30  VAL30       0.0019
     45  N          4.8320   27.1030  190.4770 N.3    47  ALA47      -0.1245
     46  CA         6.2640   26.9510  190.3030 C.3    47  ALA47       0.1562
     47  C          6.4930   26.0700  189.0960 C.2    47  ALA47       0.2260
     48  O          5.8880   24.9960  188.9930 O.2    47  ALA47      -0.2867
     49  CB         6.9140   26.3140  191.5240 C.3    47  ALA47       0.0290
     50  N          9.3250   24.0820  186.7930 N.3    49  LYS49      -0.1245
     51  CA        10.6680   23.5430  186.6310 C.3    49  LYS49       0.1561
     52  C         10.9170   23.2630  185.1610 C.2    49  LYS49       0.2260
     53  O         10.0480   22.7020  184.4770 O.2    49  LYS49      -0.2867
     54  CB        10.8700   22.2800  187.4720 C.3    49  LYS49       0.0271
     55  CG        11.5210   21.1180  186.7550 C.3    49  LYS49       0.0035
     56  CD        12.5030   20.3970  187.6540 C.3    49  LYS49       0.0206
     57  CE        12.1470   18.9310  187.7580 C.3    49  LYS49       0.1093
     58  NZ        12.9220   18.1710  188.7950 N.3    49  LYS49      -0.1314
     59  N          9.2270   11.4140  186.4930 N.3    66  GLU66      -0.1245
     60  CA         8.9710   12.3450  187.5980 C.3    66  GLU66       0.1567
     61  C          7.5580   12.9180  187.5440 C.2    66  GLU66       0.2260
     62  O          6.8150   12.8400  188.5260 O.2    66  GLU66      -0.2867
     63  CB        10.0040   13.4760  187.5910 C.3    66  GLU66       0.0388
     64  CG         9.6040   14.6940  188.4050 C.3    66  GLU66       0.1160
     65  CD        10.7330   15.7020  188.5780 C.2    66  GLU66       0.3649
     66  OE1       10.4580   16.8210  189.0590 O.co2  66  GLU66      -0.2457
     67  OE2       11.8910   15.3870  188.2370 O.co2  66  GLU66      -0.2457
     68  N          4.5390   12.7490  190.5520 N.3    70  MET70      -0.1245
     69  CA         4.0030   13.9210  191.2320 C.3    70  MET70       0.1570
     70  C          2.5130   14.1240  190.9460 C.2    70  MET70       0.2261
     71  O          1.7970   14.7030  191.7660 O.2    70  MET70      -0.2867
     72  CB         4.8320   15.1400  190.8410 C.3    70  MET70       0.0387
     73  CG         4.4290   16.4660  191.4460 C.3    70  MET70       0.0595
     74  SD         5.8110   17.6370  191.3070 S.3    70  MET70      -0.1393
     75  CE         7.2140   16.5200  191.1460 C.3    70  MET70       0.0692
     76  N          3.6800   17.8790  197.7890 N.3    79  CYS79      -0.1235
     77  CA         3.4000   18.8730  196.7620 C.3    79  CYS79       0.1677
     78  C          3.0160   18.1860  195.4560 C.2    79  CYS79       0.2270
     79  O          3.6320   17.2000  195.0430 O.2    79  CYS79      -0.2867
     80  CB         4.6150   19.7700  196.5440 C.3    79  CYS79       0.0956
     81  SG         4.5900   20.7710  194.9800 S.3    79  CYS79      -0.0801
     82  N          3.6830   23.1270  189.1160 N.3    94  MET94      -0.1230
     83  CA         3.3450   22.5990  190.4200 C.3    94  MET94       0.1702
     84  C          2.8190   23.7070  191.3070 C.2    94  MET94       0.2592
     85  O          3.1320   24.8880  191.1110 O.2    94  MET94      -0.2718
     86  CB         4.5490   21.9650  191.0680 C.3    94  MET94       0.0401
     87  CG         5.6120   21.7210  190.0790 C.3    94  MET94       0.0596
     88  SD         7.0640   20.9280  190.7340 S.3    94  MET94      -0.1393
     89  CE         8.2720   22.0750  190.0570 C.3    94  MET94       0.0692
     90  N          2.0130   23.2960  192.2900 N.am   95  GLN95      -0.1966
     91  CA         1.5950   24.2230  193.3210 C.3    95  GLN95       0.1733
     92  C          2.8170   24.9220  193.9090 C.2    95  GLN95       0.2616
     93  O          3.8980   24.3380  194.0650 O.2    95  GLN95      -0.2715
     94  CB         0.7780   23.5020  194.4120 C.3    95  GLN95       0.0408
     95  CG         1.3240   22.1210  194.8960 C.3    95  GLN95       0.0908
     96  CD         0.4010   21.3990  195.8830 C.2    95  GLN95       0.2608
     97  OE1        0.2000   20.1670  195.8040 O.2    95  GLN95      -0.2717
     98  NE2       -0.1600   22.1620  196.8160 N.am   95  GLN95      -0.0878
     99  N          2.6430   26.2030  194.1940 N.am   96  LEU96      -0.1963
    100  CA         3.7120   27.0490  194.7010 C.3    96  LEU96       0.1728
    101  C          3.6330   27.1690  196.2220 C.2    96  LEU96       0.2616
    102  O          2.5780   27.5000  196.7800 O.2    96  LEU96      -0.2715
    103  CB         3.6450   28.4280  194.0600 C.3    96  LEU96       0.0311
    104  CG         4.3520   29.5060  194.8690 C.3    96  LEU96       0.0022
    105  CD1        5.6540   29.8870  194.1970 C.3    96  LEU96       0.0001
    106  CD2        3.4330   30.6890  194.9830 C.3    96  LEU96       0.0001
    107  N          4.7480   26.8720  196.8840 N.am   97  MET97      -0.1964
    108  CA         4.9220   27.1500  198.2970 C.3    97  MET97       0.1722
    109  C          5.6060   28.4920  198.3740 C.2    97  MET97       0.2458
    110  O          6.8000   28.5750  198.0440 O.2    97  MET97      -0.2730
    111  CB         5.7850   26.0850  198.9650 C.3    97  MET97       0.0427
    112  CG         5.4820   24.6900  198.5270 C.3    97  MET97       0.0599
    113  SD         3.7230   24.5360  198.3600 S.3    97  MET97      -0.1393
    114  CE         3.6200   22.9040  197.6460 C.3    97  MET97       0.0692
    115  N          4.9130   29.5730  198.7380 N.am   98  PRO98      -0.2716
    116  CA         5.5370   30.8990  198.5580 C.3    98  PRO98       0.1536
    117  C          6.7430   31.1350  199.4610 C.2    98  PRO98       0.2599
    118  O          7.7100   31.7890  199.0330 O.2    98  PRO98      -0.2715
    119  CB         4.3830   31.8690  198.8460 C.3    98  PRO98       0.0310
    120  CG         3.1170   31.0350  198.6830 C.3    98  PRO98       0.0237
    121  CD         3.4890   29.6560  199.1110 C.3    98  PRO98       0.0939
    122  N          6.6780   30.6270  200.6780 N.am   99  PHE99      -0.1960
    123  CA         7.7070   30.8660  201.6700 C.3    99  PHE99       0.1771
    124  C          9.0610   30.3090  201.2760 C.2    99  PHE99       0.2620
    125  O         10.0900   30.9130  201.5570 O.2    99  PHE99      -0.2715
    126  CB         7.2570   30.3340  203.0170 C.3    99  PHE99       0.0574
    127  CG         6.0700   31.0570  203.5660 C.ar   99  PHE99      -0.0200
    128  CD1        6.2290   32.2400  204.2560 C.ar   99  PHE99      -0.0042
    129  CD2        4.7950   30.5660  203.3700 C.ar   99  PHE99      -0.0042
    130  CE1        5.1400   32.9130  204.7570 C.ar   99  PHE99      -0.0003
    131  CE2        3.7000   31.2340  203.8680 C.ar   99  PHE99      -0.0003
    132  CZ         3.8730   32.4100  204.5630 C.ar   99  PHE99      -0.0000
    133  N          9.0690   29.1510  200.6350 N.am  100  GLY100     -0.1940
    134  CA        10.3230   28.5680  200.2200 C.3   100  GLY100      0.2014
    135  C         10.7040   27.3810  201.0590 C.2   100  GLY100      0.2639
    136  O          9.8910   26.8520  201.8060 O.2   100  GLY100     -0.2714
    137  N         11.9450   26.9450  200.9150 N.am  101  SER101     -0.1949
    138  CA        12.4020   25.7590  201.6080 C.3   101  SER101      0.1924
    139  C         12.3560   25.9860  203.1030 C.2   101  SER101      0.2314
    140  O         12.5890   27.0900  203.5830 O.2   101  SER101     -0.2863
    141  CB        13.8170   25.3850  201.1700 C.3   101  SER101      0.2116
    142  OG        14.7200   26.4470  201.3990 O.3   101  SER101     -0.2180
    143  N         15.6030   27.1270  204.4310 N.3   104  ASP104     -0.1239
    144  CA        15.7470   28.5650  204.3030 C.3   104  ASP104      0.1674
    145  C         14.9210   29.2580  205.3710 C.2   104  ASP104      0.2266
    146  O         15.3590   30.2230  205.9840 O.2   104  ASP104     -0.2867
    147  CB        15.2950   29.0220  202.9220 C.3   104  ASP104      0.1410
    148  CG        16.3900   28.9310  201.8980 C.2   104  ASP104      0.3668
    149  OD1       16.0800   28.9460  200.6920 O.co2 104  ASP104     -0.2456
    150  OD2       17.5640   28.8450  202.3020 O.co2 104  ASP104     -0.2456
    151  N         16.1740   21.3480  202.5570 N.3   145  ARG145     -0.1231
    152  CA        16.0340   22.1370  201.3310 C.3   145  ARG145      0.1694
    153  C         14.9120   21.5990  200.4360 C.2   145  ARG145      0.2592
    154  O         14.3280   22.3520  199.6460 O.2   145  ARG145     -0.2718
    155  CB        17.3490   22.1760  200.5460 C.3   145  ARG145      0.0321
    156  CG        17.4980   21.0020  199.5940 C.3   145  ARG145      0.0489
    157  CD        18.8450   20.9340  198.9050 C.3   145  ARG145      0.2205
    158  NE        19.4420   19.6220  199.1250 N.pl3 145  ARG145     -0.0865
    159  CZ        19.1950   18.5290  198.4070 C.cat 145  ARG145      0.5346
    160  NH1       18.3580   18.5510  197.3670 N.pl3 145  ARG145      0.1354
    161  NH2       19.8070   17.3990  198.7350 N.pl3 145  ARG145      0.1354
    162  N         14.6010   20.3010  200.5310 N.am  146  ASN146     -0.1974
    163  CA        13.5230   19.7450  199.7210 C.3   146  ASN146      0.1688
    164  C         12.2030   19.7100  200.4650 C.2   146  ASN146      0.2292
    165  O         11.2840   18.9920  200.0470 O.2   146  ASN146     -0.2864
    166  CB        13.8420   18.3230  199.2440 C.3   146  ASN146      0.1181
    167  CG        14.9780   18.2780  198.2370 C.2   146  ASN146      0.2629
    168  OD1       15.1930   19.2140  197.4600 O.2   146  ASN146     -0.2716
    169  ND2       15.7040   17.1660  198.2330 N.am  146  ASN146     -0.0877
    170  N          9.2380   22.1760  201.6350 N.3   148  LEU148     -0.1245
    171  CA         8.8130   23.5400  201.3800 C.3   148  LEU148      0.1561
    172  C          7.6590   23.9390  202.2760 C.2   148  LEU148      0.2260
    173  O          6.8640   23.0950  202.7100 O.2   148  LEU148     -0.2867
    174  CB         8.3950   23.7260  199.9840 C.3   148  LEU148      0.0270
    175  CG         9.3100   23.2310  198.8950 C.3   148  LEU148      0.0019
    176  CD1        8.4180   23.0600  197.6710 C.3   148  LEU148      0.0001
    177  CD2       10.4340   24.2410  198.6560 C.3   148  LEU148      0.0001
    178  N          9.1010   17.7320  198.2370 N.3   158  THR158     -0.1203
    179  CA         9.3590   18.3010  196.9310 C.3   158  THR158      0.1994
    180  C         10.5360   17.5970  196.2820 C.2   158  THR158      0.2617
    181  O         11.2300   16.7950  196.9140 O.2   158  THR158     -0.2717
    182  CB         9.5830   19.8070  197.0860 C.3   158  THR158      0.1784
    183  OG1        8.9530   20.4810  196.0070 O.3   158  THR158     -0.2211
    184  CG2       11.0520   20.1440  197.1030 C.3   158  THR158      0.0376
    185  N         10.7430   17.9120  195.0010 N.am  159  ASP159     -0.1973
    186  CA        11.8970   17.4530  194.2210 C.3   159  ASP159      0.1709
    187  C         11.9560   15.9190  194.1750 C.2   159  ASP159      0.2293
    188  O         12.7960   15.2560  194.7860 O.2   159  ASP159     -0.2864
    189  CB        13.2030   18.0630  194.7520 C.3   159  ASP159      0.1436
    190  CG        14.2940   18.0800  193.6990 C.2   159  ASP159      0.3671
    191  OD1       14.3920   19.0630  192.9300 O.co2 159  ASP159     -0.2456
    192  OD2       15.0790   17.1120  193.6190 O.co2 159  ASP159     -0.2456
@<TRIPOS>BOND
     1    26    25    2
     2    53    52    2
     3    25    34   am
     4    25    24    1
     5    35    34    1
     6    35    36    1
     7    52    51    1
     8    24    23    1
     9    24    27    1
    10    36    37    2
    11    27    28    1
    12    59    60    1
    13    22    21    2
    14    51    50    1
    15    51    54    1
    16    55    54    1
    17    55    56    1
    18    29    28   ar
    19    29    31   ar
    20    28    30   ar
    21    61    60    1
    22    61    62    2
    23    63    60    1
    24    63    64    1
    25    21    20    1
    26    56    57    1
    27    57    58    1
    28    38    39    1
    29    31    33   ar
    30    67    65   ar
    31    64    65    1
    32    30    32   ar
    33    65    66   ar
    34    18    17    1
    35    39    40    1
    36    39    42    1
    37    40    41    2
    38    19    20    1
    39    19    15   am
    40    48    47    2
    41    47    46    1
    42    82    83    1
    43    33    32   ar
    44    17    14    1
    45    14    15    1
    46    14    13    1
    47    12    11    2
    48    15    16    2
    49    89    88    1
    50    87    88    1
    51    87    86    1
    52    42    44    1
    53    42    43    1
    54    46    45    1
    55    46    49    1
    56    83    86    1
    57    83    84    1
    58    68    69    1
    59    11    13   am
    60    11    10    1
    61    72    69    1
    62    72    73    1
    63    70    69    1
    64    70    71    2
    65     1     2    1
    66    85    84    2
    67    75    74    1
    68    84    90   am
    69    74    73    1
    70     9    10    1
    71     9     3   am
    72    90    91    1
    73     2     3    1
    74     2     5    1
    75     6     5    1
    76     6     7    1
    77     6     8    1
    78     3     4    2
    79   191   190   ar
    80    91    92    1
    81    91    94    1
    82   192   190   ar
    83   190   189    1
    84    92    93    2
    85    92    99   am
    86   103   100    1
    87   103   104    1
    88   187   186    1
    89   187   188    2
    90    99   100    1
    91   105   104    1
    92   186   189    1
    93   186   185    1
    94    94    95    1
    95   100   101    1
    96   104   106    1
    97    95    96    1
    98    81    80    1
    99   185   180   am
   100    79    78    2
   101    78    77    1
   102    97    96    2
   103    96    98   am
   104   183   182    1
   105   101   102    2
   106   101   107   am
   107   180   181    2
   108   180   179    1
   109    80    77    1
   110    77    76    1
   111   107   108    1
   112   179   182    1
   113   179   178    1
   114   182   184    1
   115   160   159    1
   116   168   167    2
   117   114   113    1
   118   176   175    1
   119   110   109    2
   120   169   167   am
   121   167   166    1
   122   108   109    1
   123   108   111    1
   124   113   112    1
   125   109   115   am
   126   159   161    1
   127   159   158    2
   128   112   111    1
   129   116   115    1
   130   116   119    1
   131   116   117    1
   132   177   175    1
   133   120   119    1
   134   120   121    1
   135   115   121    1
   136   175   174    1
   137   157   158    1
   138   157   156    1
   139   118   117    2
   140   166   163    1
   141   117   122   am
   142   156   155    1
   143   154   153    2
   144   163   164    1
   145   163   162    1
   146   174   171    1
   147   165   164    2
   148   134   133    1
   149   134   135    1
   150   153   162   am
   151   153   152    1
   152   155   152    1
   153   133   124   am
   154   122   123    1
   155   149   148   ar
   156   137   135   am
   157   137   138    1
   158   135   136    2
   159   141   142    1
   160   141   138    1
   161   124   125    2
   162   124   123    1
   163   152   151    1
   164   171   170    1
   165   171   172    1
   166   138   139    1
   167   123   126    1
   168   148   150   ar
   169   148   147    1
   170   172   173    2
   171   147   144    1
   172   126   127    1
   173   139   140    2
   174   129   127   ar
   175   129   131   ar
   176   127   128   ar
   177   131   132   ar
   178   128   130   ar
   179   144   143    1
   180   144   145    1
   181   132   130   ar
   182   145   146    2
