@<TRIPOS>MOLECULE
tmp/5xgxA00.pdb
 131 125 0 0 0
SMALL
GASTEIGER

@<TRIPOS>ATOM
      1  N         -0.4410   23.0730   26.3830 N.3    68  HIS68      -0.1241
      2  CA        -1.1850   23.8890   27.3430 C.3    68  HIS68       0.1621
      3  C         -1.1760   23.2120   28.6890 C.2    68  HIS68       0.2264
      4  O         -2.1150   22.4780   29.0440 O.2    68  HIS68      -0.2867
      5  CB        -2.5910   24.0930   26.8570 C.3    68  HIS68       0.0745
      6  CG        -2.6300   24.8740   25.5930 C.ar   68  HIS68       0.0817
      7  ND1       -2.6210   26.2520   25.5770 N.ar   68  HIS68      -0.2268
      8  CD2       -2.5850   24.4760   24.3050 C.ar   68  HIS68       0.1154
      9  CE1       -2.6400   26.6660   24.3280 C.ar   68  HIS68       0.1986
     10  NE2       -2.6270   25.6060   23.5390 N.ar   68  HIS68      -0.2212
     11  N         -5.9870   24.3180   28.2270 N.3    72  GLY72      -0.1210
     12  CA        -6.4390   25.4070   27.3640 C.3    72  GLY72       0.1956
     13  C         -7.9540   25.5650   27.4260 C.2    72  GLY72       0.2612
     14  O         -8.5570   25.5240   28.4990 O.2    72  GLY72      -0.2717
     15  N         -8.5710   25.6940   26.2650 N.am   73  GLY73      -0.1956
     16  CA        -9.9880   25.7980   26.1650 C.3    73  GLY73       0.1869
     17  C        -10.4910   27.1450   26.5890 C.2    73  GLY73       0.2309
     18  O         -9.7770   28.1450   26.5030 O.2    73  GLY73      -0.2863
     19  N        -13.1520   28.4700   25.0370 N.3    75  GLN75      -0.1245
     20  CA       -13.6510   29.1330   23.8240 C.3    75  GLN75       0.1566
     21  C        -15.0760   28.8120   23.4700 C.2    75  GLN75       0.2260
     22  O        -15.5280   29.1870   22.3850 O.2    75  GLN75      -0.2867
     23  CB       -12.8340   28.7190   22.6430 C.3    75  GLN75       0.0367
     24  CG       -11.3660   28.7740   22.9230 C.3    75  GLN75       0.0905
     25  CD       -10.6220   28.2700   21.7540 C.2    75  GLN75       0.2608
     26  OE1      -10.9650   28.6110   20.6130 O.2    75  GLN75      -0.2717
     27  NE2       -9.6240   27.4190   21.9990 N.am   75  GLN75      -0.0878
     28  N         -3.1120   30.0670   25.1700 N.3   103  GLY103     -0.1210
     29  CA        -3.6440   30.2700   23.8410 C.3   103  GLY103      0.1956
     30  C         -4.6960   31.3400   23.7790 C.2   103  GLY103      0.2613
     31  O         -4.4270   32.5230   24.0680 O.2   103  GLY103     -0.2717
     32  N         -5.8870   30.9380   23.3400 N.am  104  THR104     -0.1938
     33  CA        -6.9750   31.8720   23.1050 C.3   104  THR104      0.2028
     34  C         -7.3650   32.5780   24.3850 C.2   104  THR104      0.2642
     35  O         -7.5740   33.7670   24.3770 O.2   104  THR104     -0.2714
     36  CB        -8.2440   31.1860   22.5360 C.3   104  THR104      0.1808
     37  OG1       -7.9070   30.3730   21.3910 O.3   104  THR104     -0.2208
     38  CG2       -9.2460   32.2530   22.0830 C.3   104  THR104      0.0379
     39  N         -7.5000   31.8290   25.4780 N.am  105  ASP105     -0.1971
     40  CA        -7.8770   32.4210   26.7510 C.3   105  ASP105      0.1709
     41  C         -6.6030   32.8060   27.4780 C.2   105  ASP105      0.2293
     42  O         -6.0410   32.0400   28.2650 O.2   105  ASP105     -0.2864
     43  CB        -8.7750   31.4950   27.5860 C.3   105  ASP105      0.1436
     44  CG        -9.1900   32.1080   28.9270 C.2   105  ASP105      0.3671
     45  OD1       -9.0010   33.3390   29.1290 O.co2 105  ASP105     -0.2456
     46  OD2       -9.6990   31.3310   29.7880 O.co2 105  ASP105     -0.2456
     47  N         -2.1000   34.6250   22.7270 N.3   135  TYR135     -0.1241
     48  CA        -2.6610   34.9660   21.4020 C.3   135  TYR135      0.1605
     49  C         -2.6220   36.4430   21.1420 C.2   135  TYR135      0.2264
     50  O         -2.4980   36.8450   19.9640 O.2   135  TYR135     -0.2867
     51  CB        -4.1610   34.6300   21.2280 C.3   135  TYR135      0.0534
     52  CG        -4.5750   33.3270   20.5470 C.ar  135  TYR135     -0.0201
     53  CD1       -3.8880   32.1590   20.7470 C.ar  135  TYR135     -0.0009
     54  CD2       -5.7280   33.2650   19.7680 C.ar  135  TYR135     -0.0009
     55  CE1       -4.3200   30.9540   20.1830 C.ar  135  TYR135      0.0417
     56  CE2       -6.1520   32.0720   19.1490 C.ar  135  TYR135      0.0417
     57  CZ        -5.4670   30.9070   19.3900 C.ar  135  TYR135      0.1957
     58  OH        -5.8900   29.6830   18.8570 O.3   135  TYR135     -0.2866
     59  N          2.2930   31.2540   21.6300 N.3   161  GLU161     -0.1245
     60  CA         1.1990   31.1930   20.7490 C.3   161  GLU161      0.1567
     61  C          0.5520   32.5160   20.4170 C.2   161  GLU161      0.2260
     62  O         -0.6280   32.7200   20.6990 O.2   161  GLU161     -0.2867
     63  CB         0.3390   30.0400   21.1740 C.3   161  GLU161      0.0388
     64  CG        -1.0060   30.0450   20.6220 C.3   161  GLU161      0.1160
     65  CD        -1.4640   28.6920   20.3510 C.2   161  GLU161      0.3649
     66  OE1       -1.7070   28.0180   21.3530 O.co2 161  GLU161     -0.2457
     67  OE2       -1.5910   28.3390   19.1480 O.co2 161  GLU161     -0.2457
     68  N         -9.7760   34.8110   15.8830 N.3   168  ARG168     -0.1245
     69  CA        -9.5490   35.1230   17.3070 C.3   168  ARG168      0.1563
     70  C         -8.2970   35.9450   17.6150 C.2   168  ARG168      0.2260
     71  O         -7.9730   36.1460   18.7900 O.2   168  ARG168     -0.2867
     72  CB        -9.4710   33.8870   18.1190 C.3   168  ARG168      0.0307
     73  CG       -10.7500   33.1040   18.1050 C.3   168  ARG168      0.0489
     74  CD       -10.5470   31.8710   17.2960 C.3   168  ARG168      0.2205
     75  NE       -10.0910   30.7300   18.0400 N.pl3 168  ARG168     -0.0865
     76  CZ        -9.3560   29.7330   17.5560 C.cat 168  ARG168      0.5346
     77  NH1       -9.1090   28.7040   18.3550 N.pl3 168  ARG168      0.1354
     78  NH2       -8.8420   29.7590   16.3300 N.pl3 168  ARG168      0.1354
     79  N          0.7590   31.2480   16.4230 N.3   200  HIS200     -0.1241
     80  CA        -0.4460   30.4790   16.0900 C.3   200  HIS200      0.1621
     81  C         -0.9540   30.9560   14.7380 C.2   200  HIS200      0.2264
     82  O         -1.1400   32.1430   14.5430 O.2   200  HIS200     -0.2867
     83  CB        -1.5470   30.6600   17.1270 C.3   200  HIS200      0.0745
     84  CG        -2.9220   30.2780   16.6530 C.ar  200  HIS200      0.0817
     85  ND1       -3.4850   29.0540   16.9180 N.ar  200  HIS200     -0.2268
     86  CD2       -3.8380   30.9550   15.9230 C.ar  200  HIS200      0.1154
     87  CE1       -4.6910   28.9900   16.3820 C.ar  200  HIS200      0.1986
     88  NE2       -4.9400   30.1350   15.7830 N.ar  200  HIS200     -0.2212
     89  N          0.9080   24.9380   13.4700 N.3   229  HIS229     -0.1241
     90  CA        -0.3370   24.4960   12.8650 C.3   229  HIS229      0.1621
     91  C         -0.2820   24.5790   11.3600 C.2   229  HIS229      0.2264
     92  O         -1.3000   24.7200   10.6830 O.2   229  HIS229     -0.2867
     93  CB        -1.5640   25.2990   13.3270 C.3   229  HIS229      0.0745
     94  CG        -1.6740   25.4890   14.8050 C.ar  229  HIS229      0.0817
     95  ND1       -1.4470   24.4870   15.7120 N.ar  229  HIS229     -0.2268
     96  CD2       -2.0850   26.5600   15.5260 C.ar  229  HIS229      0.1154
     97  CE1       -1.6520   24.9380   16.9340 C.ar  229  HIS229      0.1986
     98  NE2       -2.0230   26.2030   16.8460 N.ar  229  HIS229     -0.2212
     99  N          0.1100   19.9860   20.8910 N.3   288  ASP288     -0.1239
    100  CA        -0.9860   20.8160   21.3590 C.3   288  ASP288      0.1674
    101  C         -1.7310   20.2080   22.5610 C.2   288  ASP288      0.2266
    102  O         -2.9270   20.4070   22.7190 O.2   288  ASP288     -0.2867
    103  CB        -1.9410   21.1160   20.2020 C.3   288  ASP288      0.1410
    104  CG        -2.6660   22.4180   20.3580 C.2   288  ASP288      0.3668
    105  OD1       -2.5030   23.0840   21.4060 O.co2 288  ASP288     -0.2456
    106  OD2       -3.3950   22.7860   19.4130 O.co2 288  ASP288     -0.2456
    107  N         -4.9150   21.4770   24.7550 N.3   291  GLY291     -0.1210
    108  CA        -5.6280   22.4520   23.9530 C.3   291  GLY291      0.1956
    109  C         -6.9490   21.8620   23.5440 C.2   291  GLY291      0.2612
    110  O         -7.1210   20.6460   23.5830 O.2   291  GLY291     -0.2717
    111  N         -7.9010   22.7250   23.2020 N.am  292  CYS292     -0.1956
    112  CA        -9.1010   22.3100   22.4710 C.3   292  CYS292      0.1843
    113  C         -8.8440   22.5920   20.9820 C.2   292  CYS292      0.2625
    114  O         -8.1420   23.5490   20.6400 O.2   292  CYS292     -0.2714
    115  CB       -10.3400   23.0530   22.9690 C.3   292  CYS292      0.0997
    116  SG       -10.4050   24.7800   22.4570 S.3   292  CYS292     -0.0797
    117  N         -9.3890   21.7350   20.1170 N.am  293  LEU293     -0.1964
    118  CA        -9.2700   21.8380   18.6500 C.3   293  LEU293      0.1713
    119  C        -10.6850   22.1030   18.0630 C.2   293  LEU293      0.2458
    120  O        -11.4440   21.1560   17.8320 O.2   293  LEU293     -0.2730
    121  CB        -8.6480   20.5360   18.0900 C.3   293  LEU293      0.0310
    122  CG        -7.3590   20.0060   18.7500 C.3   293  LEU293      0.0022
    123  CD1       -6.8510   18.7660   18.0250 C.3   293  LEU293      0.0001
    124  CD2       -6.2610   21.0590   18.8590 C.3   293  LEU293      0.0001
    125  N        -11.0630   23.4000   17.8690 N.am  294  PRO294     -0.2727
    126  CA       -12.4670   23.7540   17.5130 C.3   294  PRO294      0.1402
    127  C        -12.9440   23.5130   16.0410 C.2   294  PRO294      0.2269
    128  O        -12.1820   23.7090   15.0800 O.2   294  PRO294     -0.2865
    129  CB       -12.5660   25.2390   17.9100 C.3   294  PRO294      0.0296
    130  CG       -11.1670   25.7550   17.8800 C.3   294  PRO294      0.0237
    131  CD       -10.2650   24.6020   18.2060 C.3   294  PRO294      0.0939
@<TRIPOS>BOND
     1    92    91    2
     2    91    90    1
     3    90    93    1
     4    90    89    1
     5    93    94    1
     6    82    81    2
     7    81    80    1
     8    94    96   ar
     9    94    95   ar
    10   128   127    2
    11    96    98   ar
    12    95    97   ar
    13    88    86   ar
    14    88    87   ar
    15    68    69    1
    16    86    84   ar
    17   127   126    1
    18    80    79    1
    19    80    83    1
    20    78    76    1
    21    87    85   ar
    22    84    85   ar
    23    84    83    1
    24    98    97   ar
    25    74    75    1
    26    74    73    1
    27    69    70    1
    28    69    72    1
    29   126   125    1
    30   126   129    1
    31    76    75    2
    32    76    77    1
    33    70    71    2
    34   120   119    2
    35   125   119   am
    36   125   131    1
    37   130   129    1
    38   130   131    1
    39   123   122    1
    40   119   118    1
    41   121   118    1
    42   121   122    1
    43    73    72    1
    44   118   117    1
    45   122   124    1
    46    58    57    1
    47    67    65   ar
    48    56    57   ar
    49    56    54   ar
    50    57    55   ar
    51   106   104   ar
    52    54    52   ar
    53    50    49    2
    54   117   113   am
    55    55    53   ar
    56   103   104    1
    57   103   100    1
    58    65    64    1
    59    65    66   ar
    60   104   105   ar
    61    61    62    2
    62    61    60    1
    63    52    53   ar
    64    52    51    1
    65    26    25    2
    66    64    63    1
    67   114   113    2
    68    60    63    1
    69    60    59    1
    70    99   100    1
    71   113   112    1
    72    49    48    1
    73    51    48    1
    74   100   101    1
    75    37    36    1
    76    48    47    1
    77    25    27   am
    78    25    24    1
    79    38    36    1
    80    22    21    2
    81   116   115    1
    82   112   115    1
    83   112   111    1
    84    36    33    1
    85   101   102    2
    86    23    24    1
    87    23    20    1
    88    33    32    1
    89    33    34    1
    90   111   109   am
    91    32    30   am
    92    21    20    1
    93    10     8   ar
    94    10     9   ar
    95   109   110    2
    96   109   108    1
    97    30    29    1
    98    30    31    2
    99    20    19    1
   100    29    28    1
   101   108   107    1
   102     8     6   ar
   103     9     7   ar
   104    35    34    2
   105    34    39   am
   106    39    40    1
   107     7     6   ar
   108     6     5    1
   109    16    15    1
   110    16    17    1
   111    15    13   am
   112     1     2    1
   113    18    17    2
   114    40    41    1
   115    40    43    1
   116     5     2    1
   117     2     3    1
   118    12    13    1
   119    12    11    1
   120    13    14    2
   121    41    42    2
   122    43    44    1
   123     3     4    2
   124    44    45   ar
   125    44    46   ar
