@<TRIPOS>MOLECULE
tmp/5xgxA01.pdb
 149 141 0 0 0
SMALL
GASTEIGER

@<TRIPOS>ATOM
      1  N         -0.4410   23.0730   26.3830 N.3    68  HIS68      -0.1241
      2  CA        -1.1850   23.8890   27.3430 C.3    68  HIS68       0.1621
      3  C         -1.1760   23.2120   28.6890 C.2    68  HIS68       0.2264
      4  O         -2.1150   22.4780   29.0440 O.2    68  HIS68      -0.2867
      5  CB        -2.5910   24.0930   26.8570 C.3    68  HIS68       0.0745
      6  CG        -2.6300   24.8740   25.5930 C.ar   68  HIS68       0.0817
      7  ND1       -2.6210   26.2520   25.5770 N.ar   68  HIS68      -0.2268
      8  CD2       -2.5850   24.4760   24.3050 C.ar   68  HIS68       0.1154
      9  CE1       -2.6400   26.6660   24.3280 C.ar   68  HIS68       0.1986
     10  NE2       -2.6270   25.6060   23.5390 N.ar   68  HIS68      -0.2212
     11  N        -13.1520   28.4700   25.0370 N.3    75  GLN75      -0.1245
     12  CA       -13.6510   29.1330   23.8240 C.3    75  GLN75       0.1566
     13  C        -15.0760   28.8120   23.4700 C.2    75  GLN75       0.2260
     14  O        -15.5280   29.1870   22.3850 O.2    75  GLN75      -0.2867
     15  CB       -12.8340   28.7190   22.6430 C.3    75  GLN75       0.0367
     16  CG       -11.3660   28.7740   22.9230 C.3    75  GLN75       0.0905
     17  CD       -10.6220   28.2700   21.7540 C.2    75  GLN75       0.2608
     18  OE1      -10.9650   28.6110   20.6130 O.2    75  GLN75      -0.2717
     19  NE2       -9.6240   27.4190   21.9990 N.am   75  GLN75      -0.0878
     20  N         -5.8870   30.9380   23.3400 N.3   104  THR104     -0.1218
     21  CA        -6.9750   31.8720   23.1050 C.3   104  THR104      0.1862
     22  C         -7.3650   32.5780   24.3850 C.2   104  THR104      0.2287
     23  O         -7.5740   33.7670   24.3770 O.2   104  THR104     -0.2866
     24  CB        -8.2440   31.1860   22.5360 C.3   104  THR104      0.1770
     25  OG1       -7.9070   30.3730   21.3910 O.3   104  THR104     -0.2211
     26  CG2       -9.2460   32.2530   22.0830 C.3   104  THR104      0.0375
     27  N         -2.1000   34.6250   22.7270 N.3   135  TYR135     -0.1241
     28  CA        -2.6610   34.9660   21.4020 C.3   135  TYR135      0.1605
     29  C         -2.6220   36.4430   21.1420 C.2   135  TYR135      0.2264
     30  O         -2.4980   36.8450   19.9640 O.2   135  TYR135     -0.2867
     31  CB        -4.1610   34.6300   21.2280 C.3   135  TYR135      0.0534
     32  CG        -4.5750   33.3270   20.5470 C.ar  135  TYR135     -0.0201
     33  CD1       -3.8880   32.1590   20.7470 C.ar  135  TYR135     -0.0009
     34  CD2       -5.7280   33.2650   19.7680 C.ar  135  TYR135     -0.0009
     35  CE1       -4.3200   30.9540   20.1830 C.ar  135  TYR135      0.0417
     36  CE2       -6.1520   32.0720   19.1490 C.ar  135  TYR135      0.0417
     37  CZ        -5.4670   30.9070   19.3900 C.ar  135  TYR135      0.1957
     38  OH        -5.8900   29.6830   18.8570 O.3   135  TYR135     -0.2866
     39  N          2.2930   31.2540   21.6300 N.3   161  GLU161     -0.1245
     40  CA         1.1990   31.1930   20.7490 C.3   161  GLU161      0.1567
     41  C          0.5520   32.5160   20.4170 C.2   161  GLU161      0.2260
     42  O         -0.6280   32.7200   20.6990 O.2   161  GLU161     -0.2867
     43  CB         0.3390   30.0400   21.1740 C.3   161  GLU161      0.0388
     44  CG        -1.0060   30.0450   20.6220 C.3   161  GLU161      0.1160
     45  CD        -1.4640   28.6920   20.3510 C.2   161  GLU161      0.3649
     46  OE1       -1.7070   28.0180   21.3530 O.co2 161  GLU161     -0.2457
     47  OE2       -1.5910   28.3390   19.1480 O.co2 161  GLU161     -0.2457
     48  N         -9.7760   34.8110   15.8830 N.3   168  ARG168     -0.1245
     49  CA        -9.5490   35.1230   17.3070 C.3   168  ARG168      0.1563
     50  C         -8.2970   35.9450   17.6150 C.2   168  ARG168      0.2260
     51  O         -7.9730   36.1460   18.7900 O.2   168  ARG168     -0.2867
     52  CB        -9.4710   33.8870   18.1190 C.3   168  ARG168      0.0307
     53  CG       -10.7500   33.1040   18.1050 C.3   168  ARG168      0.0489
     54  CD       -10.5470   31.8710   17.2960 C.3   168  ARG168      0.2205
     55  NE       -10.0910   30.7300   18.0400 N.pl3 168  ARG168     -0.0865
     56  CZ        -9.3560   29.7330   17.5560 C.cat 168  ARG168      0.5346
     57  NH1       -9.1090   28.7040   18.3550 N.pl3 168  ARG168      0.1354
     58  NH2       -8.8420   29.7590   16.3300 N.pl3 168  ARG168      0.1354
     59  N          0.7590   31.2480   16.4230 N.3   200  HIS200     -0.1241
     60  CA        -0.4460   30.4790   16.0900 C.3   200  HIS200      0.1621
     61  C         -0.9540   30.9560   14.7380 C.2   200  HIS200      0.2264
     62  O         -1.1400   32.1430   14.5430 O.2   200  HIS200     -0.2867
     63  CB        -1.5470   30.6600   17.1270 C.3   200  HIS200      0.0745
     64  CG        -2.9220   30.2780   16.6530 C.ar  200  HIS200      0.0817
     65  ND1       -3.4850   29.0540   16.9180 N.ar  200  HIS200     -0.2268
     66  CD2       -3.8380   30.9550   15.9230 C.ar  200  HIS200      0.1154
     67  CE1       -4.6910   28.9900   16.3820 C.ar  200  HIS200      0.1986
     68  NE2       -4.9400   30.1350   15.7830 N.ar  200  HIS200     -0.2212
     69  N          0.9080   24.9380   13.4700 N.3   229  HIS229     -0.1241
     70  CA        -0.3370   24.4960   12.8650 C.3   229  HIS229      0.1621
     71  C         -0.2820   24.5790   11.3600 C.2   229  HIS229      0.2264
     72  O         -1.3000   24.7200   10.6830 O.2   229  HIS229     -0.2867
     73  CB        -1.5640   25.2990   13.3270 C.3   229  HIS229      0.0745
     74  CG        -1.6740   25.4890   14.8050 C.ar  229  HIS229      0.0817
     75  ND1       -1.4470   24.4870   15.7120 N.ar  229  HIS229     -0.2268
     76  CD2       -2.0850   26.5600   15.5260 C.ar  229  HIS229      0.1154
     77  CE1       -1.6520   24.9380   16.9340 C.ar  229  HIS229      0.1986
     78  NE2       -2.0230   26.2030   16.8460 N.ar  229  HIS229     -0.2212
     79  N         -2.6230   22.8580    9.0670 N.3   232  ARG232     -0.1245
     80  CA        -4.0840   22.9590    9.3650 C.3   232  ARG232      0.1563
     81  C         -4.9930   23.1340    8.1600 C.2   232  ARG232      0.2260
     82  O         -6.1790   22.7570    8.2190 O.2   232  ARG232     -0.2867
     83  CB        -4.4050   24.1160   10.3700 C.3   232  ARG232      0.0307
     84  CG        -4.1910   25.5240    9.8380 C.3   232  ARG232      0.0489
     85  CD        -4.4460   26.6000   10.8770 C.3   232  ARG232      0.2205
     86  NE        -5.8590   26.5400   11.2390 N.pl3 232  ARG232     -0.0865
     87  CZ        -6.3410   26.5050   12.4640 C.cat 232  ARG232      0.5346
     88  NH1       -5.5590   26.6200   13.5230 N.pl3 232  ARG232      0.1354
     89  NH2       -7.6460   26.4270   12.6150 N.pl3 232  ARG232      0.1354
     90  N         -2.4010   16.4090   15.0350 N.3   255  PHE255     -0.1241
     91  CA        -3.8490   16.3050   15.2650 C.3   255  PHE255      0.1605
     92  C         -4.2020   14.8550   15.5320 C.2   255  PHE255      0.2264
     93  O         -3.6640   13.9640   14.8740 O.2   255  PHE255     -0.2867
     94  CB        -4.6660   16.7480   14.0340 C.3   255  PHE255      0.0534
     95  CG        -4.4620   18.1830   13.6580 C.ar  255  PHE255     -0.0203
     96  CD1       -4.8560   19.1850   14.5250 C.ar  255  PHE255     -0.0042
     97  CD2       -3.8310   18.5330   12.4650 C.ar  255  PHE255     -0.0042
     98  CE1       -4.6430   20.5140   14.2230 C.ar  255  PHE255     -0.0003
     99  CE2       -3.6130   19.8680   12.1460 C.ar  255  PHE255     -0.0003
    100  CZ        -4.0280   20.8630   13.0260 C.ar  255  PHE255     -0.0000
    101  N         -8.8270   13.7470   12.2390 N.3   259  THR259     -0.1218
    102  CA        -9.3840   15.0780   12.6420 C.3   259  THR259      0.1862
    103  C         -8.6750   16.3220   11.9510 C.2   259  THR259      0.2287
    104  O         -9.0940   17.4960   12.1430 O.2   259  THR259     -0.2866
    105  CB        -9.3760   15.2310   14.1990 C.3   259  THR259      0.1770
    106  OG1       -8.0510   15.5890   14.6640 O.3   259  THR259     -0.2211
    107  CG2       -9.8970   13.9000   14.9150 C.3   259  THR259      0.0375
    108  N         -8.9200   17.8320    9.3880 N.3   261  GLN261     -0.1245
    109  CA        -9.7660   19.0100    9.2410 C.3   261  GLN261      0.1566
    110  C         -9.8170   18.9840    7.7330 C.2   261  GLN261      0.2260
    111  O         -9.9440   17.8500    7.2050 O.2   261  GLN261     -0.2867
    112  CB        -9.0690   20.2250    9.9470 C.3   261  GLN261      0.0367
    113  CG        -9.9330   21.2560   10.6970 C.3   261  GLN261      0.0905
    114  CD        -9.1040   22.4280   11.2590 C.2   261  GLN261      0.2608
    115  OE1       -7.8540   22.4460   11.1530 O.2   261  GLN261     -0.2717
    116  NE2       -9.8010   23.4130   11.8680 N.am  261  GLN261     -0.0878
    117  N          0.1100   19.9860   20.8910 N.3   288  ASP288     -0.1239
    118  CA        -0.9860   20.8160   21.3590 C.3   288  ASP288      0.1674
    119  C         -1.7310   20.2080   22.5610 C.2   288  ASP288      0.2266
    120  O         -2.9270   20.4070   22.7190 O.2   288  ASP288     -0.2867
    121  CB        -1.9410   21.1160   20.2020 C.3   288  ASP288      0.1410
    122  CG        -2.6660   22.4180   20.3580 C.2   288  ASP288      0.3668
    123  OD1       -2.5030   23.0840   21.4060 O.co2 288  ASP288     -0.2456
    124  OD2       -3.3950   22.7860   19.4130 O.co2 288  ASP288     -0.2456
    125  N         -4.9150   21.4770   24.7550 N.3   291  GLY291     -0.1210
    126  CA        -5.6280   22.4520   23.9530 C.3   291  GLY291      0.1956
    127  C         -6.9490   21.8620   23.5440 C.2   291  GLY291      0.2612
    128  O         -7.1210   20.6460   23.5830 O.2   291  GLY291     -0.2717
    129  N         -7.9010   22.7250   23.2020 N.am  292  CYS292     -0.1956
    130  CA        -9.1010   22.3100   22.4710 C.3   292  CYS292      0.1843
    131  C         -8.8440   22.5920   20.9820 C.2   292  CYS292      0.2625
    132  O         -8.1420   23.5490   20.6400 O.2   292  CYS292     -0.2714
    133  CB       -10.3400   23.0530   22.9690 C.3   292  CYS292      0.0997
    134  SG       -10.4050   24.7800   22.4570 S.3   292  CYS292     -0.0797
    135  N         -9.3890   21.7350   20.1170 N.am  293  LEU293     -0.1964
    136  CA        -9.2700   21.8380   18.6500 C.3   293  LEU293      0.1713
    137  C        -10.6850   22.1030   18.0630 C.2   293  LEU293      0.2458
    138  O        -11.4440   21.1560   17.8320 O.2   293  LEU293     -0.2730
    139  CB        -8.6480   20.5360   18.0900 C.3   293  LEU293      0.0310
    140  CG        -7.3590   20.0060   18.7500 C.3   293  LEU293      0.0022
    141  CD1       -6.8510   18.7660   18.0250 C.3   293  LEU293      0.0001
    142  CD2       -6.2610   21.0590   18.8590 C.3   293  LEU293      0.0001
    143  N        -11.0630   23.4000   17.8690 N.am  294  PRO294     -0.2727
    144  CA       -12.4670   23.7540   17.5130 C.3   294  PRO294      0.1402
    145  C        -12.9440   23.5130   16.0410 C.2   294  PRO294      0.2269
    146  O        -12.1820   23.7090   15.0800 O.2   294  PRO294     -0.2865
    147  CB       -12.5660   25.2390   17.9100 C.3   294  PRO294      0.0296
    148  CG       -11.1670   25.7550   17.8800 C.3   294  PRO294      0.0237
    149  CD       -10.2650   24.6020   18.2060 C.3   294  PRO294      0.0939
@<TRIPOS>BOND
     1   111   110    2
     2   110   109    1
     3    81    82    2
     4    81    80    1
     5    79    80    1
     6   109   108    1
     7   109   112    1
     8    80    83    1
     9    84    83    1
    10    84    85    1
    11   112   113    1
    12    72    71    2
    13   113   114    1
    14    85    86    1
    15   115   114    2
    16    86    87    2
    17   114   116   am
    18    71    70    1
    19   103   104    2
    20   103   102    1
    21    99    97   ar
    22    99   100   ar
    23   101   102    1
    24    87    89    1
    25    87    88    1
    26    97    95   ar
    27   102   105    1
    28    70    73    1
    29    70    69    1
    30   100    98   ar
    31    73    74    1
    32    95    94    1
    33    95    96   ar
    34    94    91    1
    35   105   106    1
    36   105   107    1
    37    98    96   ar
    38    62    61    2
    39    61    60    1
    40    74    76   ar
    41    74    75   ar
    42    93    92    2
    43    90    91    1
    44   146   145    2
    45    91    92    1
    46    76    78   ar
    47    75    77   ar
    48    68    66   ar
    49    68    67   ar
    50    48    49    1
    51    66    64   ar
    52   145   144    1
    53    60    59    1
    54    60    63    1
    55    58    56    1
    56    67    65   ar
    57    64    65   ar
    58    64    63    1
    59    78    77   ar
    60    54    55    1
    61    54    53    1
    62    49    50    1
    63    49    52    1
    64   144   143    1
    65   144   147    1
    66    56    55    2
    67    56    57    1
    68    50    51    2
    69   138   137    2
    70   143   137   am
    71   143   149    1
    72   148   147    1
    73   148   149    1
    74   141   140    1
    75   137   136    1
    76   139   136    1
    77   139   140    1
    78    53    52    1
    79   136   135    1
    80   140   142    1
    81    38    37    1
    82    47    45   ar
    83    36    37   ar
    84    36    34   ar
    85    37    35   ar
    86   124   122   ar
    87    34    32   ar
    88    30    29    2
    89   135   131   am
    90    35    33   ar
    91   121   122    1
    92   121   118    1
    93    45    44    1
    94    45    46   ar
    95   122   123   ar
    96    41    42    2
    97    41    40    1
    98    32    33   ar
    99    32    31    1
   100    18    17    2
   101    44    43    1
   102   132   131    2
   103    40    43    1
   104    40    39    1
   105   117   118    1
   106   131   130    1
   107    29    28    1
   108    31    28    1
   109   118   119    1
   110    25    24    1
   111    28    27    1
   112    17    19   am
   113    17    16    1
   114    26    24    1
   115    14    13    2
   116   134   133    1
   117   130   133    1
   118   130   129    1
   119    24    21    1
   120   119   120    2
   121    15    16    1
   122    15    12    1
   123    21    20    1
   124    21    22    1
   125   129   127   am
   126    13    12    1
   127    10     8   ar
   128    10     9   ar
   129   127   128    2
   130   127   126    1
   131    12    11    1
   132   126   125    1
   133     8     6   ar
   134     9     7   ar
   135    23    22    2
   136     7     6   ar
   137     6     5    1
   138     1     2    1
   139     5     2    1
   140     2     3    1
   141     3     4    2
