@<TRIPOS>MOLECULE
tmp/5xh3A00.pdb
 99 101 0 0 0
SMALL
GASTEIGER

@<TRIPOS>ATOM
      1  N        -18.0800   -7.9770    1.6480 N.3    57  GLY57      -0.1210
      2  CA       -18.7200   -9.1390    2.2720 C.3    57  GLY57       0.1956
      3  C        -19.3440  -10.0860    1.2600 C.2    57  GLY57       0.2612
      4  O        -19.2780   -9.8680    0.0480 O.2    57  GLY57      -0.2717
      5  N        -19.9670  -11.1400    1.7780 N.am   58  TYR58      -0.1962
      6  CA       -20.6360  -12.1500    0.9690 C.3    58  TYR58       0.1771
      7  C        -21.6670  -11.4770    0.0690 C.2    58  TYR58       0.2620
      8  O        -22.4650  -10.6710    0.5390 O.2    58  TYR58      -0.2715
      9  CB       -21.3250  -13.1370    1.9230 C.3    58  TYR58       0.0574
     10  CG       -21.7450  -14.4400    1.2850 C.ar   58  TYR58      -0.0198
     11  CD1      -20.7860  -15.3490    0.8580 C.ar   58  TYR58      -0.0009
     12  CD2      -23.0970  -14.8090    1.2130 C.ar   58  TYR58      -0.0009
     13  CE1      -21.1560  -16.6140    0.4040 C.ar   58  TYR58       0.0417
     14  CE2      -23.4800  -16.0400    0.7210 C.ar   58  TYR58       0.0417
     15  CZ       -22.5010  -16.9530    0.3600 C.ar   58  TYR58       0.1957
     16  OH       -22.8660  -18.2040   -0.0760 O.3    58  TYR58      -0.2866
     17  N        -21.6580  -11.8530   -1.2050 N.am   59  THR59      -0.1937
     18  CA       -22.5210  -11.3030   -2.2800 C.3    59  THR59       0.2028
     19  C        -22.1000   -9.9380   -2.7740 C.2    59  THR59       0.2642
     20  O        -22.6350   -9.4470   -3.7680 O.2    59  THR59      -0.2714
     21  CB       -24.0490  -11.2710   -2.0040 C.3    59  THR59       0.1808
     22  OG1      -24.3680  -10.1220   -1.2050 O.3    59  THR59      -0.2208
     23  CG2      -24.5620  -12.5470   -1.3600 C.3    59  THR59       0.0379
     24  N        -21.2240   -9.2590   -2.0400 N.am   60  ALA60      -0.1977
     25  CA       -21.0380   -7.8170   -2.2580 C.3    60  ALA60       0.1597
     26  C        -19.8500   -7.5150   -3.1780 C.2    60  ALA60       0.2287
     27  O        -18.9940   -8.3820   -3.4380 O.2    60  ALA60      -0.2864
     28  CB       -20.8990   -7.0920   -0.9230 C.3    60  ALA60       0.0319
     29  N        -15.3370   -5.8590    4.9180 N.3   130  TRP130     -0.1227
     30  CA       -16.6580   -5.9560    5.5230 C.3   130  TRP130      0.1737
     31  C        -17.1030   -7.3990    5.6820 C.2   130  TRP130      0.2595
     32  O        -17.0510   -8.1760    4.7210 O.2   130  TRP130     -0.2718
     33  CB       -17.6370   -5.2150    4.6070 C.3   130  TRP130      0.0564
     34  CG       -19.0930   -5.3250    5.0260 C.ar  130  TRP130      0.0003
     35  CD1      -19.5960   -5.3050    6.3090 C.ar  130  TRP130      0.0946
     36  CD2      -20.2110   -5.4440    4.1500 C.ar  130  TRP130      0.0152
     37  NE1      -20.9790   -5.4090    6.2730 N.ar  130  TRP130     -0.2442
     38  CE2      -21.3750   -5.4880    4.9570 C.ar  130  TRP130      0.0810
     39  CE3      -20.3510   -5.4500    2.7510 C.ar  130  TRP130      0.0012
     40  CZ2      -22.6760   -5.5700    4.3950 C.ar  130  TRP130      0.0191
     41  CZ3      -21.6310   -5.5280    2.1990 C.ar  130  TRP130      0.0001
     42  CH2      -22.7770   -5.5810    3.0190 C.ar  130  TRP130      0.0015
     43  N        -17.5190   -7.7790    6.8980 N.am  131  ALA131     -0.1966
     44  CA       -18.2850   -9.0180    7.1090 C.3   131  ALA131      0.1728
     45  C        -17.3570  -10.2010    6.7920 C.2   131  ALA131      0.2616
     46  O        -16.3180  -10.2970    7.4520 O.2   131  ALA131     -0.2715
     47  CB       -19.5750   -9.0050    6.3040 C.3   131  ALA131      0.0334
     48  N        -17.6700  -11.1010    5.8620 N.am  132  MET132     -0.1977
     49  CA       -16.6990  -12.1560    5.5740 C.3   132  MET132      0.1605
     50  C        -15.3630  -11.5500    5.1350 C.2   132  MET132      0.2287
     51  O        -14.3330  -12.2030    5.3060 O.2   132  MET132     -0.2864
     52  CB       -17.2140  -13.1140    4.4940 C.3   132  MET132      0.0413
     53  CG       -18.2510  -14.0850    5.0090 C.3   132  MET132      0.0598
     54  SD       -18.6420  -15.2450    3.6690 S.3   132  MET132     -0.1393
     55  CE       -20.0710  -16.1140    4.3380 C.3   132  MET132      0.0692
     56  N        -17.1150  -11.2330   10.3190 N.3   156  TRP156     -0.1241
     57  CA       -17.5670  -12.5620   10.6460 C.3   156  TRP156      0.1605
     58  C        -16.5490  -13.5600   10.1680 C.2   156  TRP156      0.2264
     59  O        -15.9860  -13.4220    9.0970 O.2   156  TRP156     -0.2867
     60  CB       -18.8970  -12.8490    9.9850 C.3   156  TRP156      0.0550
     61  CG       -19.3700  -14.2410   10.3050 C.ar  156  TRP156      0.0003
     62  CD1      -20.0820  -14.6550   11.4120 C.ar  156  TRP156      0.0946
     63  CD2      -19.0900  -15.4220    9.5300 C.ar  156  TRP156      0.0152
     64  NE1      -20.2410  -16.0230   11.3630 N.ar  156  TRP156     -0.2442
     65  CE2      -19.6380  -16.5150   10.2240 C.ar  156  TRP156      0.0810
     66  CE3      -18.3430  -15.6630    8.3530 C.ar  156  TRP156      0.0012
     67  CZ2      -19.3980  -17.8390    9.8310 C.ar  156  TRP156      0.0191
     68  CZ3      -18.2510  -16.9660    7.8720 C.ar  156  TRP156      0.0001
     69  CH2      -18.7580  -18.0460    8.6280 C.ar  156  TRP156      0.0015
     70  N        -27.0310  -10.0950   10.6780 N.3   179  ILE179     -0.1231
     71  CA       -26.3420  -11.0290    9.7870 C.3   179  ILE179      0.1692
     72  C        -25.1010  -11.6040   10.4680 C.2   179  ILE179      0.2592
     73  O        -24.8710  -12.8220   10.4270 O.2   179  ILE179     -0.2718
     74  CB       -25.9140  -10.3190    8.5060 C.3   179  ILE179      0.0266
     75  CG1      -27.1330   -9.7560    7.7760 C.3   179  ILE179      0.0019
     76  CG2      -25.0410  -11.2120    7.6350 C.3   179  ILE179      0.0020
     77  CD1      -27.8920  -10.8230    7.0620 C.3   179  ILE179      0.0001
     78  N        -24.3190  -10.7240   11.1100 N.am  180  ALA180     -0.1966
     79  CA       -23.1870  -11.1420   11.9250 C.3   180  ALA180      0.1713
     80  C        -23.3300  -10.5160   13.3040 C.2   180  ALA180      0.2458
     81  O        -22.7430   -9.4720   13.5790 O.2   180  ALA180     -0.2730
     82  CB       -21.8690  -10.7280   11.2510 C.3   180  ALA180      0.0333
     83  N        -24.2480  -11.0560   14.1170 N.am  181  PRO181     -0.2727
     84  CA       -24.5820  -10.4030   15.3830 C.3   181  PRO181      0.1402
     85  C        -23.3320  -10.1030   16.1940 C.2   181  PRO181      0.2269
     86  O        -22.4370  -10.9540   16.3180 O.2   181  PRO181     -0.2865
     87  CB       -25.4700  -11.4460   16.0810 C.3   181  PRO181      0.0296
     88  CG       -26.1370  -12.1650   14.9470 C.3   181  PRO181      0.0237
     89  CD       -25.0530  -12.2780   13.9070 C.3   181  PRO181      0.0939
     90  N        -26.1850   -4.2610    9.5480 N.3   208  HIS208     -0.1241
     91  CA       -24.9530   -4.9080    9.0850 C.3   208  HIS208      0.1621
     92  C        -24.1230   -4.0240    8.1350 C.2   208  HIS208      0.2264
     93  O        -22.9020   -4.2050    8.0530 O.2   208  HIS208     -0.2867
     94  CB       -25.3500   -6.2100    8.3990 C.3   208  HIS208      0.0745
     95  CG       -24.2000   -7.0700    7.9660 C.ar  208  HIS208      0.0817
     96  ND1      -23.1940   -7.4930    8.8140 N.ar  208  HIS208     -0.2268
     97  CD2      -23.9890   -7.6910    6.7900 C.ar  208  HIS208      0.1154
     98  CE1      -22.4060   -8.3380    8.1620 C.ar  208  HIS208      0.1986
     99  NE2      -22.8400   -8.4340    6.9110 N.ar  208  HIS208     -0.2212
@<TRIPOS>BOND
     1    20    19    2
     2    27    26    2
     3    26    25    1
     4    19    18    1
     5    19    24   am
     6    18    21    1
     7    18    17    1
     8    25    24    1
     9    25    28    1
    10    21    23    1
    11    21    22    1
    12    17     7   am
    13    16    15    1
    14     4     3    2
    15     7     8    2
    16     7     6    1
    17    15    13   ar
    18    15    14   ar
    19    13    11   ar
    20    14    12   ar
    21    11    10   ar
    22     6     5    1
    23     6     9    1
    24    12    10   ar
    25     3     5   am
    26     3     2    1
    27    10     9    1
    28     1     2    1
    29    41    39   ar
    30    41    42   ar
    31    39    36   ar
    32    42    40   ar
    33    54    55    1
    34    54    53    1
    35    36    38   ar
    36    36    34   ar
    37    40    38   ar
    38    52    53    1
    39    52    49    1
    40    33    34    1
    41    33    30    1
    42    32    31    2
    43    29    30    1
    44    38    37   ar
    45    34    35   ar
    46    50    51    2
    47    50    49    1
    48    30    31    1
    49    49    48    1
    50    31    43   am
    51    48    45   am
    52    37    35   ar
    53    47    44    1
    54    97    99   ar
    55    97    95   ar
    56    45    44    1
    57    45    46    2
    58    43    44    1
    59    99    98   ar
    60    77    75    1
    61    76    74    1
    62    75    74    1
    63    68    66   ar
    64    68    69   ar
    65    95    94    1
    66    95    96   ar
    67    93    92    2
    68    92    91    1
    69    98    96   ar
    70    66    63   ar
    71    94    91    1
    72    74    71    1
    73    69    67   ar
    74    91    90    1
    75    59    58    2
    76    63    65   ar
    77    63    61   ar
    78    71    72    1
    79    71    70    1
    80    67    65   ar
    81    60    61    1
    82    60    57    1
    83    58    57    1
    84    65    64   ar
    85    61    62   ar
    86    56    57    1
    87    73    72    2
    88    72    78   am
    89    78    79    1
    90    82    79    1
    91    64    62   ar
    92    79    80    1
    93    80    81    2
    94    80    83   am
    95    89    83    1
    96    89    88    1
    97    83    84    1
    98    88    87    1
    99    84    87    1
   100    84    85    1
   101    85    86    2
