@<TRIPOS>MOLECULE
tmp/5xhaA03.pdb
 92 87 0 0 0
SMALL
GASTEIGER

@<TRIPOS>ATOM
      1  N        -30.8910   21.3820  -14.8490 N.3   416  ILE416     -0.1231
      2  CA       -31.4440   22.6690  -15.2730 C.3   416  ILE416      0.1692
      3  C        -31.9890   23.3530  -14.0210 C.2   416  ILE416      0.2593
      4  O        -32.9250   22.8560  -13.3990 O.2   416  ILE416     -0.2718
      5  CB       -32.6220   22.4800  -16.2680 C.3   416  ILE416      0.0266
      6  CG1      -32.1790   21.7010  -17.5060 C.3   416  ILE416      0.0019
      7  CG2      -33.2060   23.8220  -16.7100 C.3   416  ILE416      0.0020
      8  CD1      -33.3380   21.1420  -18.2930 C.3   416  ILE416      0.0001
      9  N        -31.4160   24.4920  -13.6490 N.am  417  SER417     -0.1938
     10  CA       -31.9170   25.2450  -12.5100 C.3   417  SER417      0.2055
     11  C        -31.8190   26.7520  -12.7520 C.2   417  SER417      0.2642
     12  O        -31.1000   27.2100  -13.6420 O.2   417  SER417     -0.2714
     13  CB       -31.1460   24.8590  -11.2590 C.3   417  SER417      0.2130
     14  OG       -29.8020   25.1700  -11.4500 O.3   417  SER417     -0.2179
     15  N        -32.5640   27.5180  -11.9610 N.am  418  ILE418     -0.1977
     16  CA       -32.5510   28.9520  -12.0720 C.3   418  ILE418      0.1596
     17  C        -31.1680   29.4000  -11.6420 C.2   418  ILE418      0.2287
     18  O        -30.6500   28.9050  -10.6560 O.2   418  ILE418     -0.2864
     19  CB       -33.6100   29.5860  -11.1610 C.3   418  ILE418      0.0276
     20  CG1      -35.0000   29.0490  -11.5140 C.3   418  ILE418      0.0022
     21  CG2      -33.5580   31.1080  -11.2680 C.3   418  ILE418      0.0022
     22  CD1      -36.0840   29.4970  -10.5650 C.3   418  ILE418      0.0001
     23  N        -32.2370   33.3440   -8.5530 N.3   423  LYS423     -0.1245
     24  CA       -33.0830   32.6080   -7.6030 C.3   423  LYS423      0.1561
     25  C        -33.1800   33.3170   -6.2480 C.2   423  LYS423      0.2260
     26  O        -34.2810   33.5010   -5.7260 O.2   423  LYS423     -0.2867
     27  CB       -32.5610   31.1890   -7.4000 C.3   423  LYS423      0.0271
     28  CG       -33.4040   30.3470   -6.4520 C.3   423  LYS423      0.0035
     29  CD       -34.7390   29.9990   -7.0810 C.3   423  LYS423      0.0206
     30  CE       -35.7310   29.4270   -6.0720 C.3   423  LYS423      0.1093
     31  NZ       -35.2130   28.1970   -5.4160 N.3   423  LYS423     -0.1314
     32  N        -42.9500   26.9160   -3.7690 N.3   459  SER459     -0.1217
     33  CA       -42.1400   25.6790   -3.7180 C.3   459  SER459      0.1889
     34  C        -42.8470   24.6150   -2.8930 C.2   459  SER459      0.2288
     35  O        -43.4000   24.9200   -1.8420 O.2   459  SER459     -0.2866
     36  CB       -40.7860   25.9450   -3.0710 C.3   459  SER459      0.2089
     37  OG       -40.3060   27.1810   -3.5080 O.3   459  SER459     -0.2183
     38  N        -40.3070   17.4700   -6.5810 N.3   541  ASP541     -0.1239
     39  CA       -39.8160   18.7210   -6.0230 C.3   541  ASP541      0.1674
     40  C        -40.0880   19.8620   -7.0000 C.2   541  ASP541      0.2266
     41  O        -39.4020   20.0050   -8.0050 O.2   541  ASP541     -0.2867
     42  CB       -38.3090   18.5990   -5.7520 C.3   541  ASP541      0.1410
     43  CG       -37.7570   19.7770   -4.9790 C.2   541  ASP541      0.3668
     44  OD1      -38.5370   20.5420   -4.3910 O.co2 541  ASP541     -0.2456
     45  OD2      -36.5320   19.9420   -4.9480 O.co2 541  ASP541     -0.2456
     46  N        -40.9310   23.8620   -8.2450 N.3   543  THR543     -0.1218
     47  CA       -40.8160   25.3140   -8.0830 C.3   543  THR543      0.1862
     48  C        -41.6260   26.0060   -9.1830 C.2   543  THR543      0.2287
     49  O        -41.3810   25.7950  -10.3660 O.2   543  THR543     -0.2866
     50  CB       -39.3530   25.7930   -8.1410 C.3   543  THR543      0.1770
     51  OG1      -38.5280   24.9420   -7.3520 O.3   543  THR543     -0.2211
     52  CG2      -39.2220   27.2010   -7.6120 C.3   543  THR543      0.0375
     53  N        -40.4520   24.4380  -12.7210 N.3   554  TYR554     -0.1227
     54  CA       -39.2710   23.6120  -12.5520 C.3   554  TYR554      0.1736
     55  C        -39.5820   22.3930  -11.6850 C.2   554  TYR554      0.2595
     56  O        -40.4110   22.4760  -10.7590 O.2   554  TYR554     -0.2718
     57  CB       -38.1720   24.4260  -11.8690 C.3   554  TYR554      0.0548
     58  CG       -37.6610   25.6070  -12.6820 C.ar  554  TYR554     -0.0200
     59  CD1      -38.3480   26.8140  -12.7040 C.ar  554  TYR554     -0.0009
     60  CD2      -36.4950   25.5040  -13.4240 C.ar  554  TYR554     -0.0009
     61  CE1      -37.8870   27.8930  -13.4360 C.ar  554  TYR554      0.0417
     62  CE2      -36.0150   26.5790  -14.1700 C.ar  554  TYR554      0.0417
     63  CZ       -36.7110   27.7750  -14.1760 C.ar  554  TYR554      0.1957
     64  OH       -36.2330   28.8380  -14.9140 O.3   554  TYR554     -0.2866
     65  N        -38.9060   21.2760  -11.9630 N.am  555  ALA555     -0.1966
     66  CA       -39.0320   20.0660  -11.1240 C.3   555  ALA555      0.1728
     67  C        -37.7540   19.2550  -11.0790 C.2   555  ALA555      0.2616
     68  O        -37.1510   18.9790  -12.1250 O.2   555  ALA555     -0.2715
     69  CB       -40.1790   19.1920  -11.6020 C.3   555  ALA555      0.0334
     70  N        -37.3220   18.9140   -9.8560 N.am  556  ASN556     -0.1958
     71  CA       -36.3220   17.8710   -9.6150 C.3   556  ASN556      0.1819
     72  C        -34.9460   18.1900  -10.2210 C.2   556  ASN556      0.2621
     73  O        -34.1570   17.2830  -10.5100 O.2   556  ASN556     -0.2715
     74  CB       -36.8320   16.4960  -10.1280 C.3   556  ASN556      0.1195
     75  CG       -37.9620   15.9080   -9.2770 C.2   556  ASN556      0.2630
     76  OD1      -37.8780   14.7710   -8.7830 O.2   556  ASN556     -0.2716
     77  ND2      -39.0320   16.6510   -9.1390 N.am  556  ASN556     -0.0877
     78  N        -34.6550   19.4770  -10.4040 N.am  557  GLY557     -0.1954
     79  CA       -33.3870   19.9290  -10.9760 C.3   557  GLY557      0.1869
     80  C        -33.1410   19.5170  -12.4150 C.2   557  GLY557      0.2309
     81  O        -32.0270   19.6490  -12.9080 O.2   557  GLY557     -0.2863
     82  N        -36.0180   19.6040  -15.0340 N.3   559  PHE559     -0.1241
     83  CA       -37.2160   19.7690  -15.8280 C.3   559  PHE559      0.1605
     84  C        -37.6590   21.2130  -15.7760 C.2   559  PHE559      0.2264
     85  O        -37.6200   21.8270  -14.7220 O.2   559  PHE559     -0.2867
     86  CB       -38.3190   18.8600  -15.2890 C.3   559  PHE559      0.0534
     87  CG       -39.6480   19.0520  -15.9470 C.ar  559  PHE559     -0.0203
     88  CD1      -40.5280   20.0230  -15.4910 C.ar  559  PHE559     -0.0042
     89  CD2      -40.0310   18.2490  -17.0050 C.ar  559  PHE559     -0.0042
     90  CE1      -41.7500   20.2050  -16.0840 C.ar  559  PHE559     -0.0003
     91  CE2      -41.2630   18.4140  -17.5930 C.ar  559  PHE559     -0.0003
     92  CZ       -42.1300   19.3880  -17.1260 C.ar  559  PHE559     -0.0000
@<TRIPOS>BOND
     1     8     6    1
     2    91    92   ar
     3    91    89   ar
     4     6     5    1
     5    92    90   ar
     6    89    87   ar
     7     7     5    1
     8     5     2    1
     9    90    88   ar
    10    87    88   ar
    11    87    86    1
    12    83    84    1
    13    83    86    1
    14    83    82    1
    15    84    85    2
    16     2     1    1
    17     2     3    1
    18    64    63    1
    19    63    62   ar
    20    63    61   ar
    21    62    60   ar
    22     3     9   am
    23     3     4    2
    24     9    10    1
    25    12    11    2
    26    61    59   ar
    27    60    58   ar
    28    81    80    2
    29    11    10    1
    30    11    15   am
    31    53    54    1
    32    59    58   ar
    33    58    57    1
    34    54    57    1
    35    54    55    1
    36    10    13    1
    37    80    79    1
    38    68    67    2
    39    16    15    1
    40    16    17    1
    41    16    19    1
    42    65    55   am
    43    65    66    1
    44    55    56    2
    45    17    18    2
    46    69    66    1
    47    20    19    1
    48    20    22    1
    49    14    13    1
    50    21    19    1
    51    66    67    1
    52    67    70   am
    53    79    78    1
    54    73    72    2
    55    78    72   am
    56    49    48    2
    57    72    71    1
    58    74    71    1
    59    74    75    1
    60    70    71    1
    61    75    77   am
    62    75    76    2
    63    48    47    1
    64    23    24    1
    65    46    47    1
    66    50    47    1
    67    50    52    1
    68    50    51    1
    69    41    40    2
    70    24    27    1
    71    24    25    1
    72    27    28    1
    73    29    28    1
    74    29    30    1
    75    40    39    1
    76    38    39    1
    77    25    26    2
    78    30    31    1
    79    39    42    1
    80    42    43    1
    81    43    45   ar
    82    43    44   ar
    83    32    33    1
    84    33    36    1
    85    33    34    1
    86    37    36    1
    87    34    35    2
