@<TRIPOS>MOLECULE
tmp/5xhaA02.pdb
 83 80 0 0 0
SMALL
GASTEIGER

@<TRIPOS>ATOM
      1  N        -37.0740   26.0060  -44.3340 N.3   125  TRP125     -0.1227
      2  CA       -36.6660   24.6340  -44.6400 C.3   125  TRP125      0.1737
      3  C        -37.6000   23.9480  -45.6640 C.2   125  TRP125      0.2596
      4  O        -37.1750   23.0760  -46.3820 O.2   125  TRP125     -0.2718
      5  CB       -36.5600   23.7870  -43.3580 C.3   125  TRP125      0.0564
      6  CG       -37.8550   23.6530  -42.6170 C.ar  125  TRP125      0.0003
      7  CD1      -38.2680   24.3890  -41.5520 C.ar  125  TRP125      0.0946
      8  CD2      -38.9180   22.7340  -42.9080 C.ar  125  TRP125      0.0152
      9  NE1      -39.5120   23.9800  -41.1470 N.ar  125  TRP125     -0.2442
     10  CE2      -39.9380   22.9660  -41.9650 C.ar  125  TRP125      0.0810
     11  CE3      -39.0980   21.7290  -43.8720 C.ar  125  TRP125      0.0012
     12  CZ2      -41.1280   22.2430  -41.9580 C.ar  125  TRP125      0.0191
     13  CZ3      -40.2760   21.0030  -43.8630 C.ar  125  TRP125      0.0001
     14  CH2      -41.2830   21.2680  -42.9150 C.ar  125  TRP125      0.0015
     15  N        -38.8630   24.3660  -45.7180 N.am  126  SER126     -0.1952
     16  CA       -39.8880   23.6890  -46.5090 C.3   126  SER126      0.1924
     17  C        -39.9360   24.1010  -47.9680 C.2   126  SER126      0.2314
     18  O        -40.7230   23.5440  -48.7140 O.2   126  SER126     -0.2863
     19  CB       -41.2700   23.9790  -45.9060 C.3   126  SER126      0.2116
     20  OG       -41.6190   25.3640  -46.0090 O.3   126  SER126     -0.2180
     21  N        -31.1180   23.4520  -46.2010 N.3   167  THR167     -0.1218
     22  CA       -32.4310   23.9240  -45.7600 C.3   167  THR167      0.1862
     23  C        -32.3260   25.2830  -45.0730 C.2   167  THR167      0.2287
     24  O        -33.2770   26.0550  -45.0720 O.2   167  THR167     -0.2866
     25  CB       -33.0320   22.9710  -44.7180 C.3   167  THR167      0.1770
     26  OG1      -32.0180   22.5880  -43.7890 O.3   167  THR167     -0.2211
     27  CG2      -33.6100   21.7400  -45.3820 C.3   167  THR167      0.0375
     28  N        -29.7340   19.6870  -44.7010 N.3   199  LEU199     -0.1231
     29  CA       -29.7100   19.5040  -46.1550 C.3   199  LEU199      0.1693
     30  C        -31.0350   18.9130  -46.6350 C.2   199  LEU199      0.2592
     31  O        -31.5710   18.0070  -46.0180 O.2   199  LEU199     -0.2718
     32  CB       -28.5590   18.5760  -46.5480 C.3   199  LEU199      0.0284
     33  CG       -27.1670   19.0690  -46.1960 C.3   199  LEU199      0.0019
     34  CD1      -26.1410   17.9760  -46.4730 C.3   199  LEU199      0.0001
     35  CD2      -26.8450   20.3160  -46.9980 C.3   199  LEU199      0.0001
     36  N        -31.5580   19.4480  -47.7290 N.am  200  HIS200     -0.1962
     37  CA       -32.7620   18.9250  -48.3690 C.3   200  HIS200      0.1787
     38  C        -32.5510   17.4450  -48.7330 C.2   200  HIS200      0.2620
     39  O        -31.4570   17.0530  -49.1580 O.2   200  HIS200     -0.2715
     40  CB       -33.0960   19.7430  -49.6330 C.3   200  HIS200      0.0785
     41  CG       -33.6430   21.1060  -49.3450 C.ar  200  HIS200      0.0821
     42  ND1      -34.9820   21.3380  -49.1200 N.ar  200  HIS200     -0.2267
     43  CD2      -33.0340   22.3120  -49.2430 C.ar  200  HIS200      0.1154
     44  CE1      -35.1740   22.6230  -48.8850 C.ar  200  HIS200      0.1986
     45  NE2      -34.0080   23.2370  -48.9480 N.ar  200  HIS200     -0.2212
     46  N        -33.5810   16.6310  -48.5320 N.am  201  GLU201     -0.1977
     47  CA       -33.5330   15.1800  -48.8490 C.3   201  GLU201      0.1602
     48  C        -32.5090   14.4180  -48.0340 C.2   201  GLU201      0.2287
     49  O        -32.1310   13.3320  -48.4160 O.2   201  GLU201     -0.2864
     50  CB       -33.1940   14.9080  -50.3330 C.3   201  GLU201      0.0415
     51  CG       -33.7240   15.8960  -51.3520 C.3   201  GLU201      0.1163
     52  CD       -35.1970   16.1090  -51.2150 C.2   201  GLU201      0.3649
     53  OE1      -35.8840   15.1380  -50.8330 O.co2 201  GLU201     -0.2457
     54  OE2      -35.6580   17.2460  -51.4700 O.co2 201  GLU201     -0.2457
     55  N        -31.4870   15.6640  -44.1460 N.3   203  GLY203     -0.1225
     56  CA       -31.9750   15.9440  -42.8020 C.3   203  GLY203      0.1811
     57  C        -31.2060   17.0290  -42.0860 C.2   203  GLY203      0.2280
     58  O        -30.2560   17.5950  -42.6340 O.2   203  GLY203     -0.2866
     59  N        -33.9120   13.2180  -41.9260 N.3   230  THR230     -0.1218
     60  CA       -35.0890   14.0700  -41.9110 C.3   230  THR230      0.1862
     61  C        -36.1950   13.5150  -41.0200 C.2   230  THR230      0.2287
     62  O        -36.6490   12.3980  -41.2070 O.2   230  THR230     -0.2866
     63  CB       -35.6460   14.2300  -43.3280 C.3   230  THR230      0.1770
     64  OG1      -34.5720   14.5880  -44.2110 O.3   230  THR230     -0.2211
     65  CG2      -36.7060   15.2830  -43.3690 C.3   230  THR230      0.0375
     66  N        -37.1500   18.6920  -39.2060 N.3   245  PHE245     -0.1241
     67  CA       -36.7730   19.0270  -40.5640 C.3   245  PHE245      0.1605
     68  C        -35.6220   20.0160  -40.6590 C.2   245  PHE245      0.2264
     69  O        -35.0780   20.2250  -41.7400 O.2   245  PHE245     -0.2867
     70  CB       -37.9980   19.5640  -41.2780 C.3   245  PHE245      0.0534
     71  CG       -39.0790   18.5370  -41.4650 C.ar  245  PHE245     -0.0203
     72  CD1      -39.1090   17.7390  -42.6050 C.ar  245  PHE245     -0.0042
     73  CD2      -40.0670   18.3710  -40.5180 C.ar  245  PHE245     -0.0042
     74  CE1      -40.1190   16.7970  -42.7960 C.ar  245  PHE245     -0.0003
     75  CE2      -41.0710   17.4250  -40.6960 C.ar  245  PHE245     -0.0003
     76  CZ       -41.1000   16.6410  -41.8360 C.ar  245  PHE245     -0.0000
     77  N        -46.4580   18.7310  -45.4040 N.3   279  VAL279     -0.1245
     78  CA       -45.8660   19.9960  -45.0170 C.3   279  VAL279      0.1561
     79  C        -46.7370   21.1530  -45.5370 C.2   279  VAL279      0.2260
     80  O        -47.1580   21.1370  -46.6800 O.2   279  VAL279     -0.2867
     81  CB       -44.4320   20.1040  -45.5960 C.3   279  VAL279      0.0252
     82  CG1      -43.8320   21.4720  -45.3120 C.3   279  VAL279      0.0019
     83  CG2      -43.5430   18.9950  -45.0360 C.3   279  VAL279      0.0019
@<TRIPOS>BOND
     1    54    52   ar
     2    51    52    1
     3    51    50    1
     4    52    53   ar
     5    50    47    1
     6    40    41    1
     7    40    37    1
     8    41    43   ar
     9    41    42   ar
    10    43    45   ar
    11    39    38    2
    12    42    44   ar
    13    45    44   ar
    14    47    46    1
    15    47    48    1
    16    38    46   am
    17    38    37    1
    18    18    17    2
    19    49    48    2
    20    37    36    1
    21    17    16    1
    22    36    30   am
    23    35    33    1
    24    80    79    2
    25    30    29    1
    26    30    31    2
    27    32    33    1
    28    32    29    1
    29    16    19    1
    30    16    15    1
    31    34    33    1
    32     4     3    2
    33    21    22    1
    34    29    28    1
    35    20    19    1
    36    22    23    1
    37    22    25    1
    38    15     3   am
    39     3     2    1
    40    81    82    1
    41    81    83    1
    42    81    78    1
    43    79    78    1
    44    77    78    1
    45    27    25    1
    46    23    24    2
    47    25    26    1
    48     2     1    1
    49     2     5    1
    50    64    63    1
    51    55    56    1
    52    11    13   ar
    53    11     8   ar
    54    13    14   ar
    55    65    63    1
    56     5     6    1
    57    63    60    1
    58    14    12   ar
    59     8     6   ar
    60     8    10   ar
    61    56    57    1
    62    74    72   ar
    63    74    76   ar
    64    58    57    2
    65     6     7   ar
    66    72    71   ar
    67    10    12   ar
    68    10     9   ar
    69    59    60    1
    70    60    61    1
    71    76    75   ar
    72    69    68    2
    73     7     9   ar
    74    71    70    1
    75    71    73   ar
    76    70    67    1
    77    62    61    2
    78    75    73   ar
    79    68    67    1
    80    67    66    1
