@<TRIPOS>MOLECULE
tmp/5xhaA01.pdb
 122 119 0 0 0
SMALL
GASTEIGER

@<TRIPOS>ATOM
      1  N        -35.0720   35.7290  -30.8150 N.3    41  ASP41      -0.1239
      2  CA       -34.0220   34.8450  -30.2980 C.3    41  ASP41       0.1674
      3  C        -33.0180   35.6050  -29.4470 C.2    41  ASP41       0.2266
      4  O        -32.4920   36.6400  -29.8870 O.2    41  ASP41      -0.2867
      5  CB       -33.1570   34.2830  -31.4470 C.3    41  ASP41       0.1410
      6  CG       -33.8510   33.2660  -32.2810 C.2    41  ASP41       0.3668
      7  OD1      -35.1120   33.1850  -32.2740 O.co2  41  ASP41      -0.2456
      8  OD2      -33.0950   32.5560  -32.9830 O.co2  41  ASP41      -0.2456
      9  N        -32.5180   39.3640  -30.5660 N.3    59  LEU59      -0.1245
     10  CA       -33.1570   40.0030  -31.7070 C.3    59  LEU59       0.1561
     11  C        -34.2960   40.8980  -31.1850 C.2    59  LEU59       0.2260
     12  O        -34.9820   40.5420  -30.2270 O.2    59  LEU59      -0.2867
     13  CB       -33.6960   38.9610  -32.7050 C.3    59  LEU59       0.0270
     14  CG       -32.6950   38.0150  -33.3860 C.3    59  LEU59       0.0019
     15  CD1      -33.3440   37.2730  -34.5390 C.3    59  LEU59       0.0001
     16  CD2      -31.4910   38.7610  -33.8950 C.3    59  LEU59       0.0001
     17  N        -29.6120   38.0890  -38.6190 N.3    98  PHE98      -0.1227
     18  CA       -30.0340   36.9640  -37.8060 C.3    98  PHE98       0.1736
     19  C        -28.9950   36.7440  -36.6670 C.2    98  PHE98       0.2595
     20  O        -28.0710   37.5420  -36.5000 O.2    98  PHE98      -0.2718
     21  CB       -30.1940   35.7130  -38.6860 C.3    98  PHE98       0.0547
     22  CG       -31.4150   35.6930  -39.5960 C.ar   98  PHE98      -0.0202
     23  CD1      -32.3910   36.6850  -39.5820 C.ar   98  PHE98      -0.0042
     24  CD2      -31.6000   34.6170  -40.4540 C.ar   98  PHE98      -0.0042
     25  CE1      -33.5030   36.6160  -40.4250 C.ar   98  PHE98      -0.0003
     26  CE2      -32.7020   34.5490  -41.2960 C.ar   98  PHE98      -0.0003
     27  CZ       -33.6690   35.5480  -41.2690 C.ar   98  PHE98      -0.0000
     28  N        -29.1570   35.6730  -35.8920 N.am   99  ASP99      -0.1974
     29  CA       -28.3450   35.4210  -34.7080 C.3    99  ASP99       0.1709
     30  C        -26.8420   35.4320  -34.9930 C.2    99  ASP99       0.2293
     31  O        -26.3890   35.0440  -36.0660 O.2    99  ASP99      -0.2864
     32  CB       -28.6760   34.0650  -34.0750 C.3    99  ASP99       0.1436
     33  CG       -30.1170   33.9470  -33.6210 C.2    99  ASP99       0.3671
     34  OD1      -30.7990   34.9850  -33.5300 O.co2  99  ASP99      -0.2456
     35  OD2      -30.5620   32.8070  -33.3520 O.co2  99  ASP99      -0.2456
     36  N        -27.3730   29.1660  -40.7170 N.3   170  ARG170     -0.1231
     37  CA       -27.3700   30.3340  -39.8450 C.3   170  ARG170      0.1694
     38  C        -27.0530   30.0500  -38.3850 C.2   170  ARG170      0.2592
     39  O        -26.9350   28.8890  -37.9740 O.2   170  ARG170     -0.2718
     40  CB       -28.7270   31.0340  -39.9160 C.3   170  ARG170      0.0321
     41  CG       -29.9250   30.1560  -39.6280 C.3   170  ARG170      0.0489
     42  CD       -31.2300   30.9730  -39.5910 C.3   170  ARG170      0.2205
     43  NE       -32.4060   30.1090  -39.4580 N.pl3 170  ARG170     -0.0865
     44  CZ       -33.0600   29.5190  -40.4600 C.cat 170  ARG170      0.5346
     45  NH1      -32.6960   29.7190  -41.7210 N.pl3 170  ARG170      0.1354
     46  NH2      -34.1060   28.7120  -40.1940 N.pl3 170  ARG170      0.1354
     47  N        -26.9480   31.1380  -37.6160 N.am  171  ASP171     -0.1974
     48  CA       -26.8070   31.1060  -36.1410 C.3   171  ASP171      0.1709
     49  C        -25.4520   30.5690  -35.7060 C.2   171  ASP171      0.2293
     50  O        -25.3750   29.6680  -34.8530 O.2   171  ASP171     -0.2864
     51  CB       -27.9260   30.3030  -35.4680 C.3   171  ASP171      0.1436
     52  CG       -29.3110   30.6880  -35.9570 C.2   171  ASP171      0.3671
     53  OD1      -29.4890   31.8380  -36.4330 O.co2 171  ASP171     -0.2456
     54  OD2      -30.2120   29.8240  -35.8680 O.co2 171  ASP171     -0.2456
     55  N        -31.9170   24.7220  -35.6060 N.3   248  GLU248     -0.1231
     56  CA       -31.6210   26.1360  -35.3980 C.3   248  GLU248      0.1699
     57  C        -30.8810   26.3210  -34.0750 C.2   248  GLU248      0.2592
     58  O        -30.9130   25.4480  -33.2000 O.2   248  GLU248     -0.2718
     59  CB       -32.9200   26.9570  -35.3940 C.3   248  GLU248      0.0402
     60  CG       -33.7130   26.8240  -36.6850 C.3   248  GLU248      0.1161
     61  CD       -34.8750   27.7750  -36.7580 C.2   248  GLU248      0.3649
     62  OE1      -35.8440   27.5930  -35.9920 O.co2 248  GLU248     -0.2457
     63  OE2      -34.8050   28.7020  -37.5930 O.co2 248  GLU248     -0.2457
     64  N        -30.2270   27.4750  -33.9490 N.am  249  THR249     -0.1953
     65  CA       -29.6460   27.9600  -32.7000 C.3   249  THR249      0.1897
     66  C        -28.7910   26.9660  -31.9260 C.2   249  THR249      0.2313
     67  O        -28.8410   26.9170  -30.6870 O.2   249  THR249     -0.2863
     68  CB       -30.7250   28.5820  -31.7700 C.3   249  THR249      0.1794
     69  OG1      -31.6430   27.5790  -31.3030 O.3   249  THR249     -0.2208
     70  CG2      -31.4840   29.6590  -32.5160 C.3   249  THR249      0.0378
     71  N        -42.0900   23.8300  -32.5830 N.3   287  HIS287     -0.1241
     72  CA       -40.8040   24.4260  -32.2320 C.3   287  HIS287      0.1621
     73  C        -40.2550   23.7710  -30.9620 C.2   287  HIS287      0.2264
     74  O        -40.5890   24.1990  -29.8560 O.2   287  HIS287     -0.2867
     75  CB       -40.9760   25.9310  -32.0200 C.3   287  HIS287      0.0745
     76  CG       -41.2080   26.7090  -33.2860 C.ar  287  HIS287      0.0817
     77  ND1      -42.4320   26.7670  -33.9100 N.ar  287  HIS287     -0.2268
     78  CD2      -40.3750   27.4790  -34.0290 C.ar  287  HIS287      0.1154
     79  CE1      -42.3490   27.5420  -34.9770 C.ar  287  HIS287      0.1986
     80  NE2      -41.1070   27.9690  -35.0820 N.ar  287  HIS287     -0.2212
     81  N        -38.2580   28.2320  -27.1400 N.3   319  TYR319     -0.1227
     82  CA       -37.4480   27.9510  -28.3020 C.3   319  TYR319      0.1736
     83  C        -36.1240   28.7280  -28.2670 C.2   319  TYR319      0.2595
     84  O        -35.9170   29.5760  -27.4040 O.2   319  TYR319     -0.2718
     85  CB       -38.2480   28.3300  -29.5660 C.3   319  TYR319      0.0548
     86  CG       -37.7420   27.6730  -30.8160 C.ar  319  TYR319     -0.0200
     87  CD1      -37.6440   26.2920  -30.8920 C.ar  319  TYR319     -0.0009
     88  CD2      -37.3600   28.4260  -31.9360 C.ar  319  TYR319     -0.0009
     89  CE1      -37.1850   25.6760  -32.0310 C.ar  319  TYR319      0.0417
     90  CE2      -36.8650   27.8080  -33.0770 C.ar  319  TYR319      0.0417
     91  CZ       -36.7900   26.4240  -33.1170 C.ar  319  TYR319      0.1957
     92  OH       -36.3270   25.7490  -34.2300 O.3   319  TYR319     -0.2866
     93  N        -35.2310   28.3980  -29.2010 N.am  320  ALA320     -0.1980
     94  CA       -34.1210   29.2640  -29.6080 C.3   320  ALA320      0.1597
     95  C        -33.1650   29.6870  -28.5150 C.2   320  ALA320      0.2287
     96  O        -32.6240   30.7800  -28.5630 O.2   320  ALA320     -0.2864
     97  CB       -34.6550   30.4990  -30.3310 C.3   320  ALA320      0.0319
     98  N        -35.9170   31.5350  -25.1650 N.3   347  TRP347     -0.1241
     99  CA       -36.8890   32.4930  -25.7070 C.3   347  TRP347      0.1605
    100  C        -38.2880   31.9610  -25.4620 C.2   347  TRP347      0.2264
    101  O        -38.5660   30.7770  -25.7040 O.2   347  TRP347     -0.2867
    102  CB       -36.6720   32.6490  -27.2160 C.3   347  TRP347      0.0550
    103  CG       -37.5700   33.6200  -27.9280 C.ar  347  TRP347      0.0003
    104  CD1      -37.9530   34.8560  -27.5000 C.ar  347  TRP347      0.0946
    105  CD2      -38.1500   33.4470  -29.2210 C.ar  347  TRP347      0.0152
    106  NE1      -38.7550   35.4570  -28.4360 N.ar  347  TRP347     -0.2442
    107  CE2      -38.8970   34.6100  -29.5040 C.ar  347  TRP347      0.0810
    108  CE3      -38.1370   32.4140  -30.1560 C.ar  347  TRP347      0.0012
    109  CZ2      -39.6060   34.7740  -30.6940 C.ar  347  TRP347      0.0191
    110  CZ3      -38.8350   32.5830  -31.3510 C.ar  347  TRP347      0.0001
    111  CH2      -39.5560   33.7560  -31.6070 C.ar  347  TRP347      0.0015
    112  N        -45.0010   32.2500  -32.3330 N.3   353  PHE353     -0.1241
    113  CA       -44.1380   32.3600  -33.5140 C.3   353  PHE353      0.1605
    114  C        -44.8960   33.0100  -34.6880 C.2   353  PHE353      0.2264
    115  O        -44.8120   32.5560  -35.8210 O.2   353  PHE353     -0.2867
    116  CB       -43.5850   30.9750  -33.8850 C.3   353  PHE353      0.0534
    117  CG       -43.0200   30.2210  -32.7070 C.ar  353  PHE353     -0.0203
    118  CD1      -41.7410   30.4950  -32.2400 C.ar  353  PHE353     -0.0042
    119  CD2      -43.7840   29.2740  -32.0380 C.ar  353  PHE353     -0.0042
    120  CE1      -41.2280   29.8270  -31.1500 C.ar  353  PHE353     -0.0003
    121  CE2      -43.2690   28.5980  -30.9420 C.ar  353  PHE353     -0.0003
    122  CZ       -41.9910   28.8720  -30.4990 C.ar  353  PHE353     -0.0000
@<TRIPOS>BOND
     1    45    44    1
     2    26    27   ar
     3    26    24   ar
     4    27    25   ar
     5    36    37    1
     6    44    46    1
     7    44    43    2
     8    24    22   ar
     9    25    23   ar
    10    40    37    1
    11    40    41    1
    12    37    38    1
    13    41    42    1
    14    22    23   ar
    15    22    21    1
    16    42    43    1
    17    21    18    1
    18    17    18    1
    19    38    39    2
    20    38    47   am
    21    18    19    1
    22    47    48    1
    23    63    61   ar
    24    61    60    1
    25    61    62   ar
    26    60    59    1
    27    19    20    2
    28    19    28   am
    29    53    52   ar
    30    48    49    1
    31    48    51    1
    32    31    30    2
    33    52    54   ar
    34    52    51    1
    35    28    29    1
    36   115   114    2
    37    49    50    2
    38    55    56    1
    39    56    59    1
    40    56    57    1
    41    80    79   ar
    42    80    78   ar
    43    30    29    1
    44    79    77   ar
    45    29    32    1
    46   114   113    1
    47    15    14    1
    48    92    91    1
    49    57    64   am
    50    57    58    2
    51    32    33    1
    52    78    76   ar
    53    64    65    1
    54    77    76   ar
    55    16    14    1
    56   116   113    1
    57   116   117    1
    58    33    34   ar
    59    33    35   ar
    60   113   112    1
    61    14    13    1
    62    76    75    1
    63    91    90   ar
    64    91    89   ar
    65    90    88   ar
    66     8     6   ar
    67   117   118   ar
    68   117   119   ar
    69    13    10    1
    70    65    66    1
    71    65    68    1
    72    71    72    1
    73    70    68    1
    74     6     7   ar
    75     6     5    1
    76   118   120   ar
    77    72    75    1
    78    72    73    1
    79   119   121   ar
    80    89    87   ar
    81    88    86   ar
    82    66    67    2
    83    68    69    1
    84    10    11    1
    85    10     9    1
    86   111   110   ar
    87   111   109   ar
    88     5     2    1
    89   110   108   ar
    90    11    12    2
    91   120   122   ar
    92    73    74    2
    93   121   122   ar
    94    87    86   ar
    95    86    85    1
    96     1     2    1
    97   109   107   ar
    98    97    94    1
    99     2     3    1
   100   108   105   ar
   101     4     3    2
   102    94    93    1
   103    94    95    1
   104    85    82    1
   105   107   105   ar
   106   107   106   ar
   107   105   103   ar
   108    93    83   am
   109    96    95    2
   110   106   104   ar
   111    82    83    1
   112    82    81    1
   113    83    84    2
   114   103   104   ar
   115   103   102    1
   116   102    99    1
   117    99   100    1
   118    99    98    1
   119   101   100    2
