@<TRIPOS>MOLECULE
tmp/5xhaA00.pdb
 125 120 0 0 0
SMALL
GASTEIGER

@<TRIPOS>ATOM
      1  N        -35.0720   35.7290  -30.8150 N.3    41  ASP41      -0.1239
      2  CA       -34.0220   34.8450  -30.2980 C.3    41  ASP41       0.1674
      3  C        -33.0180   35.6050  -29.4470 C.2    41  ASP41       0.2266
      4  O        -32.4920   36.6400  -29.8870 O.2    41  ASP41      -0.2867
      5  CB       -33.1570   34.2830  -31.4470 C.3    41  ASP41       0.1410
      6  CG       -33.8510   33.2660  -32.2810 C.2    41  ASP41       0.3668
      7  OD1      -35.1120   33.1850  -32.2740 O.co2  41  ASP41      -0.2456
      8  OD2      -33.0950   32.5560  -32.9830 O.co2  41  ASP41      -0.2456
      9  N        -29.6120   38.0890  -38.6190 N.3    98  PHE98      -0.1241
     10  CA       -30.0340   36.9640  -37.8060 C.3    98  PHE98       0.1605
     11  C        -28.9950   36.7440  -36.6670 C.2    98  PHE98       0.2264
     12  O        -28.0710   37.5420  -36.5000 O.2    98  PHE98      -0.2867
     13  CB       -30.1940   35.7130  -38.6860 C.3    98  PHE98       0.0534
     14  CG       -31.4150   35.6930  -39.5960 C.ar   98  PHE98      -0.0203
     15  CD1      -32.3910   36.6850  -39.5820 C.ar   98  PHE98      -0.0042
     16  CD2      -31.6000   34.6170  -40.4540 C.ar   98  PHE98      -0.0042
     17  CE1      -33.5030   36.6160  -40.4250 C.ar   98  PHE98      -0.0003
     18  CE2      -32.7020   34.5490  -41.2960 C.ar   98  PHE98      -0.0003
     19  CZ       -33.6690   35.5480  -41.2690 C.ar   98  PHE98      -0.0000
     20  N        -34.8490   36.9910  -48.9150 N.3   121  LEU121     -0.1245
     21  CA       -35.9480   36.3530  -48.2000 C.3   121  LEU121      0.1561
     22  C        -36.9660   35.9380  -49.2620 C.2   121  LEU121      0.2260
     23  O        -36.9540   36.4820  -50.3510 O.2   121  LEU121     -0.2867
     24  CB       -36.5780   37.3210  -47.2010 C.3   121  LEU121      0.0270
     25  CG       -35.7790   37.6250  -45.9270 C.3   121  LEU121      0.0019
     26  CD1      -36.4370   38.7200  -45.0890 C.3   121  LEU121      0.0001
     27  CD2      -35.6140   36.3670  -45.0930 C.3   121  LEU121      0.0001
     28  N        -36.7720   32.6550  -46.3500 N.3   123  ILE123     -0.1231
     29  CA       -35.9030   31.5420  -46.0400 C.3   123  ILE123      0.1692
     30  C        -36.6990   30.5790  -45.1650 C.2   123  ILE123      0.2592
     31  O        -37.1210   30.9500  -44.0670 O.2   123  ILE123     -0.2718
     32  CB       -34.6670   32.0030  -45.2420 C.3   123  ILE123      0.0266
     33  CG1      -33.8520   33.0380  -46.0220 C.3   123  ILE123      0.0019
     34  CG2      -33.8170   30.8040  -44.8660 C.3   123  ILE123      0.0020
     35  CD1      -32.8930   33.8310  -45.1540 C.3   123  ILE123      0.0001
     36  N        -36.9170   29.3580  -45.6490 N.am  124  HIS124     -0.1976
     37  CA       -37.5600   28.3270  -44.8360 C.3   124  HIS124      0.1656
     38  C        -37.1530   26.9280  -45.2870 C.2   124  HIS124      0.2291
     39  O        -36.9120   26.6860  -46.4690 O.2   124  HIS124     -0.2864
     40  CB       -39.0980   28.4940  -44.8290 C.3   124  HIS124      0.0771
     41  CG       -39.7800   27.7950  -43.6910 C.ar  124  HIS124      0.0820
     42  ND1      -40.4530   26.6000  -43.8410 N.ar  124  HIS124     -0.2267
     43  CD2      -39.8790   28.1170  -42.3780 C.ar  124  HIS124      0.1154
     44  CE1      -40.9350   26.2140  -42.6740 C.ar  124  HIS124      0.1986
     45  NE2      -40.6110   27.1210  -41.7700 N.ar  124  HIS124     -0.2212
     46  N        -27.3730   29.1660  -40.7170 N.3   170  ARG170     -0.1231
     47  CA       -27.3700   30.3340  -39.8450 C.3   170  ARG170      0.1694
     48  C        -27.0530   30.0500  -38.3850 C.2   170  ARG170      0.2592
     49  O        -26.9350   28.8890  -37.9740 O.2   170  ARG170     -0.2718
     50  CB       -28.7270   31.0340  -39.9160 C.3   170  ARG170      0.0321
     51  CG       -29.9250   30.1560  -39.6280 C.3   170  ARG170      0.0489
     52  CD       -31.2300   30.9730  -39.5910 C.3   170  ARG170      0.2205
     53  NE       -32.4060   30.1090  -39.4580 N.pl3 170  ARG170     -0.0865
     54  CZ       -33.0600   29.5190  -40.4600 C.cat 170  ARG170      0.5346
     55  NH1      -32.6960   29.7190  -41.7210 N.pl3 170  ARG170      0.1354
     56  NH2      -34.1060   28.7120  -40.1940 N.pl3 170  ARG170      0.1354
     57  N        -26.9480   31.1380  -37.6160 N.am  171  ASP171     -0.1974
     58  CA       -26.8070   31.1060  -36.1410 C.3   171  ASP171      0.1709
     59  C        -25.4520   30.5690  -35.7060 C.2   171  ASP171      0.2293
     60  O        -25.3750   29.6680  -34.8530 O.2   171  ASP171     -0.2864
     61  CB       -27.9260   30.3030  -35.4680 C.3   171  ASP171      0.1436
     62  CG       -29.3110   30.6880  -35.9570 C.2   171  ASP171      0.3671
     63  OD1      -29.4890   31.8380  -36.4330 O.co2 171  ASP171     -0.2456
     64  OD2      -30.2120   29.8240  -35.8680 O.co2 171  ASP171     -0.2456
     65  N        -31.9170   24.7220  -35.6060 N.3   248  GLU248     -0.1245
     66  CA       -31.6210   26.1360  -35.3980 C.3   248  GLU248      0.1567
     67  C        -30.8810   26.3210  -34.0750 C.2   248  GLU248      0.2260
     68  O        -30.9130   25.4480  -33.2000 O.2   248  GLU248     -0.2867
     69  CB       -32.9200   26.9570  -35.3940 C.3   248  GLU248      0.0388
     70  CG       -33.7130   26.8240  -36.6850 C.3   248  GLU248      0.1160
     71  CD       -34.8750   27.7750  -36.7580 C.2   248  GLU248      0.3649
     72  OE1      -35.8440   27.5930  -35.9920 O.co2 248  GLU248     -0.2457
     73  OE2      -34.8050   28.7020  -37.5930 O.co2 248  GLU248     -0.2457
     74  N        -37.2290   22.4130  -36.0070 N.3   273  GLU273     -0.1245
     75  CA       -38.4160   22.8630  -36.7200 C.3   273  GLU273      0.1567
     76  C        -39.1620   21.6550  -37.2650 C.2   273  GLU273      0.2260
     77  O        -38.6700   20.9590  -38.1770 O.2   273  GLU273     -0.2867
     78  CB       -38.0260   23.7730  -37.8790 C.3   273  GLU273      0.0388
     79  CG       -37.2730   25.0190  -37.4650 C.3   273  GLU273      0.1160
     80  CD       -37.2540   26.0510  -38.5710 C.2   273  GLU273      0.3649
     81  OE1      -38.3310   26.6430  -38.8370 O.co2 273  GLU273     -0.2457
     82  OE2      -36.1780   26.2340  -39.1810 O.co2 273  GLU273     -0.2457
     83  N        -43.5490   26.2810  -39.9090 N.3   284  THR284     -0.1218
     84  CA       -43.0320   25.3670  -38.8860 C.3   284  THR284      0.1862
     85  C        -44.0980   25.2960  -37.8090 C.2   284  THR284      0.2287
     86  O        -44.4080   26.2980  -37.1870 O.2   284  THR284     -0.2866
     87  CB       -41.7020   25.8650  -38.2640 C.3   284  THR284      0.1770
     88  OG1      -40.6600   25.7930  -39.2450 O.3   284  THR284     -0.2211
     89  CG2      -41.3180   25.0230  -37.0520 C.3   284  THR284      0.0375
     90  N        -42.0900   23.8300  -32.5830 N.3   287  HIS287     -0.1241
     91  CA       -40.8040   24.4260  -32.2320 C.3   287  HIS287      0.1621
     92  C        -40.2550   23.7710  -30.9620 C.2   287  HIS287      0.2264
     93  O        -40.5890   24.1990  -29.8560 O.2   287  HIS287     -0.2867
     94  CB       -40.9760   25.9310  -32.0200 C.3   287  HIS287      0.0745
     95  CG       -41.2080   26.7090  -33.2860 C.ar  287  HIS287      0.0817
     96  ND1      -42.4320   26.7670  -33.9100 N.ar  287  HIS287     -0.2268
     97  CD2      -40.3750   27.4790  -34.0290 C.ar  287  HIS287      0.1154
     98  CE1      -42.3490   27.5420  -34.9770 C.ar  287  HIS287      0.1986
     99  NE2      -41.1070   27.9690  -35.0820 N.ar  287  HIS287     -0.2212
    100  N        -38.2580   28.2320  -27.1400 N.3   319  TYR319     -0.1241
    101  CA       -37.4480   27.9510  -28.3020 C.3   319  TYR319      0.1605
    102  C        -36.1240   28.7280  -28.2670 C.2   319  TYR319      0.2264
    103  O        -35.9170   29.5760  -27.4040 O.2   319  TYR319     -0.2867
    104  CB       -38.2480   28.3300  -29.5660 C.3   319  TYR319      0.0534
    105  CG       -37.7420   27.6730  -30.8160 C.ar  319  TYR319     -0.0201
    106  CD1      -37.6440   26.2920  -30.8920 C.ar  319  TYR319     -0.0009
    107  CD2      -37.3600   28.4260  -31.9360 C.ar  319  TYR319     -0.0009
    108  CE1      -37.1850   25.6760  -32.0310 C.ar  319  TYR319      0.0417
    109  CE2      -36.8650   27.8080  -33.0770 C.ar  319  TYR319      0.0417
    110  CZ       -36.7900   26.4240  -33.1170 C.ar  319  TYR319      0.1957
    111  OH       -36.3270   25.7490  -34.2300 O.3   319  TYR319     -0.2866
    112  N        -35.9170   31.5350  -25.1650 N.3   347  TRP347     -0.1241
    113  CA       -36.8890   32.4930  -25.7070 C.3   347  TRP347      0.1605
    114  C        -38.2880   31.9610  -25.4620 C.2   347  TRP347      0.2264
    115  O        -38.5660   30.7770  -25.7040 O.2   347  TRP347     -0.2867
    116  CB       -36.6720   32.6490  -27.2160 C.3   347  TRP347      0.0550
    117  CG       -37.5700   33.6200  -27.9280 C.ar  347  TRP347      0.0003
    118  CD1      -37.9530   34.8560  -27.5000 C.ar  347  TRP347      0.0946
    119  CD2      -38.1500   33.4470  -29.2210 C.ar  347  TRP347      0.0152
    120  NE1      -38.7550   35.4570  -28.4360 N.ar  347  TRP347     -0.2442
    121  CE2      -38.8970   34.6100  -29.5040 C.ar  347  TRP347      0.0810
    122  CE3      -38.1370   32.4140  -30.1560 C.ar  347  TRP347      0.0012
    123  CZ2      -39.6060   34.7740  -30.6940 C.ar  347  TRP347      0.0191
    124  CZ3      -38.8350   32.5830  -31.3510 C.ar  347  TRP347      0.0001
    125  CH2      -39.5560   33.7560  -31.6070 C.ar  347  TRP347      0.0015
@<TRIPOS>BOND
     1    23    22    2
     2    22    21    1
     3    20    21    1
     4    21    24    1
     5    24    25    1
     6    39    38    2
     7    28    29    1
     8    29    32    1
     9    29    30    1
    10    33    32    1
    11    33    35    1
    12    25    27    1
    13    25    26    1
    14    36    30   am
    15    36    37    1
    16    38    37    1
    17    32    34    1
    18    30    31    2
    19    37    40    1
    20    40    41    1
    21    42    41   ar
    22    42    44   ar
    23    41    43   ar
    24    44    45   ar
    25    43    45   ar
    26    55    54    1
    27    18    19   ar
    28    18    16   ar
    29    19    17   ar
    30    46    47    1
    31    54    56    1
    32    54    53    2
    33    16    14   ar
    34    17    15   ar
    35    50    47    1
    36    50    51    1
    37    83    84    1
    38    47    48    1
    39    51    52    1
    40    14    15   ar
    41    14    13    1
    42    52    53    1
    43    88    87    1
    44    82    80   ar
    45    84    87    1
    46    84    85    1
    47    81    80   ar
    48    13    10    1
    49     9    10    1
    50    80    79    1
    51    48    49    2
    52    48    57   am
    53    87    89    1
    54    77    76    2
    55    78    79    1
    56    78    75    1
    57    85    86    2
    58    10    11    1
    59    57    58    1
    60    73    71   ar
    61    76    75    1
    62    71    70    1
    63    71    72   ar
    64    75    74    1
    65    70    69    1
    66    11    12    2
    67    63    62   ar
    68    58    59    1
    69    58    61    1
    70    62    64   ar
    71    62    61    1
    72    59    60    2
    73    65    66    1
    74    66    69    1
    75    66    67    1
    76    99    98   ar
    77    99    97   ar
    78    98    96   ar
    79   111   110    1
    80    67    68    2
    81    97    95   ar
    82    96    95   ar
    83    95    94    1
    84   110   109   ar
    85   110   108   ar
    86   109   107   ar
    87     8     6   ar
    88    90    91    1
    89     6     7   ar
    90     6     5    1
    91    91    94    1
    92    91    92    1
    93   108   106   ar
    94   107   105   ar
    95   125   124   ar
    96   125   123   ar
    97     5     2    1
    98   124   122   ar
    99    92    93    2
   100   106   105   ar
   101   105   104    1
   102     1     2    1
   103   123   121   ar
   104     2     3    1
   105   122   119   ar
   106     4     3    2
   107   104   101    1
   108   121   119   ar
   109   121   120   ar
   110   119   117   ar
   111   120   118   ar
   112   101   102    1
   113   101   100    1
   114   102   103    2
   115   117   118   ar
   116   117   116    1
   117   116   113    1
   118   113   114    1
   119   113   112    1
   120   115   114    2
