@<TRIPOS>MOLECULE
tmp/5xhjA02.pdb
 139 132 0 0 0
SMALL
GASTEIGER

@<TRIPOS>ATOM
      1  N          8.3280   -7.5460   35.8530 N.3    18  LEU18      -0.1245
      2  CA         7.8920   -6.4500   34.9830 C.3    18  LEU18       0.1561
      3  C          8.0640   -5.0650   35.6090 C.2    18  LEU18       0.2260
      4  O          7.7190   -4.0650   34.9760 O.2    18  LEU18      -0.2867
      5  CB         6.4390   -6.6680   34.5320 C.3    18  LEU18       0.0270
      6  CG         6.1750   -7.9020   33.6640 C.3    18  LEU18       0.0019
      7  CD1        4.6960   -7.9820   33.3160 C.3    18  LEU18       0.0001
      8  CD2        7.0020   -7.9420   32.3930 C.3    18  LEU18       0.0001
      9  N         10.6530   -3.9420   29.9690 N.3    23  PRO23      -0.2102
     10  CA         9.9990   -5.2440   30.1980 C.3    23  PRO23       0.1504
     11  C         10.1060   -6.2480   29.0320 C.2    23  PRO23       0.2575
     12  O         10.3200   -7.4300   29.2760 O.2    23  PRO23      -0.2718
     13  CB         8.5370   -4.8610   30.4660 C.3    23  PRO23       0.0282
     14  CG         8.3600   -3.5180   29.8400 C.3    23  PRO23       0.0208
     15  CD         9.6810   -2.8340   30.0130 C.3    23  PRO23       0.0893
     16  N          9.9540   -5.7890   27.7850 N.am   24  VAL24      -0.1980
     17  CA        10.0760   -6.6930   26.6190 C.3    24  VAL24       0.1595
     18  C         11.4720   -7.3140   26.5570 C.2    24  VAL24       0.2287
     19  O         11.6090   -8.5240   26.3800 O.2    24  VAL24      -0.2864
     20  CB         9.7480   -5.9820   25.2800 C.3    24  VAL24       0.0276
     21  CG1       10.0440   -6.8730   24.0750 C.3    24  VAL24       0.0022
     22  CG2        8.2890   -5.5560   25.2450 C.3    24  VAL24       0.0022
     23  N         11.7670   -9.8540   29.1770 N.3    27  LEU27      -0.1245
     24  CA        11.0650  -11.0610   28.7310 C.3    27  LEU27       0.1561
     25  C         11.8460  -11.8310   27.6610 C.2    27  LEU27       0.2260
     26  O         11.7970  -13.0600   27.6250 O.2    27  LEU27      -0.2867
     27  CB         9.6480  -10.7120   28.2450 C.3    27  LEU27       0.0270
     28  CG         8.7030  -10.2570   29.3620 C.3    27  LEU27       0.0019
     29  CD1        7.5580   -9.4180   28.8110 C.3    27  LEU27       0.0001
     30  CD2        8.1600  -11.4490   30.1390 C.3    27  LEU27       0.0001
     31  N          3.9920  -16.9670   27.4370 N.3    49  TYR49      -0.1241
     32  CA         4.7890  -16.2540   26.4510 C.3    49  TYR49       0.1605
     33  C          5.3420  -17.2440   25.4600 C.2    49  TYR49       0.2264
     34  O          6.0300  -18.1840   25.8540 O.2    49  TYR49      -0.2867
     35  CB         5.9260  -15.4890   27.1410 C.3    49  TYR49       0.0534
     36  CG         5.4730  -14.2000   27.7790 C.ar   49  TYR49      -0.0201
     37  CD1        5.0300  -14.1730   29.1010 C.ar   49  TYR49      -0.0009
     38  CD2        5.4690  -13.0020   27.0530 C.ar   49  TYR49      -0.0009
     39  CE1        4.6020  -13.0020   29.6890 C.ar   49  TYR49       0.0417
     40  CE2        5.0390  -11.8170   27.6310 C.ar   49  TYR49       0.0417
     41  CZ         4.6180  -11.8270   28.9490 C.ar   49  TYR49       0.1957
     42  OH         4.2040  -10.6830   29.5320 O.3    49  TYR49      -0.2866
     43  N         -4.4880   -7.3830   25.7970 N.3    70  SER70      -0.1217
     44  CA        -3.5290   -7.3670   26.8950 C.3    70  SER70       0.1889
     45  C         -3.9260   -6.2960   27.9200 C.2    70  SER70       0.2288
     46  O         -4.7400   -5.4140   27.6370 O.2    70  SER70      -0.2866
     47  CB        -2.1240   -7.0840   26.3540 C.3    70  SER70       0.2089
     48  OG        -1.9800   -5.7200   25.9930 O.3    70  SER70      -0.2183
     49  N         -2.1900   -3.8440   28.9840 N.3    72  ALA72      -0.1231
     50  CA        -1.7500   -2.5470   28.4590 C.3    72  ALA72       0.1694
     51  C         -2.7920   -1.9420   27.5240 C.2    72  ALA72       0.2591
     52  O         -3.1800   -0.7860   27.6910 O.2    72  ALA72      -0.2718
     53  CB        -0.4200   -2.6920   27.7370 C.3    72  ALA72       0.0304
     54  N         -3.2520   -2.7370   26.5580 N.am   73  LEU73      -0.1980
     55  CA        -4.3140   -2.3000   25.6450 C.3    73  LEU73       0.1596
     56  C         -5.6450   -1.9900   26.3460 C.2    73  LEU73       0.2287
     57  O         -6.3380   -1.0650   25.9370 O.2    73  LEU73      -0.2864
     58  CB        -4.5320   -3.3070   24.5020 C.3    73  LEU73       0.0297
     59  CG        -3.3790   -3.5390   23.5130 C.3    73  LEU73       0.0022
     60  CD1       -3.8730   -4.3640   22.3320 C.3    73  LEU73       0.0001
     61  CD2       -2.7560   -2.2490   23.0040 C.3    73  LEU73       0.0001
     62  N         -7.7820   -0.7650   16.9750 N.3    85  PHE85      -0.1241
     63  CA        -6.6500   -1.3690   17.6720 C.3    85  PHE85       0.1605
     64  C         -7.0610   -1.9760   19.0290 C.2    85  PHE85       0.2264
     65  O         -6.5610   -3.0330   19.4090 O.2    85  PHE85      -0.2867
     66  CB        -5.5400   -0.3270   17.8620 C.3    85  PHE85       0.0534
     67  CG        -4.1660   -0.9240   17.9850 C.ar   85  PHE85      -0.0203
     68  CD1       -3.7780   -1.5890   19.1470 C.ar   85  PHE85      -0.0042
     69  CD2       -3.2650   -0.8510   16.9310 C.ar   85  PHE85      -0.0042
     70  CE1       -2.5160   -2.1580   19.2590 C.ar   85  PHE85      -0.0003
     71  CE2       -1.9960   -1.4040   17.0370 C.ar   85  PHE85      -0.0003
     72  CZ        -1.6200   -2.0600   18.2050 C.ar   85  PHE85      -0.0000
     73  N          1.5870    1.4780   30.9300 N.3   183  MET183     -0.1245
     74  CA         2.6630    0.5080   31.2210 C.3   183  MET183      0.1570
     75  C          2.9400    0.3680   32.7320 C.2   183  MET183      0.2261
     76  O          3.3340   -0.7120   33.1910 O.2   183  MET183     -0.2867
     77  CB         3.9590    0.8770   30.4640 C.3   183  MET183      0.0387
     78  CG         5.0030   -0.2440   30.3960 C.3   183  MET183      0.0595
     79  SD         6.4470    0.0590   29.3330 S.3   183  MET183     -0.1393
     80  CE         7.4570    1.1250   30.3620 C.3   183  MET183      0.0692
     81  N          0.2120   -1.5280   35.3860 N.3   186  LEU186     -0.1245
     82  CA         0.4090   -2.9820   35.5150 C.3   186  LEU186      0.1561
     83  C          0.8830   -3.4230   36.9090 C.2   186  LEU186      0.2260
     84  O          0.4840   -4.4850   37.3920 O.2   186  LEU186     -0.2867
     85  CB         1.4110   -3.4920   34.4630 C.3   186  LEU186      0.0270
     86  CG         1.1840   -3.1920   32.9710 C.3   186  LEU186      0.0019
     87  CD1        2.2660   -3.8580   32.1330 C.3   186  LEU186      0.0001
     88  CD2       -0.1950   -3.6120   32.4870 C.3   186  LEU186      0.0001
     89  N          6.2790   -2.8190   17.4410 N.3   326  ALA326     -0.1231
     90  CA         5.1980   -3.2470   18.3220 C.3   326  ALA326      0.1679
     91  C          5.5140   -4.7060   18.6840 C.2   326  ALA326      0.2434
     92  O          5.0350   -5.6280   18.0320 O.2   326  ALA326     -0.2733
     93  CB         3.8500   -3.1260   17.6400 C.3   326  ALA326      0.0304
     94  N          6.3200   -4.9170   19.7370 N.am  327  PRO327     -0.2718
     95  CA         7.0130   -6.2120   19.9110 C.3   327  PRO327      0.1535
     96  C          6.1780   -7.4050   20.4010 C.2   327  PRO327      0.2598
     97  O          6.6950   -8.5160   20.4890 O.2   327  PRO327     -0.2715
     98  CB         8.0990   -5.8740   20.9250 C.3   327  PRO327      0.0310
     99  CG         7.5010   -4.8030   21.7440 C.3   327  PRO327      0.0237
    100  CD         6.6970   -3.9590   20.7900 C.3   327  PRO327      0.0939
    101  N          4.9090   -7.1880   20.7080 N.am  328  ALA328     -0.1964
    102  CA         4.0730   -8.2640   21.2030 C.3   328  ALA328      0.1728
    103  C          2.6350   -8.0850   20.7830 C.2   328  ALA328      0.2616
    104  O          2.1790   -6.9780   20.5300 O.2   328  ALA328     -0.2715
    105  CB         4.1760   -8.3490   22.7230 C.3   328  ALA328      0.0334
    106  N          1.9300   -9.1980   20.6910 N.am  329  PHE329     -0.1974
    107  CA         0.4850   -9.1790   20.6470 C.3   329  PHE329      0.1639
    108  C         -0.0540  -10.3630   21.4280 C.2   329  PHE329      0.2290
    109  O          0.6690  -11.3360   21.6850 O.2   329  PHE329     -0.2864
    110  CB        -0.0550   -9.1200   19.2170 C.3   329  PHE329      0.0560
    111  CG         0.3520  -10.2580   18.3380 C.ar  329  PHE329     -0.0200
    112  CD1        1.5460  -10.2060   17.6270 C.ar  329  PHE329     -0.0042
    113  CD2       -0.4930  -11.3440   18.1450 C.ar  329  PHE329     -0.0042
    114  CE1        1.9110  -11.2320   16.7720 C.ar  329  PHE329     -0.0003
    115  CE2       -0.1330  -12.3810   17.3000 C.ar  329  PHE329     -0.0003
    116  CZ         1.0660  -12.3270   16.6090 C.ar  329  PHE329     -0.0000
    117  N          0.8280  -14.6140   25.0300 N.3   352  MET352     -0.1245
    118  CA         1.5860  -13.4860   24.4770 C.3   352  MET352      0.1570
    119  C          2.5750  -13.9860   23.4330 C.2   352  MET352      0.2261
    120  O          3.3580  -14.9090   23.6990 O.2   352  MET352     -0.2867
    121  CB         2.3540  -12.7450   25.5700 C.3   352  MET352      0.0387
    122  CG         1.4920  -12.0230   26.5940 C.3   352  MET352      0.0595
    123  SD         0.4540  -10.7100   25.9150 S.3   352  MET352     -0.1393
    124  CE         1.6610   -9.5900   25.2360 C.3   352  MET352      0.0692
    125  N          5.6430    0.6840   25.6520 N.3   435  LEU435     -0.1231
    126  CA         4.9010   -0.2950   24.8390 C.3   435  LEU435      0.1693
    127  C          5.6730   -0.5500   23.5370 C.2   435  LEU435      0.2592
    128  O          6.2050   -1.6480   23.3530 O.2   435  LEU435     -0.2718
    129  CB         3.4290    0.0880   24.5570 C.3   435  LEU435      0.0284
    130  CG         2.5130    0.5760   25.6880 C.3   435  LEU435      0.0019
    131  CD1        1.0630    0.4300   25.2390 C.3   435  LEU435      0.0001
    132  CD2        2.7380   -0.1570   27.0050 C.3   435  LEU435      0.0001
    133  N          5.7660    0.4570   22.6640 N.am  436  THR436     -0.1953
    134  CA         6.6420    0.3840   21.4780 C.3   436  THR436      0.1897
    135  C          8.1480    0.5350   21.7990 C.2   436  THR436      0.2313
    136  O          8.5250    0.9110   22.9120 O.2   436  THR436     -0.2863
    137  CB         6.2340    1.4270   20.4250 C.3   436  THR436      0.1794
    138  OG1        6.3380    2.7390   20.9820 O.3   436  THR436     -0.2208
    139  CG2        4.8010    1.1800   19.9560 C.3   436  THR436      0.0378
@<TRIPOS>BOND
     1   116   114   ar
     2   116   115   ar
     3   114   112   ar
     4    69    71   ar
     5    69    67   ar
     6    62    63    1
     7    71    72   ar
     8   115   113   ar
     9    89    90    1
    10   112   111   ar
    11    93    90    1
    12    63    66    1
    13    63    64    1
    14    66    67    1
    15    67    68   ar
    16    92    91    2
    17   113   111   ar
    18    72    70   ar
    19    90    91    1
    20   111   110    1
    21    91    94   am
    22    64    65    2
    23    68    70   ar
    24   110   107    1
    25    94    95    1
    26    94   100    1
    27    95    96    1
    28    95    98    1
    29   139   137    1
    30    96    97    2
    31    96   101   am
    32   137   138    1
    33   137   134    1
    34   104   103    2
    35   107   106    1
    36   107   108    1
    37   106   103   am
    38   101   102    1
    39   103   102    1
    40   100    99    1
    41    98    99    1
    42   102   105    1
    43   108   109    2
    44   134   135    1
    45   134   133    1
    46   135   136    2
    47    60    59    1
    48   133   127   am
    49    61    59    1
    50   128   127    2
    51   119   120    2
    52   119   118    1
    53    59    58    1
    54   127   126    1
    55    21    20    1
    56   118   117    1
    57   118   121    1
    58    58    55    1
    59   129   126    1
    60   129   130    1
    61   126   125    1
    62   124   123    1
    63   131   130    1
    64    22    20    1
    65    20    17    1
    66    33    34    2
    67    33    32    1
    68   121   122    1
    69    55    56    1
    70    55    54    1
    71   130   132    1
    72    43    44    1
    73   123   122    1
    74    57    56    2
    75    48    47    1
    76    47    44    1
    77    19    18    2
    78    32    35    1
    79    32    31    1
    80    18    17    1
    81    54    51   am
    82    17    16    1
    83    44    45    1
    84    38    40   ar
    85    38    36   ar
    86    35    36    1
    87    51    52    2
    88    51    50    1
    89    26    25    2
    90    40    41   ar
    91    46    45    2
    92    25    24    1
    93    53    50    1
    94    36    37   ar
    95    16    11   am
    96    27    24    1
    97    27    28    1
    98    50    49    1
    99    24    23    1
   100    29    28    1
   101    41    42    1
   102    41    39   ar
   103    11    12    2
   104    11    10    1
   105    37    39   ar
   106    79    80    1
   107    79    78    1
   108    28    30    1
   109    14    15    1
   110    14    13    1
   111     9    15    1
   112     9    10    1
   113    10    13    1
   114    78    77    1
   115    77    74    1
   116    73    74    1
   117    74    75    1
   118    87    86    1
   119     8     6    1
   120    88    86    1
   121    75    76    2
   122    86    85    1
   123     7     6    1
   124     6     5    1
   125    85    82    1
   126     5     2    1
   127     4     3    2
   128     2     3    1
   129     2     1    1
   130    81    82    1
   131    82    83    1
   132    83    84    2
