@<TRIPOS>MOLECULE
tmp/5xhjA01.pdb
 115 105 0 0 0
SMALL
GASTEIGER

@<TRIPOS>ATOM
      1  N          5.1910  -10.9990   39.0110 N.3    15  LEU15      -0.1245
      2  CA         4.9050   -9.5740   38.7350 C.3    15  LEU15       0.1561
      3  C          6.0820   -8.5870   38.8880 C.2    15  LEU15       0.2260
      4  O          6.2060   -7.6650   38.0810 O.2    15  LEU15      -0.2867
      5  CB         3.7090   -9.0800   39.5620 C.3    15  LEU15       0.0270
      6  CG         3.1520   -7.6920   39.2240 C.3    15  LEU15       0.0019
      7  CD1        2.5300   -7.6730   37.8320 C.3    15  LEU15       0.0001
      8  CD2        2.1280   -7.2740   40.2650 C.3    15  LEU15       0.0001
      9  N          8.3280   -7.5460   35.8530 N.3    18  LEU18      -0.1245
     10  CA         7.8920   -6.4500   34.9830 C.3    18  LEU18       0.1561
     11  C          8.0640   -5.0650   35.6090 C.2    18  LEU18       0.2260
     12  O          7.7190   -4.0650   34.9760 O.2    18  LEU18      -0.2867
     13  CB         6.4390   -6.6680   34.5320 C.3    18  LEU18       0.0270
     14  CG         6.1750   -7.9020   33.6640 C.3    18  LEU18       0.0019
     15  CD1        4.6960   -7.9820   33.3160 C.3    18  LEU18       0.0001
     16  CD2        7.0020   -7.9420   32.3930 C.3    18  LEU18       0.0001
     17  N         11.7670   -9.8540   29.1770 N.3    27  LEU27      -0.1245
     18  CA        11.0650  -11.0610   28.7310 C.3    27  LEU27       0.1561
     19  C         11.8460  -11.8310   27.6610 C.2    27  LEU27       0.2260
     20  O         11.7970  -13.0600   27.6250 O.2    27  LEU27      -0.2867
     21  CB         9.6480  -10.7120   28.2450 C.3    27  LEU27       0.0270
     22  CG         8.7030  -10.2570   29.3620 C.3    27  LEU27       0.0019
     23  CD1        7.5580   -9.4180   28.8110 C.3    27  LEU27       0.0001
     24  CD2        8.1600  -11.4490   30.1390 C.3    27  LEU27       0.0001
     25  N          3.8030  -17.0730   32.9620 N.3    40  PHE40      -0.1241
     26  CA         4.0240  -15.8470   33.7110 C.3    40  PHE40       0.1605
     27  C          2.7950  -15.5630   34.5640 C.2    40  PHE40       0.2264
     28  O          1.7210  -15.2870   34.0210 O.2    40  PHE40      -0.2867
     29  CB         4.2880  -14.6730   32.7700 C.3    40  PHE40       0.0534
     30  CG         4.9100  -13.4960   33.4510 C.ar   40  PHE40      -0.0203
     31  CD1        4.1300  -12.5880   34.1530 C.ar   40  PHE40      -0.0042
     32  CD2        6.2910  -13.3210   33.4350 C.ar   40  PHE40      -0.0042
     33  CE1        4.7100  -11.5100   34.8100 C.ar   40  PHE40      -0.0003
     34  CE2        6.8780  -12.2490   34.0890 C.ar   40  PHE40      -0.0003
     35  CZ         6.0870  -11.3430   34.7750 C.ar   40  PHE40      -0.0000
     36  N          0.8130  -13.5510   37.9170 N.3    42  ALA42      -0.1245
     37  CA         0.6840  -12.4430   38.8490 C.3    42  ALA42       0.1562
     38  C         -0.5060  -12.7710   39.7460 C.2    42  ALA42       0.2260
     39  O         -1.2400  -13.7310   39.4660 O.2    42  ALA42      -0.2867
     40  CB         0.4510  -11.1530   38.0930 C.3    42  ALA42       0.0290
     41  N         -3.8990  -13.5840   38.0080 N.3    45  ARG45      -0.1245
     42  CA        -3.6530  -13.4680   36.5640 C.3    45  ARG45       0.1563
     43  C         -2.5480  -14.4160   36.0670 C.2    45  ARG45       0.2260
     44  O         -1.5610  -14.6600   36.7630 O.2    45  ARG45      -0.2867
     45  CB        -3.3080  -12.0050   36.2420 C.3    45  ARG45       0.0307
     46  CG        -2.7790  -11.7440   34.8410 C.3    45  ARG45       0.0489
     47  CD        -2.9990  -10.2990   34.4090 C.3    45  ARG45       0.2205
     48  NE        -4.4200  -10.0130   34.1900 N.pl3  45  ARG45      -0.0865
     49  CZ        -5.1450  -10.4250   33.1420 C.cat  45  ARG45       0.5346
     50  NH1       -4.6060  -11.1640   32.1660 N.pl3  45  ARG45       0.1354
     51  NH2       -6.4340  -10.1020   33.0740 N.pl3  45  ARG45       0.1354
     52  N         -0.5340  -15.5420   32.0950 N.3    47  THR47      -0.1218
     53  CA        -0.3760  -15.6950   30.6410 C.3    47  THR47       0.1862
     54  C          0.8200  -16.5910   30.3180 C.2    47  THR47       0.2287
     55  O          1.5930  -16.9690   31.2130 O.2    47  THR47      -0.2866
     56  CB        -0.2830  -14.3410   29.8970 C.3    47  THR47       0.1770
     57  OG1       -0.3260  -14.5660   28.4780 O.3    47  THR47      -0.2211
     58  CG2        0.9870  -13.5780   30.2580 C.3    47  THR47       0.0375
     59  N          3.9920  -16.9670   27.4370 N.3    49  TYR49      -0.1241
     60  CA         4.7890  -16.2540   26.4510 C.3    49  TYR49       0.1605
     61  C          5.3420  -17.2440   25.4600 C.2    49  TYR49       0.2264
     62  O          6.0300  -18.1840   25.8540 O.2    49  TYR49      -0.2867
     63  CB         5.9260  -15.4890   27.1410 C.3    49  TYR49       0.0534
     64  CG         5.4730  -14.2000   27.7790 C.ar   49  TYR49      -0.0201
     65  CD1        5.0300  -14.1730   29.1010 C.ar   49  TYR49      -0.0009
     66  CD2        5.4690  -13.0020   27.0530 C.ar   49  TYR49      -0.0009
     67  CE1        4.6020  -13.0020   29.6890 C.ar   49  TYR49       0.0417
     68  CE2        5.0390  -11.8170   27.6310 C.ar   49  TYR49       0.0417
     69  CZ         4.6180  -11.8270   28.9490 C.ar   49  TYR49       0.1957
     70  OH         4.2040  -10.6830   29.5320 O.3    49  TYR49      -0.2866
     71  N         -4.4880   -7.3830   25.7970 N.3    70  SER70      -0.1202
     72  CA        -3.5290   -7.3670   26.8950 C.3    70  SER70       0.2020
     73  C         -3.9260   -6.2960   27.9200 C.2    70  SER70       0.2619
     74  O         -4.7400   -5.4140   27.6370 O.2    70  SER70      -0.2717
     75  CB        -2.1240   -7.0840   26.3540 C.3    70  SER70       0.2103
     76  OG        -1.9800   -5.7200   25.9930 O.3    70  SER70      -0.2182
     77  N         -3.3690   -6.3870   29.1210 N.am   71  GLN71      -0.1965
     78  CA        -3.6730   -5.3880   30.1550 C.3    71  GLN71       0.1733
     79  C         -3.2760   -3.9670   29.7420 C.2    71  GLN71       0.2616
     80  O         -3.9680   -3.0060   30.0810 O.2    71  GLN71      -0.2715
     81  CB        -3.0370   -5.7670   31.4930 C.3    71  GLN71       0.0408
     82  CG        -3.6220   -5.0190   32.6850 C.3    71  GLN71       0.0908
     83  CD        -5.1170   -5.2270   32.8450 C.2    71  GLN71       0.2608
     84  OE1       -5.9010   -4.2690   32.8190 O.2    71  GLN71      -0.2717
     85  NE2       -5.5240   -6.4870   32.9850 N.am   71  GLN71      -0.0878
     86  N         -2.1900   -3.8440   28.9840 N.am   72  ALA72      -0.1977
     87  CA        -1.7500   -2.5470   28.4590 C.3    72  ALA72       0.1597
     88  C         -2.7920   -1.9420   27.5240 C.2    72  ALA72       0.2287
     89  O         -3.1800   -0.7860   27.6910 O.2    72  ALA72      -0.2864
     90  CB        -0.4200   -2.6920   27.7370 C.3    72  ALA72       0.0319
     91  N          0.2120   -1.5280   35.3860 N.3   186  LEU186     -0.1245
     92  CA         0.4090   -2.9820   35.5150 C.3   186  LEU186      0.1561
     93  C          0.8830   -3.4230   36.9090 C.2   186  LEU186      0.2260
     94  O          0.4840   -4.4850   37.3920 O.2   186  LEU186     -0.2867
     95  CB         1.4110   -3.4920   34.4630 C.3   186  LEU186      0.0270
     96  CG         1.1840   -3.1920   32.9710 C.3   186  LEU186      0.0019
     97  CD1        2.2660   -3.8580   32.1330 C.3   186  LEU186      0.0001
     98  CD2       -0.1950   -3.6120   32.4870 C.3   186  LEU186      0.0001
     99  N         -4.9100  -17.1800   27.9950 N.3   350  GLU350     -0.1245
    100  CA        -4.2110  -16.1550   27.2190 C.3   350  GLU350      0.1567
    101  C         -2.8070  -16.5640   26.7800 C.2   350  GLU350      0.2260
    102  O         -2.1340  -17.3590   27.4420 O.2   350  GLU350     -0.2867
    103  CB        -4.1840  -14.8550   27.9980 C.3   350  GLU350      0.0388
    104  CG        -5.5790  -14.2730   28.2000 C.3   350  GLU350      0.1160
    105  CD        -5.6210  -13.0900   29.1480 C.2   350  GLU350      0.3649
    106  OE1       -4.5870  -12.4070   29.3330 O.co2 350  GLU350     -0.2457
    107  OE2       -6.7080  -12.8280   29.7040 O.co2 350  GLU350     -0.2457
    108  N          0.8280  -14.6140   25.0300 N.3   352  MET352     -0.1245
    109  CA         1.5860  -13.4860   24.4770 C.3   352  MET352      0.1570
    110  C          2.5750  -13.9860   23.4330 C.2   352  MET352      0.2261
    111  O          3.3580  -14.9090   23.6990 O.2   352  MET352     -0.2867
    112  CB         2.3540  -12.7450   25.5700 C.3   352  MET352      0.0387
    113  CG         1.4920  -12.0230   26.5940 C.3   352  MET352      0.0595
    114  SD         0.4540  -10.7100   25.9150 S.3   352  MET352     -0.1393
    115  CE         1.6610   -9.5900   25.2360 C.3   352  MET352      0.0692
@<TRIPOS>BOND
     1   110   111    2
     2   110   109    1
     3   109   108    1
     4   109   112    1
     5   115   114    1
     6    61    62    2
     7    61    60    1
     8   112   113    1
     9    71    72    1
    10   114   113    1
    11    76    75    1
    12    75    72    1
    13    60    63    1
    14    60    59    1
    15   101   100    1
    16   101   102    2
    17    72    73    1
    18    66    68   ar
    19    66    64   ar
    20    63    64    1
    21   100    99    1
    22   100   103    1
    23    88    89    2
    24    88    87    1
    25    20    19    2
    26    68    69   ar
    27    74    73    2
    28    19    18    1
    29    90    87    1
    30    64    65   ar
    31    73    77   am
    32   103   104    1
    33   104   105    1
    34    21    18    1
    35    21    22    1
    36    87    86    1
    37    57    56    1
    38    18    17    1
    39    23    22    1
    40    69    70    1
    41    69    67   ar
    42    86    79   am
    43    65    67   ar
    44    77    78    1
    45   105   106   ar
    46   105   107   ar
    47    22    24    1
    48    79    80    2
    49    79    78    1
    50    56    58    1
    51    56    53    1
    52    78    81    1
    53    54    53    1
    54    54    55    2
    55    53    52    1
    56    81    82    1
    57    97    96    1
    58    50    49    1
    59    16    14    1
    60    98    96    1
    61    82    83    1
    62    29    30    1
    63    29    26    1
    64    84    83    2
    65    83    85   am
    66    25    26    1
    67    96    95    1
    68    51    49    1
    69    49    48    2
    70    15    14    1
    71    32    30   ar
    72    32    34   ar
    73    30    31   ar
    74    14    13    1
    75    26    27    1
    76    28    27    2
    77    34    35   ar
    78    31    33   ar
    79    48    47    1
    80    47    46    1
    81    95    92    1
    82    13    10    1
    83    35    33   ar
    84    46    45    1
    85    12    11    2
    86    10    11    1
    87    10     9    1
    88    91    92    1
    89    92    93    1
    90    43    42    1
    91    43    44    2
    92    45    42    1
    93    42    41    1
    94    93    94    2
    95     7     6    1
    96    36    37    1
    97     4     3    2
    98    40    37    1
    99     2     3    1
   100     2     1    1
   101     2     5    1
   102    37    38    1
   103     6     5    1
   104     6     8    1
   105    39    38    2
