@<TRIPOS>MOLECULE
tmp/5xhkA00.pdb
 119 116 0 0 0
SMALL
GASTEIGER

@<TRIPOS>ATOM
      1  N          9.0920   15.9660    4.4000 N.3    30  TRP30      -0.1228
      2  CA         8.6630   17.3300    4.0740 C.3    30  TRP30       0.1722
      3  C          7.9740   17.5260    2.7100 C.2    30  TRP30       0.2437
      4  O          7.0620   18.3410    2.6180 O.2    30  TRP30      -0.2733
      5  CB         9.7810   18.3590    4.3170 C.3    30  TRP30       0.0563
      6  CG        10.9160   18.2790    3.3690 C.ar   30  TRP30       0.0003
      7  CD1       12.1000   17.6380    3.5710 C.ar   30  TRP30       0.0946
      8  CD2       10.9820   18.8480    2.0580 C.ar   30  TRP30       0.0152
      9  NE1       12.9090   17.7720    2.4660 N.ar   30  TRP30      -0.2442
     10  CE2       12.2430   18.5100    1.5210 C.ar   30  TRP30       0.0810
     11  CE3       10.0980   19.6160    1.2820 C.ar   30  TRP30       0.0012
     12  CZ2       12.6450   18.9110    0.2450 C.ar   30  TRP30       0.0191
     13  CZ3       10.4940   20.0040    0.0120 C.ar   30  TRP30       0.0001
     14  CH2       11.7600   19.6530   -0.4920 C.ar   30  TRP30       0.0015
     15  N          8.3730   16.7820    1.6520 N.am   31  PRO31      -0.2718
     16  CA         7.6800   17.0070    0.3810 C.3    31  PRO31       0.1535
     17  C          6.2080   16.6180    0.4400 C.2    31  PRO31       0.2598
     18  O          5.4440   17.0120   -0.4280 O.2    31  PRO31      -0.2715
     19  CB         8.4490   16.1070   -0.5960 C.3    31  PRO31       0.0310
     20  CG         9.7970   15.9630    0.0160 C.3    31  PRO31       0.0237
     21  CD         9.4740   15.8170    1.4770 C.3    31  PRO31       0.0939
     22  N          5.8230   15.8670    1.4670 N.am   32  PHE32      -0.1974
     23  CA         4.4740   15.3130    1.5640 C.3    32  PHE32       0.1639
     24  C          3.5950   16.0550    2.5720 C.2    32  PHE32       0.2290
     25  O          2.4550   15.6730    2.7980 O.2    32  PHE32      -0.2864
     26  CB         4.5800   13.8030    1.8640 C.3    32  PHE32       0.0560
     27  CG         5.5200   13.1200    0.9240 C.ar   32  PHE32      -0.0200
     28  CD1        5.1460   12.9170   -0.4100 C.ar   32  PHE32      -0.0042
     29  CD2        6.8220   12.8180    1.3120 C.ar   32  PHE32      -0.0042
     30  CE1        6.0310   12.3660   -1.3170 C.ar   32  PHE32      -0.0003
     31  CE2        7.7120   12.2610    0.3990 C.ar   32  PHE32      -0.0003
     32  CZ         7.3170   12.0360   -0.9150 C.ar   32  PHE32      -0.0000
     33  N          2.2180   19.1200    2.4990 N.3    34  LYS34      -0.1245
     34  CA         1.1720   19.9960    1.9890 C.3    34  LYS34       0.1561
     35  C          0.8160   19.6250    0.5510 C.2    34  LYS34       0.2260
     36  O          1.6080   18.9710   -0.1270 O.2    34  LYS34      -0.2867
     37  CB         1.6190   21.4720    2.0970 C.3    34  LYS34       0.0271
     38  CG         1.7070   21.9960    3.5310 C.3    34  LYS34       0.0035
     39  CD         0.3270   22.2050    4.1320 C.3    34  LYS34       0.0206
     40  CE         0.3340   22.1720    5.6510 C.3    34  LYS34       0.1093
     41  NZ         1.0760   23.2900    6.2830 N.3    34  LYS34      -0.1314
     42  N          0.7240   19.4520   -3.3030 N.3    36  VAL36      -0.1245
     43  CA         1.6630   19.8800   -4.3220 C.3    36  VAL36       0.1561
     44  C          1.1360   21.1510   -4.9770 C.2    36  VAL36       0.2260
     45  O          0.0200   21.1670   -5.5000 O.2    36  VAL36      -0.2867
     46  CB         1.8440   18.7810   -5.3860 C.3    36  VAL36       0.0252
     47  CG1        2.6400   19.3000   -6.5750 C.3    36  VAL36       0.0019
     48  CG2        2.5050   17.5490   -4.7770 C.3    36  VAL36       0.0019
     49  N          5.9000   25.1400   -8.4260 N.3    41  LEU41      -0.1245
     50  CA         7.0350   24.2740   -8.6860 C.3    41  LEU41       0.1561
     51  C          7.3480   24.1200  -10.1730 C.2    41  LEU41       0.2260
     52  O          8.3110   23.4460  -10.5310 O.2    41  LEU41      -0.2867
     53  CB         6.7990   22.9010   -8.0440 C.3    41  LEU41       0.0270
     54  CG         6.8210   22.8110   -6.5100 C.3    41  LEU41       0.0019
     55  CD1        6.2830   21.4710   -6.0340 C.3    41  LEU41       0.0001
     56  CD2        8.2170   23.0700   -5.9520 C.3    41  LEU41       0.0001
     57  N          5.5650   22.5100  -12.3130 N.3    43  LEU43      -0.1245
     58  CA         5.1610   21.1720  -12.7400 C.3    43  LEU43       0.1561
     59  C          3.8360   21.2650  -13.4810 C.2    43  LEU43       0.2260
     60  O          2.7970   20.8290  -12.9950 O.2    43  LEU43      -0.2867
     61  CB         5.0810   20.2050  -11.5430 C.3    43  LEU43       0.0270
     62  CG         6.2770   20.2140  -10.5780 C.3    43  LEU43       0.0019
     63  CD1        6.0320   19.2820   -9.4000 C.3    43  LEU43       0.0001
     64  CD2        7.5730   19.8700  -11.2970 C.3    43  LEU43       0.0001
     65  N          1.5020   18.2930  -13.8380 N.3    46  TYR46      -0.1241
     66  CA         1.2120   17.4900  -12.6550 C.3    46  TYR46       0.1605
     67  C         -0.2390   17.0420  -12.6240 C.2    46  TYR46       0.2264
     68  O         -0.5250   15.8630  -12.4200 O.2    46  TYR46      -0.2867
     69  CB         1.5710   18.2540  -11.3700 C.3    46  TYR46       0.0534
     70  CG         1.5030   17.3670  -10.1460 C.ar   46  TYR46      -0.0201
     71  CD1        2.5600   16.5080   -9.8220 C.ar   46  TYR46      -0.0009
     72  CD2        0.3760   17.3520   -9.3300 C.ar   46  TYR46      -0.0009
     73  CE1        2.4950   15.6730   -8.7130 C.ar   46  TYR46       0.0417
     74  CE2        0.3020   16.5180   -8.2230 C.ar   46  TYR46       0.0417
     75  CZ         1.3620   15.6860   -7.9220 C.ar   46  TYR46       0.1957
     76  OH         1.2640   14.8450   -6.8430 O.3    46  TYR46      -0.2866
     77  N          3.5770   10.0820   -6.1560 N.3    85  CYS85      -0.1235
     78  CA         5.0000   10.3770   -6.2570 C.3    85  CYS85       0.1677
     79  C          5.7150    9.4150   -7.2100 C.2    85  CYS85       0.2270
     80  O          6.4910    9.8380   -8.0760 O.2    85  CYS85      -0.2867
     81  CB         5.6370   10.3540   -4.8650 C.3    85  CYS85       0.0956
     82  SG         7.3300   10.9650   -4.7970 S.3    85  CYS85      -0.0801
     83  N          4.5330   10.2080  -10.9510 N.3    88  TYR88      -0.1227
     84  CA         4.9280   11.4620  -11.5840 C.3    88  TYR88       0.1736
     85  C          6.4260   11.5700  -11.8500 C.2    88  TYR88       0.2595
     86  O          6.8440   12.1230  -12.8790 O.2    88  TYR88      -0.2718
     87  CB         4.4560   12.6620  -10.7450 C.3    88  TYR88       0.0548
     88  CG         4.8260   13.9520  -11.4170 C.ar   88  TYR88      -0.0200
     89  CD1        4.1220   14.3980  -12.5370 C.ar   88  TYR88      -0.0009
     90  CD2        5.9250   14.6980  -10.9810 C.ar   88  TYR88      -0.0009
     91  CE1        4.4900   15.5600  -13.1990 C.ar   88  TYR88       0.0417
     92  CE2        6.2960   15.8650  -11.6340 C.ar   88  TYR88       0.0417
     93  CZ         5.5730   16.2820  -12.7420 C.ar   88  TYR88       0.1957
     94  OH         5.9360   17.4150  -13.4180 O.3    88  TYR88      -0.2866
     95  N          7.2350   11.0560  -10.9300 N.am   89  ASN89      -0.1974
     96  CA         8.6670   11.3070  -10.9490 C.3    89  ASN89       0.1688
     97  C          9.4500   10.1360  -11.4930 C.2    89  ASN89       0.2292
     98  O          9.0780    8.9910  -11.2510 O.2    89  ASN89      -0.2864
     99  CB         9.1680   11.5930   -9.5360 C.3    89  ASN89       0.1181
    100  CG         8.5160   12.8090   -8.9270 C.2    89  ASN89       0.2629
    101  OD1        8.8850   13.9460   -9.2300 O.2    89  ASN89      -0.2716
    102  ND2        7.5260   12.5830   -8.0880 N.am   89  ASN89      -0.0877
    103  N         14.8440    9.9050   -8.8890 N.3    93  HIS93      -0.1241
    104  CA        14.7050   11.2420   -8.3030 C.3    93  HIS93       0.1621
    105  C         14.7900   11.1780   -6.7710 C.2    93  HIS93       0.2264
    106  O         14.2600   10.2440   -6.1550 O.2    93  HIS93      -0.2867
    107  CB        13.3530   11.8320   -8.7290 C.3    93  HIS93       0.0745
    108  CG        13.2330   13.3120   -8.5330 C.ar   93  HIS93       0.0817
    109  ND1       13.1470   13.8940   -7.2880 N.ar   93  HIS93      -0.2268
    110  CD2       13.1610   14.3280   -9.4270 C.ar   93  HIS93       0.1154
    111  CE1       13.0430   15.2030   -7.4180 C.ar   93  HIS93       0.1986
    112  NE2       13.0500   15.4930   -8.7070 N.ar   93  HIS93      -0.2212
    113  N         13.1330   12.7640   -4.5900 N.3    95  VAL95      -0.1245
    114  CA        11.8130   12.7660   -3.9490 C.3    95  VAL95       0.1561
    115  C         11.2200   11.3620   -3.8740 C.2    95  VAL95       0.2260
    116  O         10.5020   11.0360   -2.9420 O.2    95  VAL95      -0.2867
    117  CB        10.8240   13.7800   -4.5810 C.3    95  VAL95       0.0252
    118  CG1       10.2900   13.2970   -5.9220 C.3    95  VAL95       0.0019
    119  CG2        9.6780   14.0740   -3.6170 C.3    95  VAL95       0.0019
@<TRIPOS>BOND
     1    65    66    1
     2    59    60    2
     3    59    58    1
     4    94    93    1
     5    91    93   ar
     6    91    89   ar
     7    86    85    2
     8    93    92   ar
     9    58    57    1
    10    58    61    1
    11    66    67    1
    12    66    69    1
    13    67    68    2
    14    89    88   ar
    15    85    84    1
    16    85    95   am
    17    92    90   ar
    18    84    83    1
    19    84    87    1
    20    61    62    1
    21    97    98    2
    22    97    96    1
    23    88    90   ar
    24    88    87    1
    25    69    70    1
    26    64    62    1
    27    96    95    1
    28    96    99    1
    29    62    63    1
    30    52    51    2
    31    51    50    1
    32    70    71   ar
    33    70    72   ar
    34    71    73   ar
    35    99   100    1
    36   110   112   ar
    37   110   108   ar
    38    72    74   ar
    39   101   100    2
    40   100   102   am
    41   103   104    1
    42   107   108    1
    43   107   104    1
    44    73    75   ar
    45   112   111   ar
    46    50    49    1
    47    50    53    1
    48   108   109   ar
    49   104   105    1
    50    74    75   ar
    51    80    79    2
    52    53    54    1
    53    75    76    1
    54   111   109   ar
    55    79    78    1
    56   105   106    2
    57    47    46    1
    58    54    55    1
    59    54    56    1
    60    78    77    1
    61    78    81    1
    62   118   117    1
    63    45    44    2
    64    46    48    1
    65    46    43    1
    66    44    43    1
    67    81    82    1
    68   113   114    1
    69   117   114    1
    70   117   119    1
    71    43    42    1
    72   114   115    1
    73   115   116    2
    74    30    32   ar
    75    30    28   ar
    76    32    31   ar
    77    19    20    1
    78    19    16    1
    79    14    13   ar
    80    14    12   ar
    81    18    17    2
    82    28    27   ar
    83    36    35    2
    84    13    11   ar
    85    20    21    1
    86    12    10   ar
    87    16    17    1
    88    16    15    1
    89    31    29   ar
    90    17    22   am
    91    35    34    1
    92    27    29   ar
    93    27    26    1
    94    11     8   ar
    95    22    23    1
    96    21    15    1
    97    10     8   ar
    98    10     9   ar
    99    23    26    1
   100    23    24    1
   101    15     3   am
   102    34    37    1
   103    34    33    1
   104     8     6   ar
   105    37    38    1
   106     9     7   ar
   107    24    25    2
   108     4     3    2
   109     3     2    1
   110     6     7   ar
   111     6     5    1
   112    38    39    1
   113     2     5    1
   114     2     1    1
   115    39    40    1
   116    40    41    1
