@<TRIPOS>MOLECULE
tmp/5xhlB00.pdb
 192 190 0 0 0
SMALL
GASTEIGER

@<TRIPOS>ATOM
      1  N         31.0140  -36.2510    6.8450 N.3    32  HIS32      -0.1226
      2  CA        32.3780  -36.6870    6.5430 C.3    32  HIS32       0.1752
      3  C         32.6420  -36.5430    5.0430 C.2    32  HIS32       0.2596
      4  O         32.7970  -37.5230    4.3200 O.2    32  HIS32      -0.2718
      5  CB        32.6120  -38.1100    7.0320 C.3    32  HIS32       0.0759
      6  CG        34.0570  -38.4430    7.2210 C.ar   32  HIS32       0.0818
      7  ND1       34.6170  -38.6650    8.4590 N.ar   32  HIS32      -0.2268
      8  CD2       35.0580  -38.5860    6.3250 C.ar   32  HIS32       0.1154
      9  CE1       35.9020  -38.9370    8.3150 C.ar   32  HIS32       0.1986
     10  NE2       36.1930  -38.8920    7.0300 N.ar   32  HIS32      -0.2212
     11  N         32.6970  -35.2870    4.6050 N.am   33  ARG33      -0.1966
     12  CA        32.7730  -34.9070    3.1880 C.3    33  ARG33       0.1714
     13  C         33.9960  -33.9960    3.0180 C.2    33  ARG33       0.2458
     14  O         34.5680  -33.5660    4.0250 O.2    33  ARG33      -0.2730
     15  CB        31.4870  -34.1750    2.7700 C.3    33  ARG33       0.0347
     16  CG        30.1940  -34.9200    3.0860 C.3    33  ARG33       0.0492
     17  CD        28.9560  -34.1450    2.6340 C.3    33  ARG33       0.2205
     18  NE        27.7160  -34.8510    2.9900 N.pl3  33  ARG33      -0.0865
     19  CZ        27.1610  -35.8590    2.3040 C.cat  33  ARG33       0.5346
     20  NH1       27.7050  -36.3330    1.1810 N.pl3  33  ARG33       0.1354
     21  NH2       26.0350  -36.4070    2.7510 N.pl3  33  ARG33       0.1354
     22  N         34.4140  -33.7090    1.7610 N.am   34  PRO34      -0.2716
     23  CA        35.6050  -32.8480    1.5680 C.3    34  PRO34       0.1536
     24  C         35.4510  -31.4160    2.1270 C.2    34  PRO34       0.2599
     25  O         34.4240  -30.7580    1.9050 O.2    34  PRO34      -0.2715
     26  CB        35.7940  -32.8170    0.0400 C.3    34  PRO34       0.0310
     27  CG        35.0110  -33.9730   -0.4830 C.3    34  PRO34       0.0237
     28  CD        33.8730  -34.1820    0.4730 C.3    34  PRO34       0.0939
     29  N         36.4740  -30.9720    2.8590 N.am   35  GLY35      -0.1955
     30  CA        36.4610  -29.6860    3.5620 C.3    35  GLY35       0.1869
     31  C         36.0300  -29.7550    5.0250 C.2    35  GLY35       0.2309
     32  O         36.5180  -28.9680    5.8430 O.2    35  GLY35      -0.2863
     33  N         36.2670  -32.0850    7.5940 N.3    37  VAL37      -0.1245
     34  CA        36.9560  -32.9820    8.5380 C.3    37  VAL37       0.1561
     35  C         38.2510  -32.2960    9.0270 C.2    37  VAL37       0.2260
     36  O         39.3290  -32.4870    8.4440 O.2    37  VAL37      -0.2867
     37  CB        37.2800  -34.3530    7.8800 C.3    37  VAL37       0.0252
     38  CG1       37.8130  -35.3440    8.9080 C.3    37  VAL37       0.0019
     39  CG2       36.0550  -34.9330    7.1840 C.3    37  VAL37       0.0019
     40  N         35.5080  -38.1180   12.6310 N.3    43  THR43      -0.1203
     41  CA        36.4450  -39.0370   11.9570 C.3    43  THR43       0.1994
     42  C         36.1720  -40.4960   12.2920 C.2    43  THR43       0.2618
     43  O         36.3640  -41.3730   11.4500 O.2    43  THR43      -0.2717
     44  CB        37.9380  -38.7580   12.2970 C.3    43  THR43       0.1784
     45  OG1       38.1800  -38.9210   13.7040 O.3    43  THR43      -0.2211
     46  CG2       38.3410  -37.3710   11.8470 C.3    43  THR43       0.0376
     47  N         35.7530  -40.7360   13.5360 N.am   44  GLY44      -0.1942
     48  CA        35.7230  -42.0680   14.1130 C.3    44  GLY44       0.2014
     49  C         37.1510  -42.5350   14.3130 C.2    44  GLY44       0.2639
     50  O         38.0910  -41.7370   14.1770 O.2    44  GLY44      -0.2714
     51  N         37.3150  -43.8260   14.6060 N.am   45  GLY45      -0.1939
     52  CA        38.6370  -44.3960   14.8100 C.3    45  GLY45       0.2014
     53  C         38.7880  -45.8630   14.4630 C.2    45  GLY45       0.2638
     54  O         37.8150  -46.5960   14.3320 O.2    45  GLY45      -0.2714
     55  N         40.0440  -46.2680   14.3320 N.am   46  PHE46      -0.1973
     56  CA        40.4360  -47.6360   14.0470 C.3    46  PHE46       0.1639
     57  C         41.1270  -48.2310   15.2720 C.2    46  PHE46       0.2290
     58  O         41.9350  -47.5560   15.9040 O.2    46  PHE46      -0.2864
     59  CB        41.4220  -47.6580   12.8740 C.3    46  PHE46       0.0560
     60  CG        40.7880  -47.3860   11.5450 C.ar   46  PHE46      -0.0200
     61  CD1       40.6600  -46.0960   11.0800 C.ar   46  PHE46      -0.0042
     62  CD2       40.3190  -48.4370   10.7530 C.ar   46  PHE46      -0.0042
     63  CE1       40.0730  -45.8390    9.8630 C.ar   46  PHE46      -0.0003
     64  CE2       39.7270  -48.1940    9.5440 C.ar   46  PHE46      -0.0003
     65  CZ        39.5960  -46.8930    9.1010 C.ar   46  PHE46      -0.0000
     66  N         46.3970  -46.2380   13.4990 N.3    50  PRO50      -0.2102
     67  CA        45.4150  -45.1540   13.2820 C.3    50  PRO50       0.1504
     68  C         44.5360  -45.2570   12.0210 C.2    50  PRO50       0.2575
     69  O         43.4680  -44.6620   11.9870 O.2    50  PRO50      -0.2718
     70  CB        46.3150  -43.9210   13.1400 C.3    50  PRO50       0.0282
     71  CG        47.5760  -44.4810   12.5290 C.3    50  PRO50       0.0208
     72  CD        47.7800  -45.7640   13.2930 C.3    50  PRO50       0.0893
     73  N         45.0110  -45.9470   10.9910 N.am   51  PHE51      -0.1977
     74  CA        44.3030  -46.0300    9.7100 C.3    51  PHE51       0.1639
     75  C         44.1300  -47.4670    9.2210 C.2    51  PHE51       0.2290
     76  O         44.0530  -47.7270    8.0230 O.2    51  PHE51      -0.2864
     77  CB        45.0700  -45.2050    8.6740 C.3    51  PHE51       0.0560
     78  CG        45.2170  -43.7530    9.0450 C.ar   51  PHE51      -0.0200
     79  CD1       44.1000  -42.9840    9.3550 C.ar   51  PHE51      -0.0042
     80  CD2       46.4710  -43.1520    9.0730 C.ar   51  PHE51      -0.0042
     81  CE1       44.2350  -41.6430    9.6870 C.ar   51  PHE51      -0.0003
     82  CE2       46.6130  -41.8160    9.3930 C.ar   51  PHE51      -0.0003
     83  CZ        45.4950  -41.0600    9.7080 C.ar   51  PHE51      -0.0000
     84  N         36.5920  -50.5480   12.8650 N.3    56  TYR56      -0.1241
     85  CA        36.3970  -49.1180   12.7140 C.3    56  TYR56       0.1605
     86  C         35.0820  -48.7840   13.3600 C.2    56  TYR56       0.2264
     87  O         34.0730  -49.4520   13.1020 O.2    56  TYR56      -0.2867
     88  CB        36.3510  -48.6660   11.2560 C.3    56  TYR56       0.0534
     89  CG        35.9000  -47.2170   11.0980 C.ar   56  TYR56      -0.0201
     90  CD1       36.7880  -46.1630   11.2810 C.ar   56  TYR56      -0.0009
     91  CD2       34.5740  -46.9060   10.7960 C.ar   56  TYR56      -0.0009
     92  CE1       36.3720  -44.8340   11.1510 C.ar   56  TYR56       0.0417
     93  CE2       34.1520  -45.5910   10.6600 C.ar   56  TYR56       0.0417
     94  CZ        35.0520  -44.5550   10.8490 C.ar   56  TYR56       0.1957
     95  OH        34.6280  -43.2510   10.7000 O.3    56  TYR56      -0.2866
     96  N         42.4900  -48.1510    5.5460 N.3    75  TYR75      -0.1241
     97  CA        42.0500  -46.8520    5.0550 C.3    75  TYR75       0.1605
     98  C         43.2360  -46.0500    4.4680 C.2    75  TYR75       0.2264
     99  O         44.2910  -45.9280    5.0960 O.2    75  TYR75      -0.2867
    100  CB        41.3670  -46.1000    6.1870 C.3    75  TYR75       0.0534
    101  CG        40.8980  -44.7270    5.8100 C.ar   75  TYR75      -0.0201
    102  CD1       39.9150  -44.5470    4.8410 C.ar   75  TYR75      -0.0009
    103  CD2       41.4330  -43.6010    6.4250 C.ar   75  TYR75      -0.0009
    104  CE1       39.4870  -43.2760    4.4930 C.ar   75  TYR75       0.0417
    105  CE2       41.0080  -42.3300    6.0970 C.ar   75  TYR75       0.0417
    106  CZ        40.0520  -42.1730    5.1240 C.ar   75  TYR75       0.1957
    107  OH        39.6470  -40.9100    4.8060 O.3    75  TYR75      -0.2866
    108  N         43.4430  -42.7860    3.4190 N.3    77  LEU77      -0.1231
    109  CA        43.5440  -41.3530    3.7540 C.3    77  LEU77       0.1693
    110  C         43.8850  -40.5210    2.5160 C.2    77  LEU77       0.2592
    111  O         43.0190  -40.3260    1.6830 O.2    77  LEU77      -0.2718
    112  CB        44.5130  -41.1310    4.9250 C.3    77  LEU77       0.0284
    113  CG        44.5810  -39.7280    5.5300 C.3    77  LEU77       0.0019
    114  CD1       43.3270  -39.4120    6.3420 C.3    77  LEU77       0.0001
    115  CD2       45.8330  -39.6220    6.3940 C.3    77  LEU77       0.0001
    116  N         45.1310  -40.0730    2.3690 N.am   78  PHE78      -0.1976
    117  CA        45.5130  -39.1910    1.2650 C.3    78  PHE78       0.1639
    118  C         46.1600  -39.8920    0.0740 C.2    78  PHE78       0.2290
    119  O         46.0580  -39.3880   -1.0420 O.2    78  PHE78      -0.2864
    120  CB        46.4110  -38.0610    1.7750 C.3    78  PHE78       0.0560
    121  CG        45.7580  -37.1920    2.8250 C.ar   78  PHE78      -0.0200
    122  CD1       44.4980  -36.6250    2.6090 C.ar   78  PHE78      -0.0042
    123  CD2       46.4030  -36.9270    4.0280 C.ar   78  PHE78      -0.0042
    124  CE1       43.9010  -35.8310    3.5790 C.ar   78  PHE78      -0.0003
    125  CE2       45.8080  -36.1350    4.9990 C.ar   78  PHE78      -0.0003
    126  CZ        44.5620  -35.5870    4.7740 C.ar   78  PHE78      -0.0000
    127  N         41.0280  -41.7750    0.3550 N.3    83  HIS83      -0.1241
    128  CA        39.8070  -41.8500    1.1560 C.3    83  HIS83       0.1621
    129  C         38.9470  -43.0810    0.8410 C.2    83  HIS83       0.2264
    130  O         37.7380  -42.9900    0.6030 O.2    83  HIS83      -0.2867
    131  CB        39.0290  -40.5540    1.0220 C.3    83  HIS83       0.0745
    132  CG        39.8030  -39.3690    1.4960 C.ar   83  HIS83       0.0817
    133  ND1       40.4180  -39.3360    2.7300 N.ar   83  HIS83      -0.2268
    134  CD2       40.0810  -38.1880    0.9030 C.ar   83  HIS83       0.1154
    135  CE1       41.0330  -38.1810    2.8800 C.ar   83  HIS83       0.1986
    136  NE2       40.8410  -37.4650    1.7900 N.ar   83  HIS83      -0.2212
    137  N         38.2020  -46.9180    2.2570 N.3    85  LEU85      -0.1245
    138  CA        38.2360  -48.0380    3.1720 C.3    85  LEU85       0.1561
    139  C         38.1150  -49.3020    2.3200 C.2    85  LEU85       0.2260
    140  O         37.1980  -49.4350    1.5170 O.2    85  LEU85      -0.2867
    141  CB        37.0820  -47.9720    4.1800 C.3    85  LEU85       0.0270
    142  CG        37.0640  -49.1030    5.2200 C.3    85  LEU85       0.0019
    143  CD1       38.0200  -48.7630    6.3490 C.3    85  LEU85       0.0001
    144  CD2       35.6590  -49.3890    5.7520 C.3    85  LEU85       0.0001
    145  N         36.9640  -46.1050   -4.0420 N.3   129  ARG129     -0.1245
    146  CA        35.6450  -45.8390   -3.4750 C.3   129  ARG129      0.1563
    147  C         34.4650  -46.5400   -4.1710 C.2   129  ARG129      0.2260
    148  O         33.3350  -46.4400   -3.6870 O.2   129  ARG129     -0.2867
    149  CB        35.3860  -44.3260   -3.4410 C.3   129  ARG129      0.0307
    150  CG        36.4250  -43.5380   -2.6610 C.3   129  ARG129      0.0489
    151  CD        36.0810  -42.0630   -2.6320 C.3   129  ARG129      0.2205
    152  NE        37.2750  -41.2510   -2.4380 N.pl3 129  ARG129     -0.0865
    153  CZ        37.3300  -39.9220   -2.5380 C.cat 129  ARG129      0.5346
    154  NH1       36.2390  -39.2110   -2.8080 N.pl3 129  ARG129      0.1354
    155  NH2       38.4920  -39.2950   -2.3520 N.pl3 129  ARG129      0.1354
    156  N         33.9010  -50.0850    0.9930 N.3   134  HIS134     -0.1241
    157  CA        33.8740  -48.6240    1.1550 C.3   134  HIS134      0.1621
    158  C         32.4590  -48.0440    1.0860 C.2   134  HIS134      0.2264
    159  O         32.0900  -47.2210    1.9060 O.2   134  HIS134     -0.2867
    160  CB        34.7170  -47.9030    0.1260 C.3   134  HIS134      0.0745
    161  CG        34.6240  -46.4100    0.2370 C.ar  134  HIS134      0.0817
    162  ND1       35.4290  -45.6740    1.0740 N.ar  134  HIS134     -0.2268
    163  CD2       33.7960  -45.5220   -0.3610 C.ar  134  HIS134      0.1154
    164  CE1       35.1170  -44.3960    0.9730 C.ar  134  HIS134      0.1986
    165  NE2       34.1240  -44.2770    0.1140 N.ar  134  HIS134     -0.2212
    166  N         30.2500  -49.0460    4.3480 N.3   137  VAL137     -0.1231
    167  CA        30.5960  -48.3580    5.5950 C.3   137  VAL137      0.1692
    168  C         30.4690  -46.8400    5.4490 C.2   137  VAL137      0.2592
    169  O         29.9220  -46.1890    6.3360 O.2   137  VAL137     -0.2718
    170  CB        32.0110  -48.7050    6.0890 C.3   137  VAL137      0.0266
    171  CG1       32.3110  -47.9940    7.4040 C.3   137  VAL137      0.0020
    172  CG2       32.1720  -50.2050    6.2740 C.3   137  VAL137      0.0020
    173  N         30.9680  -46.2730    4.3550 N.am  138  TYR138     -0.1976
    174  CA        30.8560  -44.8170    4.1430 C.3   138  TYR138      0.1639
    175  C         29.3960  -44.3490    4.1030 C.2   138  TYR138      0.2290
    176  O         29.0620  -43.2740    4.6160 O.2   138  TYR138     -0.2864
    177  CB        31.5770  -44.3710    2.8640 C.3   138  TYR138      0.0560
    178  CG        31.5910  -42.8640    2.6890 C.ar  138  TYR138     -0.0198
    179  CD1       32.3290  -42.0450    3.5490 C.ar  138  TYR138     -0.0009
    180  CD2       30.8370  -42.2530    1.6860 C.ar  138  TYR138     -0.0009
    181  CE1       32.3200  -40.6650    3.3980 C.ar  138  TYR138      0.0417
    182  CE2       30.8310  -40.8770    1.5240 C.ar  138  TYR138      0.0417
    183  CZ        31.5650  -40.0880    2.3780 C.ar  138  TYR138      0.1957
    184  OH        31.5370  -38.7300    2.1950 O.3   138  TYR138     -0.2866
    185  N         28.1030  -43.6190    7.5410 N.3   141  MET141     -0.1245
    186  CA        28.5980  -42.3460    8.0630 C.3   141  MET141      0.1570
    187  C         27.7230  -41.2020    7.5690 C.2   141  MET141      0.2261
    188  O         27.4990  -40.2410    8.2890 O.2   141  MET141     -0.2867
    189  CB        30.0550  -42.1160    7.6560 C.3   141  MET141      0.0387
    190  CG        31.0160  -43.2050    8.1250 C.3   141  MET141      0.0595
    191  SD        32.6260  -43.1590    7.3070 S.3   141  MET141     -0.1393
    192  CE        33.2300  -41.5900    7.9170 C.3   141  MET141      0.0692
@<TRIPOS>BOND
     1   147   148    2
     2   147   146    1
     3   145   146    1
     4   146   149    1
     5   149   150    1
     6   154   153    1
     7   150   151    1
     8   151   152    1
     9   153   152    2
    10   153   155    1
    11   119   118    2
    12    27    26    1
    13    27    28    1
    14   163   165   ar
    15   163   161   ar
    16    26    23    1
    17   118   117    1
    18   165   164   ar
    19   160   161    1
    20   160   157    1
    21   161   162   ar
    22   127   128    1
    23    28    22    1
    24   130   129    2
    25   129   128    1
    26   134   132   ar
    27   134   136   ar
    28   164   162   ar
    29   156   157    1
    30   131   128    1
    31   131   132    1
    32   158   157    1
    33   158   159    2
    34    20    19    1
    35   117   120    1
    36   117   116    1
    37   132   133   ar
    38   140   139    2
    39   182   180   ar
    40   182   183   ar
    41    23    22    1
    42    23    24    1
    43   111   110    2
    44   180   178   ar
    45    22    13   am
    46   120   121    1
    47   136   135   ar
    48    25    24    2
    49    24    29   am
    50   184   183    1
    51   137   138    1
    52    19    21    1
    53    19    18    2
    54   139   138    1
    55   116   110   am
    56   183   181   ar
    57   110   109    1
    58   122   121   ar
    59   122   124   ar
    60    17    18    1
    61    17    16    1
    62   178   177    1
    63   178   179   ar
    64   133   135   ar
    65    15    16    1
    66    15    12    1
    67   121   123   ar
    68    29    30    1
    69   177   174    1
    70    13    12    1
    71    13    14    2
    72   138   141    1
    73    12    11    1
    74   181   179   ar
    75   108   109    1
    76    30    31    1
    77   124   126   ar
    78   109   112    1
    79   123   125   ar
    80   175   174    1
    81   175   176    2
    82   174   173    1
    83   141   142    1
    84     4     3    2
    85   166   167    1
    86   173   168   am
    87    98    97    1
    88    98    99    2
    89   104   102   ar
    90   104   106   ar
    91    11     3   am
    92   126   125   ar
    93   107   106    1
    94   102   101   ar
    95   112   113    1
    96    31    32    2
    97     3     2    1
    98    97    96    1
    99    97   100    1
   100   106   105   ar
   101   142   144    1
   102   142   143    1
   103   168   167    1
   104   168   169    2
   105   113   114    1
   106   113   115    1
   107   167   170    1
   108   101   100    1
   109   101   103   ar
   110   170   172    1
   111   170   171    1
   112   105   103   ar
   113     8    10   ar
   114     8     6   ar
   115     2     1    1
   116     2     5    1
   117    10     9   ar
   118     5     6    1
   119    39    37    1
   120     6     7   ar
   121   191   192    1
   122   191   190    1
   123   185   186    1
   124   187   186    1
   125   187   188    2
   126    33    34    1
   127   189   186    1
   128   189   190    1
   129    37    34    1
   130    37    38    1
   131    76    75    2
   132     9     7   ar
   133    36    35    2
   134    34    35    1
   135    77    78    1
   136    77    74    1
   137    78    80   ar
   138    78    79   ar
   139    80    82   ar
   140    65    64   ar
   141    65    63   ar
   142    75    74    1
   143    79    81   ar
   144    82    83   ar
   145    64    62   ar
   146    81    83   ar
   147    74    73    1
   148    63    61   ar
   149    93    91   ar
   150    93    94   ar
   151    95    94    1
   152    62    60   ar
   153    91    89   ar
   154    94    92   ar
   155    73    68   am
   156    61    60   ar
   157    89    88    1
   158    89    90   ar
   159    92    90   ar
   160    88    85    1
   161    43    42    2
   162    60    59    1
   163    46    44    1
   164    41    42    1
   165    41    44    1
   166    41    40    1
   167    69    68    2
   168    68    67    1
   169    42    47   am
   170    44    45    1
   171    71    70    1
   172    71    72    1
   173    85    84    1
   174    85    86    1
   175    59    56    1
   176    87    86    2
   177    70    67    1
   178    67    66    1
   179    72    66    1
   180    47    48    1
   181    56    55    1
   182    56    57    1
   183    48    49    1
   184    50    49    2
   185    49    51   am
   186    54    53    2
   187    55    53   am
   188    53    52    1
   189    51    52    1
   190    57    58    2
