@<TRIPOS>MOLECULE
tmp/5xhpB01.pdb
 170 165 0 0 0
SMALL
GASTEIGER

@<TRIPOS>ATOM
      1  N         30.5500   -9.6780  -31.5880 N.3    25  GLN25      -0.1231
      2  CA        31.7460  -10.3360  -32.0890 C.3    25  GLN25       0.1698
      3  C         32.2690   -9.5880  -33.2760 C.2    25  GLN25       0.2592
      4  O         31.4850   -9.0920  -34.0810 O.2    25  GLN25      -0.2718
      5  CB        31.4110  -11.7690  -32.5000 C.3    25  GLN25       0.0381
      6  CG        32.3620  -12.4580  -33.4520 C.3    25  GLN25       0.0905
      7  CD        31.9730  -13.8960  -33.6390 C.2    25  GLN25       0.2608
      8  OE1       30.7870  -14.2180  -33.6840 O.2    25  GLN25      -0.2717
      9  NE2       32.9590  -14.7700  -33.7340 N.am   25  GLN25      -0.0878
     10  N         33.5880   -9.5150  -33.3880 N.am   26  TRP26      -0.1962
     11  CA        34.2080   -9.0690  -34.6150 C.3    26  TRP26       0.1771
     12  C         35.5030   -9.8230  -34.8260 C.2    26  TRP26       0.2620
     13  O         36.4490   -9.6920  -34.0620 O.2    26  TRP26      -0.2715
     14  CB        34.4490   -7.5540  -34.6500 C.3    26  TRP26       0.0590
     15  CG        34.9080   -7.0970  -36.0130 C.ar   26  TRP26       0.0006
     16  CD1       36.1750   -6.7670  -36.3730 C.ar   26  TRP26       0.0946
     17  CD2       34.1080   -6.9760  -37.1990 C.ar   26  TRP26       0.0152
     18  NE1       36.2140   -6.4110  -37.6910 N.ar   26  TRP26      -0.2442
     19  CE2       34.9630   -6.5490  -38.2320 C.ar   26  TRP26       0.0810
     20  CE3       32.7560   -7.1890  -37.4880 C.ar   26  TRP26       0.0012
     21  CZ2       34.5120   -6.3180  -39.5420 C.ar   26  TRP26       0.0191
     22  CZ3       32.3070   -6.9680  -38.8040 C.ar   26  TRP26       0.0001
     23  CH2       33.1870   -6.5340  -39.8080 C.ar   26  TRP26       0.0015
     24  N         35.5010  -10.6410  -35.8650 N.am   27  PHE27      -0.1960
     25  CA        36.6620  -11.3540  -36.3210 C.3    27  PHE27       0.1771
     26  C         37.0860  -10.6350  -37.5840 C.2    27  PHE27       0.2619
     27  O         36.3280  -10.5740  -38.5500 O.2    27  PHE27      -0.2715
     28  CB        36.2880  -12.8160  -36.5760 C.3    27  PHE27       0.0574
     29  CG        36.3530  -13.7100  -35.3410 C.ar   27  PHE27      -0.0200
     30  CD1       36.2600  -13.2000  -34.0490 C.ar   27  PHE27      -0.0042
     31  CD2       36.4680  -15.0970  -35.4870 C.ar   27  PHE27      -0.0042
     32  CE1       36.3230  -14.0490  -32.9540 C.ar   27  PHE27      -0.0003
     33  CE2       36.5420  -15.9440  -34.4000 C.ar   27  PHE27      -0.0003
     34  CZ        36.4650  -15.4150  -33.1300 C.ar   27  PHE27      -0.0000
     35  N         38.2900  -10.0720  -37.5590 N.am   28  GLU28      -0.1963
     36  CA        38.7520   -9.1870  -38.6020 C.3    28  GLU28       0.1733
     37  C         39.9080   -9.8280  -39.3330 C.2    28  GLU28       0.2616
     38  O         40.9710  -10.0620  -38.7360 O.2    28  GLU28      -0.2715
     39  CB        39.2260   -7.8780  -37.9940 C.3    28  GLU28       0.0429
     40  CG        39.6810   -6.8670  -39.0310 C.3    28  GLU28       0.1163
     41  CD        38.6860   -6.6590  -40.1620 C.2    28  GLU28       0.3649
     42  OE1       39.0050   -7.0200  -41.3100 O.co2  28  GLU28      -0.2457
     43  OE2       37.5900   -6.1340  -39.9020 O.co2  28  GLU28      -0.2457
     44  N         39.7140  -10.0810  -40.6300 N.am   29  ARG29      -0.1977
     45  CA        40.7300  -10.7310  -41.4620 C.3    29  ARG29       0.1597
     46  C         41.9170   -9.8260  -41.6610 C.2    29  ARG29       0.2287
     47  O         43.0540  -10.2620  -41.5620 O.2    29  ARG29      -0.2864
     48  CB        40.1880  -11.0800  -42.8510 C.3    29  ARG29       0.0334
     49  CG        39.1590  -12.1980  -42.8930 C.3    29  ARG29       0.0492
     50  CD        38.9490  -12.7140  -44.3100 C.3    29  ARG29       0.2205
     51  NE        38.3980  -11.7000  -45.2070 N.pl3  29  ARG29      -0.0865
     52  CZ        37.1090  -11.3610  -45.2970 C.cat  29  ARG29       0.5346
     53  NH1       36.1810  -11.9390  -44.5280 N.pl3  29  ARG29       0.1354
     54  NH2       36.7440  -10.4190  -46.1640 N.pl3  29  ARG29       0.1354
     55  N         44.0340   -2.7050  -42.9170 N.3    33  ARG33      -0.1245
     56  CA        43.1660   -1.6590  -43.4740 C.3    33  ARG33       0.1563
     57  C         42.6220   -0.7160  -42.4020 C.2    33  ARG33       0.2260
     58  O         41.9300    0.2420  -42.7200 O.2    33  ARG33      -0.2867
     59  CB        42.0060   -2.2440  -44.2820 C.3    33  ARG33       0.0307
     60  CG        40.9590   -3.0020  -43.4890 C.3    33  ARG33       0.0489
     61  CD        39.7940   -3.3570  -44.3920 C.3    33  ARG33       0.2205
     62  NE        39.1520   -4.6260  -44.0290 N.pl3  33  ARG33      -0.0865
     63  CZ        38.0720   -4.7720  -43.2550 C.cat  33  ARG33       0.5346
     64  NH1       37.4650   -3.7300  -42.7050 N.pl3  33  ARG33       0.1354
     65  NH2       37.5880   -5.9930  -43.0270 N.pl3  33  ARG33       0.1354
     66  N         28.1480    0.0120  -42.7700 N.3    47  ASN47      -0.1240
     67  CA        28.2810   -0.8070  -41.5900 C.3    47  ASN47       0.1653
     68  C         29.0130    0.0260  -40.5630 C.2    47  ASN47       0.2266
     69  O         30.2330   -0.0290  -40.4860 O.2    47  ASN47      -0.2867
     70  CB        29.0670   -2.1070  -41.8820 C.3    47  ASN47       0.1155
     71  CG        28.8670   -2.5930  -43.2850 C.2    47  ASN47       0.2627
     72  OD1       27.8640   -3.2410  -43.5410 O.2    47  ASN47      -0.2716
     73  ND2       29.7980   -2.3220  -44.1900 N.am   47  ASN47      -0.0877
     74  N         29.6370   -0.4550  -37.6330 N.3    49  TYR49      -0.1241
     75  CA        29.5260   -1.4530  -36.5750 C.3    49  TYR49       0.1605
     76  C         30.1260   -1.0380  -35.2690 C.2    49  TYR49       0.2264
     77  O         29.5840   -1.3550  -34.2380 O.2    49  TYR49      -0.2867
     78  CB        30.0190   -2.8220  -37.0300 C.3    49  TYR49       0.0534
     79  CG        28.9820   -3.5810  -37.8360 C.ar   49  TYR49      -0.0201
     80  CD1       27.6390   -3.1850  -37.8500 C.ar   49  TYR49      -0.0009
     81  CD2       29.3390   -4.6970  -38.5810 C.ar   49  TYR49      -0.0009
     82  CE1       26.7050   -3.8600  -38.5810 C.ar   49  TYR49       0.0417
     83  CE2       28.4010   -5.3920  -39.3110 C.ar   49  TYR49       0.0417
     84  CZ        27.0900   -4.9630  -39.3050 C.ar   49  TYR49       0.1957
     85  OH        26.1750   -5.6400  -40.0180 O.3    49  TYR49      -0.2866
     86  N         34.3150  -17.1720  -37.7900 N.3   164  PHE164     -0.1227
     87  CA        33.6060  -16.5010  -36.6560 C.3   164  PHE164      0.1736
     88  C         32.2780  -17.1180  -36.2480 C.2   164  PHE164      0.2595
     89  O         31.8450  -16.9380  -35.1140 O.2   164  PHE164     -0.2718
     90  CB        33.4180  -14.9790  -36.8540 C.3   164  PHE164      0.0547
     91  CG        32.9890  -14.5640  -38.2320 C.ar  164  PHE164     -0.0202
     92  CD1       33.9330  -14.3150  -39.2290 C.ar  164  PHE164     -0.0042
     93  CD2       31.6510  -14.3810  -38.5300 C.ar  164  PHE164     -0.0042
     94  CE1       33.5410  -13.9120  -40.4990 C.ar  164  PHE164     -0.0003
     95  CE2       31.2510  -13.9740  -39.7990 C.ar  164  PHE164     -0.0003
     96  CZ        32.1950  -13.7270  -40.7820 C.ar  164  PHE164     -0.0000
     97  N         31.6250  -17.8190  -37.1620 N.am  165  ASP165     -0.1974
     98  CA        30.4010  -18.5240  -36.7990 C.3   165  ASP165      0.1709
     99  C         30.6830  -19.8090  -36.0300 C.2   165  ASP165      0.2293
    100  O         29.8690  -20.1950  -35.2080 O.2   165  ASP165     -0.2864
    101  CB        29.5640  -18.7940  -38.0360 C.3   165  ASP165      0.1436
    102  CG        29.0130  -17.5140  -38.6560 C.2   165  ASP165      0.3671
    103  OD1       29.0140  -16.4510  -37.9850 O.co2 165  ASP165     -0.2456
    104  OD2       28.5700  -17.5660  -39.8200 O.co2 165  ASP165     -0.2456
    105  N         31.9050  -18.6130  -32.4320 N.3   168  ARG168     -0.1245
    106  CA        30.7470  -18.0750  -31.7480 C.3   168  ARG168      0.1563
    107  C         30.1390  -19.1700  -30.8970 C.2   168  ARG168      0.2260
    108  O         30.0680  -19.0440  -29.6770 O.2   168  ARG168     -0.2867
    109  CB        29.7230  -17.5550  -32.7370 C.3   168  ARG168      0.0307
    110  CG        28.5750  -16.7930  -32.0710 C.3   168  ARG168      0.0489
    111  CD        27.6650  -16.2010  -33.1160 C.3   168  ARG168      0.2205
    112  NE        28.4380  -15.4720  -34.1150 N.pl3 168  ARG168     -0.0865
    113  CZ        27.9380  -14.9180  -35.2090 C.cat 168  ARG168      0.5346
    114  NH1       26.6330  -14.9470  -35.4670 N.pl3 168  ARG168      0.1354
    115  NH2       28.7630  -14.2930  -36.0410 N.pl3 168  ARG168      0.1354
    116  N         24.4400  -13.4850  -27.4490 N.3   198  TYR198     -0.1241
    117  CA        25.1720  -13.0100  -28.6240 C.3   198  TYR198      0.1605
    118  C         24.2750  -12.1700  -29.5390 C.2   198  TYR198      0.2264
    119  O         23.0820  -12.3850  -29.6300 O.2   198  TYR198     -0.2867
    120  CB        25.8300  -14.1340  -29.4340 C.3   198  TYR198      0.0534
    121  CG        26.3630  -13.6030  -30.7530 C.ar  198  TYR198     -0.0201
    122  CD1       27.6190  -13.0190  -30.8440 C.ar  198  TYR198     -0.0009
    123  CD2       25.5630  -13.6020  -31.8830 C.ar  198  TYR198     -0.0009
    124  CE1       28.0720  -12.5030  -32.0370 C.ar  198  TYR198      0.0417
    125  CE2       26.0050  -13.0860  -33.0790 C.ar  198  TYR198      0.0417
    126  CZ        27.2590  -12.5450  -33.1610 C.ar  198  TYR198      0.1957
    127  OH        27.6690  -12.0560  -34.3840 O.3   198  TYR198     -0.2866
    128  N         24.6520  -10.2260  -33.5080 N.3   200  ASP200     -0.1225
    129  CA        25.2080   -9.5490  -34.6540 C.3   200  ASP200      0.1805
    130  C         25.4130   -8.0880  -34.2650 C.2   200  ASP200      0.2598
    131  O         24.5840   -7.5250  -33.5630 O.2   200  ASP200     -0.2718
    132  CB        24.2410   -9.6070  -35.8390 C.3   200  ASP200      0.1424
    133  CG        24.3330  -10.8950  -36.6530 C.2   200  ASP200      0.3668
    134  OD1       24.9330  -11.8960  -36.2040 O.co2 200  ASP200     -0.2456
    135  OD2       23.7710  -10.8920  -37.7680 O.co2 200  ASP200     -0.2456
    136  N         26.5000   -7.4740  -34.7230 N.am  201  ALA201     -0.1966
    137  CA        26.7570   -6.0480  -34.4630 C.3   201  ALA201      0.1728
    138  C         25.6520   -5.1470  -35.0030 C.2   201  ALA201      0.2616
    139  O         25.4940   -4.0230  -34.5150 O.2   201  ALA201     -0.2715
    140  CB        28.0970   -5.6270  -35.0580 C.3   201  ALA201      0.0334
    141  N         24.8940   -5.6530  -35.9920 N.am  202  ASP202     -0.1971
    142  CA        23.8170   -4.8960  -36.6500 C.3   202  ASP202      0.1709
    143  C         22.4070   -5.0280  -36.0630 C.2   202  ASP202      0.2293
    144  O         21.5090   -4.3470  -36.5250 O.2   202  ASP202     -0.2864
    145  CB        23.7740   -5.1650  -38.1610 C.3   202  ASP202      0.1436
    146  CG        23.5470   -6.6000  -38.5180 C.2   202  ASP202      0.3671
    147  OD1       24.1150   -7.5130  -37.8940 O.co2 202  ASP202     -0.2456
    148  OD2       22.8190   -6.8160  -39.4900 O.co2 202  ASP202     -0.2456
    149  N         21.9770  -17.3090  -37.1680 N.3   233  ASN233     -0.1240
    150  CA        22.9940  -17.2890  -36.1270 C.3   233  ASN233      0.1653
    151  C         23.1450  -15.8910  -35.5390 C.2   233  ASN233      0.2266
    152  O         23.9280  -15.6740  -34.6350 O.2   233  ASN233     -0.2867
    153  CB        24.3090  -17.7360  -36.7090 C.3   233  ASN233      0.1155
    154  CG        24.7920  -16.8210  -37.8120 C.2   233  ASN233      0.2627
    155  OD1       24.0880  -15.8950  -38.2370 O.2   233  ASN233     -0.2716
    156  ND2       25.9850  -17.0810  -38.2910 N.am  233  ASN233     -0.0877
    157  N         18.6810   -7.3980  -37.4160 N.3   299  ASN299     -0.1240
    158  CA        19.4470   -7.6920  -38.6370 C.3   299  ASN299      0.1653
    159  C         19.3100   -6.5650  -39.6610 C.2   299  ASN299      0.2266
    160  O         18.7310   -6.7260  -40.7240 O.2   299  ASN299     -0.2867
    161  CB        19.0360   -9.0670  -39.2040 C.3   299  ASN299      0.1155
    162  CG        19.6220   -9.3410  -40.5810 C.2   299  ASN299      0.2627
    163  OD1       20.8320   -9.2520  -40.7880 O.2   299  ASN299     -0.2716
    164  ND2       18.7530   -9.6800  -41.5290 N.am  299  ASN299     -0.0877
    165  N         21.6670   -5.1360  -41.3830 N.3   301  SER301     -0.1217
    166  CA        22.5840   -5.2670  -42.5250 C.3   301  SER301      0.1889
    167  C         21.8780   -5.5820  -43.8400 C.2   301  SER301      0.2288
    168  O         22.4180   -5.2840  -44.9010 O.2   301  SER301     -0.2866
    169  CB        23.6930   -6.3120  -42.2550 C.3   301  SER301      0.2089
    170  OG        23.2120   -7.5150  -41.6730 O.3   301  SER301     -0.2183
@<TRIPOS>BOND
     1    54    52    1
     2    52    51    2
     3    52    53    1
     4    51    50    1
     5   168   167    2
     6    61    62    1
     7    61    60    1
     8    50    49    1
     9    59    60    1
    10    59    56    1
    11    73    71   am
    12    62    63    2
    13   167   166    1
    14    72    71    2
    15    56    55    1
    16    56    57    1
    17    71    70    1
    18    63    65    1
    19    63    64    1
    20    49    48    1
    21    48    45    1
    22    66    67    1
    23    58    57    2
    24   166   169    1
    25   166   165    1
    26   169   170    1
    27    70    67    1
    28    46    47    2
    29    46    45    1
    30    67    68    1
    31   164   162   am
    32    45    44    1
    33    42    41   ar
    34   163   162    2
    35    96    94   ar
    36    96    95   ar
    37   160   159    2
    38    44    37   am
    39   162   161    1
    40    68    69    2
    41    94    92   ar
    42    41    43   ar
    43    41    40    1
    44    85    84    1
    45   104   102   ar
    46    23    21   ar
    47    23    22   ar
    48    95    93   ar
    49   159   158    1
    50    21    19   ar
    51   148   146   ar
    52    37    38    2
    53    37    36    1
    54    83    84   ar
    55    83    81   ar
    56    84    82   ar
    57    92    91   ar
    58   161   158    1
    59    40    39    1
    60    22    20   ar
    61   102   101    1
    62   102   103   ar
    63   158   157    1
    64    36    39    1
    65    36    35    1
    66    81    79   ar
    67    82    80   ar
    68    27    26    2
    69    93    91   ar
    70   146   145    1
    71   146   147   ar
    72   156   154   am
    73   155   154    2
    74    91    90    1
    75    19    18   ar
    76    19    17   ar
    77   145   142    1
    78   101    98    1
    79    80    79   ar
    80    79    78    1
    81   154   153    1
    82    86    87    1
    83   135   133   ar
    84    18    16   ar
    85    74    75    1
    86    26    35   am
    87    26    25    1
    88    20    17   ar
    89    17    15   ar
    90   149   150    1
    91    97    98    1
    92    97    88   am
    93    78    75    1
    94    90    87    1
    95    98    99    1
    96   153   150    1
    97    87    88    1
    98   133   134   ar
    99   133   132    1
   100   142   143    1
   101   142   141    1
   102    28    25    1
   103    28    29    1
   104    75    76    1
   105   144   143    2
   106    16    15   ar
   107    25    24    1
   108    88    89    2
   109   150   151    1
   110   115   113    1
   111    99   100    2
   112    15    14    1
   113   141   138   am
   114    24    12   am
   115   132   129    1
   116   151   152    2
   117    31    29   ar
   118    31    33   ar
   119   114   113    1
   120    29    30   ar
   121    76    77    2
   122   113   112    2
   123   140   137    1
   124   138   139    2
   125   138   137    1
   126    12    11    1
   127    12    13    2
   128   136   137    1
   129   136   130   am
   130   129   130    1
   131   129   128    1
   132    14    11    1
   133    11    10    1
   134    33    34   ar
   135   127   126    1
   136   130   131    2
   137   112   111    1
   138     4     3    2
   139    30    32   ar
   140     9     7   am
   141     8     7    2
   142     7     6    1
   143     6     5    1
   144    10     3   am
   145     3     2    1
   146   126   125   ar
   147   126   124   ar
   148    34    32   ar
   149   111   110    1
   150   125   123   ar
   151   109   110    1
   152   109   106    1
   153     5     2    1
   154   105   106    1
   155     2     1    1
   156   124   122   ar
   157   123   121   ar
   158   106   107    1
   159   107   108    2
   160   122   121   ar
   161   121   120    1
   162   119   118    2
   163   118   117    1
   164   120   117    1
   165   117   116    1
