@<TRIPOS>MOLECULE
tmp/5xhpB00.pdb
 73 67 0 0 0
SMALL
GASTEIGER

@<TRIPOS>ATOM
      1  N         24.6520  -10.2260  -33.5080 N.3   200  ASP200     -0.1239
      2  CA        25.2080   -9.5490  -34.6540 C.3   200  ASP200      0.1674
      3  C         25.4130   -8.0880  -34.2650 C.2   200  ASP200      0.2266
      4  O         24.5840   -7.5250  -33.5630 O.2   200  ASP200     -0.2867
      5  CB        24.2410   -9.6070  -35.8390 C.3   200  ASP200      0.1410
      6  CG        24.3330  -10.8950  -36.6530 C.2   200  ASP200      0.3668
      7  OD1       24.9330  -11.8960  -36.2040 O.co2 200  ASP200     -0.2456
      8  OD2       23.7710  -10.8920  -37.7680 O.co2 200  ASP200     -0.2456
      9  N         22.2060   -5.8480  -35.0390 N.3   203  MET203     -0.1245
     10  CA        20.8870   -5.9050  -34.3860 C.3   203  MET203      0.1570
     11  C         20.8870   -4.7580  -33.3830 C.2   203  MET203      0.2261
     12  O         21.7200   -4.7290  -32.4780 O.2   203  MET203     -0.2867
     13  CB        20.5800   -7.2500  -33.6870 C.3   203  MET203      0.0387
     14  CG        21.0860   -8.5360  -34.3410 C.3   203  MET203      0.0595
     15  SD        20.2620   -9.1750  -35.8080 S.3   203  MET203     -0.1393
     16  CE        18.7390   -9.7870  -35.1140 C.3   203  MET203      0.0692
     17  N         17.7390  -16.1980  -33.5620 N.3   221  HIS221     -0.1241
     18  CA        17.0920  -15.3400  -34.4890 C.3   221  HIS221      0.1621
     19  C         16.3870  -16.1670  -35.5180 C.2   221  HIS221      0.2264
     20  O         16.8540  -17.2430  -35.8780 O.2   221  HIS221     -0.2867
     21  CB        18.1330  -14.5240  -35.1600 C.3   221  HIS221      0.0745
     22  CG        17.5830  -13.5580  -36.1210 C.ar  221  HIS221      0.0817
     23  ND1       18.0850  -13.4190  -37.3890 N.ar  221  HIS221     -0.2268
     24  CD2       16.5760  -12.6670  -36.0040 C.ar  221  HIS221      0.1154
     25  CE1       17.4170  -12.4720  -38.0180 C.ar  221  HIS221      0.1986
     26  NE2       16.4960  -11.9980  -37.1980 N.ar  221  HIS221     -0.2212
     27  N         14.3410  -15.4810  -39.2750 N.3   223  SER223     -0.1217
     28  CA        14.0260  -14.4710  -40.2630 C.3   223  SER223      0.1889
     29  C         12.8110  -14.9610  -40.9820 C.2   223  SER223      0.2288
     30  O         12.6170  -16.1490  -41.0950 O.2   223  SER223     -0.2866
     31  CB        15.2000  -14.2650  -41.1920 C.3   223  SER223      0.2089
     32  OG        15.3870  -15.3920  -41.9970 O.3   223  SER223     -0.2183
     33  N         18.6310  -18.4390  -37.7130 N.3   232  GLU232     -0.1231
     34  CA        19.7300  -17.5250  -37.9860 C.3   232  GLU232      0.1699
     35  C         20.7110  -17.5260  -36.8610 C.2   232  GLU232      0.2592
     36  O         20.3310  -17.6930  -35.7180 O.2   232  GLU232     -0.2718
     37  CB        19.1720  -16.1230  -38.1870 C.3   232  GLU232      0.0402
     38  CG        18.4030  -15.9590  -39.4690 C.3   232  GLU232      0.1161
     39  CD        19.3110  -15.7650  -40.6580 C.2   232  GLU232      0.3649
     40  OE1       20.4550  -16.2540  -40.6350 O.co2 232  GLU232     -0.2457
     41  OE2       18.8780  -15.1280  -41.6320 O.co2 232  GLU232     -0.2457
     42  N         21.9770  -17.3090  -37.1680 N.am  233  ASN233     -0.1960
     43  CA        22.9940  -17.2890  -36.1270 C.3   233  ASN233      0.1819
     44  C         23.1450  -15.8910  -35.5390 C.2   233  ASN233      0.2621
     45  O         23.9280  -15.6740  -34.6350 O.2   233  ASN233     -0.2715
     46  CB        24.3090  -17.7360  -36.7090 C.3   233  ASN233      0.1195
     47  CG        24.7920  -16.8210  -37.8120 C.2   233  ASN233      0.2630
     48  OD1       24.0880  -15.8950  -38.2370 O.2   233  ASN233     -0.2716
     49  ND2       25.9850  -17.0810  -38.2910 N.am  233  ASN233     -0.0877
     50  N         22.3750  -14.9520  -36.0670 N.am  234  GLY234     -0.1954
     51  CA        22.5500  -13.5370  -35.8020 C.3   234  GLY234      0.1869
     52  C         22.0960  -13.0730  -34.4430 C.2   234  GLY234      0.2309
     53  O         22.4100  -11.9610  -34.0390 O.2   234  GLY234     -0.2863
     54  N         18.6810   -7.3980  -37.4160 N.3   299  ASN299     -0.1240
     55  CA        19.4470   -7.6920  -38.6370 C.3   299  ASN299      0.1653
     56  C         19.3100   -6.5650  -39.6610 C.2   299  ASN299      0.2266
     57  O         18.7310   -6.7260  -40.7240 O.2   299  ASN299     -0.2867
     58  CB        19.0360   -9.0670  -39.2040 C.3   299  ASN299      0.1155
     59  CG        19.6220   -9.3410  -40.5810 C.2   299  ASN299      0.2627
     60  OD1       20.8320   -9.2520  -40.7880 O.2   299  ASN299     -0.2716
     61  ND2       18.7530   -9.6800  -41.5290 N.am  299  ASN299     -0.0877
     62  N         21.6670   -5.1360  -41.3830 N.3   301  SER301     -0.1202
     63  CA        22.5840   -5.2670  -42.5250 C.3   301  SER301      0.2020
     64  C         21.8780   -5.5820  -43.8400 C.2   301  SER301      0.2619
     65  O         22.4180   -5.2840  -44.9010 O.2   301  SER301     -0.2717
     66  CB        23.6930   -6.3120  -42.2550 C.3   301  SER301      0.2103
     67  OG        23.2120   -7.5150  -41.6730 O.3   301  SER301     -0.2182
     68  N         20.6870   -6.1800  -43.7910 N.am  302  SER302     -0.1951
     69  CA        19.9230   -6.4030  -45.0290 C.3   302  SER302      0.1924
     70  C         19.4870   -5.0860  -45.7060 C.2   302  SER302      0.2314
     71  O         19.0650   -5.0970  -46.8690 O.2   302  SER302     -0.2863
     72  CB        18.7310   -7.3730  -44.8350 C.3   302  SER302      0.2116
     73  OG        18.0070   -7.1520  -43.6390 O.3   302  SER302     -0.2180
@<TRIPOS>BOND
     1    71    70    2
     2    70    69    1
     3    69    72    1
     4    69    68    1
     5    65    64    2
     6    72    73    1
     7    64    68   am
     8    64    63    1
     9    63    66    1
    10    63    62    1
    11    66    67    1
    12    32    31    1
    13    41    39   ar
    14    61    59   am
    15    31    28    1
    16    30    29    2
    17    29    28    1
    18    60    59    2
    19    57    56    2
    20    39    40   ar
    21    39    38    1
    22    59    58    1
    23    28    27    1
    24    56    55    1
    25    38    37    1
    26    58    55    1
    27    55    54    1
    28    49    47   am
    29    48    47    2
    30    37    34    1
    31    25    23   ar
    32    25    26   ar
    33    34    33    1
    34    34    35    1
    35    47    46    1
    36     8     6   ar
    37    23    22   ar
    38    26    24   ar
    39    42    35   am
    40    42    43    1
    41    35    36    2
    42    46    43    1
    43     6     7   ar
    44     6     5    1
    45    43    44    1
    46    22    24   ar
    47    22    21    1
    48    50    51    1
    49    50    44   am
    50    20    19    2
    51     5     2    1
    52    15    16    1
    53    15    14    1
    54    51    52    1
    55    44    45    2
    56    19    18    1
    57    21    18    1
    58     9    10    1
    59     2     3    1
    60     2     1    1
    61    18    17    1
    62    52    53    2
    63    10    13    1
    64    10    11    1
    65    14    13    1
    66     3     4    2
    67    11    12    2
