@<TRIPOS>MOLECULE
tmp/5xhqB03.pdb
 76 72 0 0 0
SMALL
GASTEIGER

@<TRIPOS>ATOM
      1  N        -28.9360   -5.6170   59.5940 N.3    14  ALA14      -0.1245
      2  CA       -29.7010   -6.6070   58.8520 C.3    14  ALA14       0.1562
      3  C        -30.7720   -5.9070   58.0240 C.2    14  ALA14       0.2260
      4  O        -31.0650   -6.3250   56.9140 O.2    14  ALA14      -0.2867
      5  CB       -30.3240   -7.6350   59.7720 C.3    14  ALA14       0.0290
      6  N        -30.0590   -5.4590   54.3170 N.3    17  THR17      -0.1203
      7  CA       -30.2930   -6.4910   53.3180 C.3    17  THR17       0.1994
      8  C        -31.5700   -6.2680   52.4960 C.2    17  THR17       0.2617
      9  O        -31.5750   -6.4950   51.2950 O.2    17  THR17      -0.2717
     10  CB       -30.3270   -7.8670   54.0030 C.3    17  THR17       0.1784
     11  OG1      -29.0080   -8.1820   54.4650 O.3    17  THR17      -0.2211
     12  CG2      -30.7820   -8.9760   53.0520 C.3    17  THR17       0.0376
     13  N        -32.6420   -5.7990   53.1200 N.am   18  LEU18      -0.1979
     14  CA       -33.9030   -5.5700   52.4000 C.3    18  LEU18       0.1596
     15  C        -33.8440   -4.5060   51.2940 C.2    18  LEU18       0.2287
     16  O        -34.8070   -4.3460   50.5350 O.2    18  LEU18      -0.2864
     17  CB       -34.9950   -5.1750   53.3890 C.3    18  LEU18       0.0297
     18  CG       -35.2670   -6.1720   54.5090 C.3    18  LEU18       0.0022
     19  CD1      -36.2150   -5.5650   55.5410 C.3    18  LEU18       0.0001
     20  CD2      -35.8410   -7.4430   53.9150 C.3    18  LEU18       0.0001
     21  N        -33.9850  -10.0320   46.4140 N.3    22  PRO22      -0.2102
     22  CA       -35.2980   -9.7980   45.7880 C.3    22  PRO22       0.1504
     23  C        -36.2700   -8.8770   46.5360 C.2    22  PRO22       0.2575
     24  O        -37.4350   -8.7860   46.1480 O.2    22  PRO22      -0.2718
     25  CB       -35.8840  -11.2010   45.7170 C.3    22  PRO22       0.0282
     26  CG       -35.3470  -11.8580   46.9490 C.3    22  PRO22       0.0208
     27  CD       -33.9460  -11.3210   47.1300 C.3    22  PRO22       0.0893
     28  N        -35.8210   -8.1940   47.5750 N.am   23  TYR23      -0.1977
     29  CA       -36.7610   -7.4000   48.3500 C.3    23  TYR23       0.1639
     30  C        -37.0260   -6.0530   47.6810 C.2    23  TYR23       0.2290
     31  O        -38.1660   -5.5760   47.6620 O.2    23  TYR23      -0.2864
     32  CB       -36.2440   -7.2160   49.7740 C.3    23  TYR23       0.0560
     33  CG       -35.7060   -8.4930   50.3740 C.ar   23  TYR23      -0.0198
     34  CD1      -36.5630   -9.5110   50.7730 C.ar   23  TYR23      -0.0009
     35  CD2      -34.3370   -8.6800   50.5420 C.ar   23  TYR23      -0.0009
     36  CE1      -36.0730  -10.6880   51.3200 C.ar   23  TYR23       0.0417
     37  CE2      -33.8350   -9.8450   51.0970 C.ar   23  TYR23       0.0417
     38  CZ       -34.7080  -10.8430   51.4810 C.ar   23  TYR23       0.1957
     39  OH       -34.2120  -11.9990   52.0230 O.3    23  TYR23      -0.2866
     40  N        -26.9330  -11.3070   57.5940 N.3    62  SER62      -0.1217
     41  CA       -28.2470  -11.5630   57.0090 C.3    62  SER62       0.1889
     42  C        -28.2620  -11.5860   55.4650 C.2    62  SER62       0.2288
     43  O        -29.2920  -11.8970   54.8520 O.2    62  SER62      -0.2866
     44  CB       -29.2480  -10.5130   57.4770 C.3    62  SER62       0.2089
     45  OG       -29.0610   -9.3000   56.7650 O.3    62  SER62      -0.2183
     46  N        -25.1130  -14.9380   53.6310 N.3    65  ASN65      -0.1240
     47  CA       -24.8970  -16.2660   54.2220 C.3    65  ASN65       0.1653
     48  C        -25.3990  -17.3400   53.2910 C.2    65  ASN65       0.2266
     49  O        -25.4430  -18.5070   53.6640 O.2    65  ASN65      -0.2867
     50  CB       -25.5700  -16.4250   55.5870 C.3    65  ASN65       0.1155
     51  CG       -27.0660  -16.2600   55.5150 C.2    65  ASN65       0.2627
     52  OD1      -27.7580  -17.0630   54.8750 O.2    65  ASN65      -0.2716
     53  ND2      -27.5890  -15.2120   56.1780 N.am   65  ASN65      -0.0877
     54  N        -32.0050  -21.4620   46.0780 N.3   403  LYS403     -0.1231
     55  CA       -32.9160  -20.3290   46.1060 C.3   403  LYS403      0.1693
     56  C        -32.4990  -19.2160   47.0290 C.2   403  LYS403      0.2593
     57  O        -33.3210  -18.4730   47.5040 O.2   403  LYS403     -0.2718
     58  CB       -34.3460  -20.7360   46.4330 C.3   403  LYS403      0.0285
     59  CG       -34.5790  -22.2120   46.5590 C.3   403  LYS403      0.0035
     60  CD       -34.2200  -22.9050   45.2740 C.3   403  LYS403      0.0206
     61  CE       -35.4210  -23.6080   44.6680 C.3   403  LYS403      0.1093
     62  NZ       -36.3950  -24.0550   45.6900 N.3   403  LYS403     -0.1314
     63  N        -31.2160  -19.0810   47.2540 N.am  404  SER404     -0.1938
     64  CA       -30.7230  -18.0160   48.0780 C.3   404  SER404      0.2055
     65  C        -30.9950  -16.6740   47.4380 C.2   404  SER404      0.2642
     66  O        -31.1750  -16.5670   46.2580 O.2   404  SER404     -0.2714
     67  CB       -29.2550  -18.2130   48.1730 C.3   404  SER404      0.2130
     68  OG       -29.0750  -19.4150   48.8570 O.3   404  SER404     -0.2179
     69  N        -30.9980  -15.6350   48.2350 N.am  405  ILE405     -0.1977
     70  CA       -31.0590  -14.2990   47.7250 C.3   405  ILE405      0.1596
     71  C        -29.8640  -14.0100   46.8360 C.2   405  ILE405      0.2287
     72  O        -29.8990  -13.1320   46.0520 O.2   405  ILE405     -0.2864
     73  CB       -31.0100  -13.3000   48.8750 C.3   405  ILE405      0.0276
     74  CG1      -29.8010  -13.5860   49.7570 C.3   405  ILE405      0.0022
     75  CG2      -32.2390  -13.3880   49.7090 C.3   405  ILE405      0.0022
     76  CD1      -29.5680  -12.5700   50.8370 C.3   405  ILE405      0.0001
@<TRIPOS>BOND
     1    61    60    1
     2    61    62    1
     3    60    59    1
     4    25    22    1
     5    25    26    1
     6    22    21    1
     7    22    23    1
     8    72    71    2
     9    54    55    1
    10    55    58    1
    11    55    56    1
    12    24    23    2
    13    66    65    2
    14    21    27    1
    15    58    59    1
    16    23    28   am
    17    71    70    1
    18    26    27    1
    19    56    63   am
    20    56    57    2
    21    63    64    1
    22    65    64    1
    23    65    69   am
    24    28    29    1
    25    31    30    2
    26    30    29    1
    27    70    69    1
    28    70    73    1
    29    64    67    1
    30    67    68    1
    31    29    32    1
    32    73    75    1
    33    73    74    1
    34    74    76    1
    35    32    33    1
    36    33    35   ar
    37    33    34   ar
    38    16    15    2
    39    35    37   ar
    40    34    36   ar
    41    37    38   ar
    42    15    14    1
    43     9     8    2
    44    36    38   ar
    45    38    39    1
    46    14    13    1
    47    14    17    1
    48     8    13   am
    49     8     7    1
    50    12    10    1
    51    48    49    2
    52    48    47    1
    53     7    10    1
    54     7     6    1
    55    17    18    1
    56    46    47    1
    57    20    18    1
    58    10    11    1
    59    47    50    1
    60    18    19    1
    61    43    42    2
    62    52    51    2
    63    42    41    1
    64    51    50    1
    65    51    53   am
    66    45    44    1
    67     4     3    2
    68    41    44    1
    69    41    40    1
    70     3     2    1
    71     2     1    1
    72     2     5    1
