@<TRIPOS>MOLECULE
tmp/5xhrA00.pdb
 141 132 0 0 0
SMALL
GASTEIGER

@<TRIPOS>ATOM
      1  N         20.9900   85.9690   94.5060 N.3    63  SER63      -0.1217
      2  CA        21.8190   85.0200   95.2340 C.3    63  SER63       0.1889
      3  C         21.1890   83.6700   95.5430 C.2    63  SER63       0.2288
      4  O         21.8910   82.7830   95.9980 O.2    63  SER63      -0.2866
      5  CB        22.3070   85.6280   96.5380 C.3    63  SER63       0.2089
      6  OG        23.2360   86.6860   96.2770 O.3    63  SER63      -0.2183
      7  N         33.3130   90.2430   98.1600 N.3   118  LEU118     -0.1231
      8  CA        31.9520   89.9730   97.7560 C.3   118  LEU118      0.1693
      9  C         31.8300   89.7530   96.2510 C.2   118  LEU118      0.2591
     10  O         31.2100   88.7840   95.8220 O.2   118  LEU118     -0.2718
     11  CB        31.0290   91.1030   98.2060 C.3   118  LEU118      0.0284
     12  CG        29.5680   91.0050   97.7990 C.3   118  LEU118      0.0019
     13  CD1       28.9220   89.7430   98.3410 C.3   118  LEU118      0.0001
     14  CD2       28.8230   92.2480   98.2780 C.3   118  LEU118      0.0001
     15  N         32.4240   90.6590   95.4700 N.am  119  GLN119     -0.1979
     16  CA        32.2300   90.7000   94.0370 C.3   119  GLN119      0.1601
     17  C         33.4860   90.3030   93.2710 C.2   119  GLN119      0.2287
     18  O         34.5990   90.6520   93.6390 O.2   119  GLN119     -0.2864
     19  CB        31.8130   92.1020   93.5880 C.3   119  GLN119      0.0394
     20  CG        30.5550   92.6190   94.2590 C.3   119  GLN119      0.0908
     21  CD        29.3110   91.8100   93.9590 C.2   119  GLN119      0.2608
     22  OE1       29.3290   90.8210   93.2240 O.2   119  GLN119     -0.2717
     23  NE2       28.1920   92.2770   94.4990 N.am  119  GLN119     -0.0878
     24  N         30.7400   86.2300  103.1940 N.3   149  TYR149     -0.1241
     25  CA        29.8600   85.9180  102.0710 C.3   149  TYR149      0.1605
     26  C         30.4080   86.5150  100.7750 C.2   149  TYR149      0.2264
     27  O         30.7040   87.7060  100.7080 O.2   149  TYR149     -0.2867
     28  CB        28.4500   86.4520  102.3660 C.3   149  TYR149      0.0534
     29  CG        27.4020   86.0630  101.3360 C.ar  149  TYR149     -0.0201
     30  CD1       27.3470   86.7060  100.1270 C.ar  149  TYR149     -0.0009
     31  CD2       26.4660   85.0620  101.5960 C.ar  149  TYR149     -0.0009
     32  CE1       26.4380   86.3440   99.1640 C.ar  149  TYR149      0.0417
     33  CE2       25.5600   84.6810  100.6430 C.ar  149  TYR149      0.0417
     34  CZ        25.5580   85.3120   99.4270 C.ar  149  TYR149      0.1957
     35  OH        24.5690   85.0490   98.5380 O.3   149  TYR149     -0.2866
     36  N         30.3890   86.1750   96.3100 N.3   151  ASN151     -0.1240
     37  CA        30.1460   85.6440   94.9810 C.3   151  ASN151      0.1653
     38  C         31.4360   85.1280   94.3510 C.2   151  ASN151      0.2266
     39  O         31.4270   84.1260   93.6350 O.2   151  ASN151     -0.2867
     40  CB        29.5210   86.7150   94.0900 C.3   151  ASN151      0.1155
     41  CG        28.2170   87.2620   94.6590 C.2   151  ASN151      0.2627
     42  OD1       27.3360   86.5080   95.0350 O.2   151  ASN151     -0.2716
     43  ND2       28.1310   88.5730   94.8020 N.am  151  ASN151     -0.0877
     44  N         19.0160   92.4190   85.2940 N.3   210  VAL210     -0.1231
     45  CA        20.4020   92.1350   85.6380 C.3   210  VAL210      0.1692
     46  C         21.2820   92.1000   84.3880 C.2   210  VAL210      0.2592
     47  O         20.8270   91.7000   83.3250 O.2   210  VAL210     -0.2718
     48  CB        20.5500   90.7760   86.3610 C.3   210  VAL210      0.0266
     49  CG1       20.2010   89.6000   85.4450 C.3   210  VAL210      0.0020
     50  CG2       21.9630   90.6480   86.8940 C.3   210  VAL210      0.0020
     51  N         22.5080   92.5870   84.5220 N.am  211  SER211     -0.1952
     52  CA        23.4960   92.5450   83.4350 C.3   211  SER211      0.1924
     53  C         24.3970   91.3210   83.5640 C.2   211  SER211      0.2314
     54  O         24.5570   90.7830   84.6590 O.2   211  SER211     -0.2863
     55  CB        24.3760   93.7990   83.4880 C.3   211  SER211      0.2116
     56  OG        23.5950   94.9610   83.3270 O.3   211  SER211     -0.2180
     57  N         24.4910   84.4980   90.9440 N.3   220  TYR220     -0.1241
     58  CA        23.3670   85.4050   91.0180 C.3   220  TYR220      0.1605
     59  C         22.5140   85.5540   89.7760 C.2   220  TYR220      0.2264
     60  O         21.6520   86.4310   89.7530 O.2   220  TYR220     -0.2867
     61  CB        23.8310   86.8000   91.4370 C.3   220  TYR220      0.0534
     62  CG        24.8610   87.3970   90.5030 C.ar  220  TYR220     -0.0201
     63  CD1       24.4890   88.0080   89.3130 C.ar  220  TYR220     -0.0009
     64  CD2       26.2100   87.3970   90.8410 C.ar  220  TYR220     -0.0009
     65  CE1       25.4350   88.5370   88.4560 C.ar  220  TYR220      0.0417
     66  CE2       27.1580   87.9410   89.9950 C.ar  220  TYR220      0.0417
     67  CZ        26.7590   88.5400   88.8240 C.ar  220  TYR220      0.1957
     68  OH        27.7190   89.0460   87.9820 O.3   220  TYR220     -0.2866
     69  N         21.6080   78.0360  103.6990 N.3   271  GLU271     -0.1245
     70  CA        21.9220   78.3050  105.0980 C.3   271  GLU271      0.1567
     71  C         20.8470   77.7300  106.0070 C.2   271  GLU271      0.2260
     72  O         19.6910   77.5610  105.6080 O.2   271  GLU271     -0.2867
     73  CB        22.0600   79.8080  105.3100 C.3   271  GLU271      0.0388
     74  CG        23.2530   80.3710  104.5320 C.3   271  GLU271      0.1160
     75  CD        23.2880   81.8860  104.4530 C.2   271  GLU271      0.3649
     76  OE1       23.9010   82.4090  103.4890 O.co2 271  GLU271     -0.2457
     77  OE2       22.8290   82.5580  105.4010 O.co2 271  GLU271     -0.2457
     78  N         21.6970   93.1750  106.3170 N.3   288  SER288     -0.1217
     79  CA        22.9850   93.4480  105.6660 C.3   288  SER288      0.1889
     80  C         24.1690   93.4880  106.6030 C.2   288  SER288      0.2288
     81  O         25.2120   92.9170  106.3040 O.2   288  SER288     -0.2866
     82  CB        22.9370   94.7840  104.9240 C.3   288  SER288      0.2089
     83  OG        22.1680   94.6450  103.7650 O.3   288  SER288     -0.2183
     84  N         24.8070   90.0580  107.5340 N.3   291  ALA291     -0.1231
     85  CA        24.9480   89.1220  106.4160 C.3   291  ALA291      0.1694
     86  C         26.2570   89.3570  105.6250 C.2   291  ALA291      0.2591
     87  O         26.8760   88.4090  105.1400 O.2   291  ALA291     -0.2718
     88  CB        23.7320   89.2170  105.4980 C.3   291  ALA291      0.0304
     89  N         26.7350   90.5960  105.5940 N.am  292  LEU292     -0.1980
     90  CA        27.9190   90.9050  104.8050 C.3   292  LEU292      0.1596
     91  C         29.2150   90.9620  105.6470 C.2   292  LEU292      0.2287
     92  O         30.3020   91.1110  105.1100 O.2   292  LEU292     -0.2864
     93  CB        27.7010   92.2180  104.0620 C.3   292  LEU292      0.0297
     94  CG        26.6390   92.1580  102.9610 C.3   292  LEU292      0.0022
     95  CD1       26.6840   93.4440  102.1620 C.3   292  LEU292      0.0001
     96  CD2       26.8060   90.9610  102.0230 C.3   292  LEU292      0.0001
     97  N         17.3660   80.9010  102.0050 N.3   314  LYS314     -0.1231
     98  CA        18.3040   81.7370  101.2840 C.3   314  LYS314      0.1693
     99  C         17.6140   83.0100  100.8040 C.2   314  LYS314      0.2593
    100  O         16.5380   82.9560  100.2050 O.2   314  LYS314     -0.2718
    101  CB        18.8900   80.9910  100.0770 C.3   314  LYS314      0.0285
    102  CG        20.0200   81.7450   99.3730 C.3   314  LYS314      0.0035
    103  CD        21.2270   81.8380  100.2900 C.3   314  LYS314      0.0206
    104  CE        22.3410   82.6270   99.6460 C.3   314  LYS314      0.1093
    105  NZ        22.1320   84.0920   99.7840 N.3   314  LYS314     -0.1314
    106  N         18.3020   84.1390  100.9980 N.am  315  THR315     -0.1939
    107  CA        17.8880   85.4350  100.4470 C.3   315  THR315      0.2028
    108  C         18.5740   85.6570   99.0940 C.2   315  THR315      0.2643
    109  O         19.6720   85.1800   98.8730 O.2   315  THR315     -0.2714
    110  CB        18.2710   86.5800  101.4100 C.3   315  THR315      0.1808
    111  OG1       19.6440   86.4570  101.7970 O.3   315  THR315     -0.2208
    112  CG2       17.4300   86.5440  102.6770 C.3   315  THR315      0.0379
    113  N         17.9170   86.3540   98.1770 N.am  316  GLY316     -0.1939
    114  CA        18.5670   86.7350   96.9250 C.3   316  GLY316      0.2014
    115  C         17.9870   87.9860   96.3020 C.2   316  GLY316      0.2640
    116  O         16.7780   88.1720   96.3000 O.2   316  GLY316     -0.2714
    117  N         18.8500   88.8220   95.7240 N.am  317  SER317     -0.1935
    118  CA        18.4410   90.1280   95.2150 C.3   317  SER317      0.2055
    119  C         19.2620   90.3810   93.9860 C.2   317  SER317      0.2644
    120  O         20.3720   89.8690   93.8790 O.2   317  SER317     -0.2714
    121  CB        18.7380   91.2530   96.2210 C.3   317  SER317      0.2130
    122  OG        18.0210   91.0830   97.4390 O.3   317  SER317     -0.2179
    123  N         18.7160   91.1820   93.0800 N.am  318  THR318     -0.1936
    124  CA        19.4920   91.8560   92.0640 C.3   318  THR318      0.2028
    125  C         19.0920   93.3120   92.1540 C.2   318  THR318      0.2642
    126  O         18.3840   93.6990   93.0780 O.2   318  THR318     -0.2714
    127  CB        19.1380   91.3000   90.6830 C.3   318  THR318      0.1808
    128  OG1       17.7550   91.5240   90.4380 O.3   318  THR318     -0.2208
    129  CG2       19.3830   89.8290   90.6320 C.3   318  THR318      0.0379
    130  N         19.5030   94.1260   91.1890 N.am  319  GLY319     -0.1954
    131  CA        19.1580   95.5380   91.2390 C.3   319  GLY319      0.1869
    132  C         17.6570   95.7640   91.3370 C.2   319  GLY319      0.2309
    133  O         17.1980   96.6350   92.0710 O.2   319  GLY319     -0.2863
    134  N         15.7350   92.7030  103.4240 N.3   345  ASN345     -0.1240
    135  CA        15.6930   91.3000  103.8010 C.3   345  ASN345      0.1653
    136  C         14.8860   91.0160  105.0620 C.2   345  ASN345      0.2266
    137  O         14.1390   90.0400  105.1090 O.2   345  ASN345     -0.2867
    138  CB        17.1050   90.7580  103.9420 C.3   345  ASN345      0.1155
    139  CG        17.7520   90.4520  102.6080 C.2   345  ASN345      0.2627
    140  OD1       17.1210   90.5180  101.5470 O.2   345  ASN345     -0.2716
    141  ND2       19.0230   90.1140  102.6560 N.am  345  ASN345     -0.0877
@<TRIPOS>BOND
     1    47    46    2
     2    56    55    1
     3    52    55    1
     4    52    53    1
     5    52    51    1
     6    53    54    2
     7    46    51   am
     8    46    45    1
     9    44    45    1
    10    49    48    1
    11    45    48    1
    12    48    50    1
    13    68    67    1
    14    65    67   ar
    15    65    63   ar
    16    67    66   ar
    17    63    62   ar
    18    60    59    2
    19    59    58    1
    20    66    64   ar
    21   128   127    1
    22    62    64   ar
    23    62    61    1
    24   129   127    1
    25   127   124    1
    26    57    58    1
    27    58    61    1
    28   130   131    1
    29   130   125   am
    30   131   132    1
    31   132   133    2
    32   124   125    1
    33   124   123    1
    34   125   126    2
    35   123   119   am
    36    22    21    2
    37    17    18    2
    38    17    16    1
    39    19    16    1
    40    19    20    1
    41    39    38    2
    42   120   119    2
    43    21    20    1
    44    21    23   am
    45   119   118    1
    46    16    15    1
    47    40    41    1
    48    40    37    1
    49    38    37    1
    50     1     2    1
    51    41    43   am
    52    41    42    2
    53    37    36    1
    54   118   117    1
    55   118   121    1
    56     2     3    1
    57     2     5    1
    58    15     9   am
    59     3     4    2
    60   117   115   am
    61    10     9    2
    62   121   122    1
    63     9     8    1
    64     6     5    1
    65   116   115    2
    66   115   114    1
    67   114   113    1
    68     8     7    1
    69     8    11    1
    70    12    11    1
    71    12    14    1
    72    12    13    1
    73   113   108   am
    74    35    34    1
    75   109   108    2
    76   108   107    1
    77    32    34   ar
    78    32    30   ar
    79   102   101    1
    80   102   103    1
    81    34    33   ar
    82   104   105    1
    83   104   103    1
    84   101    98    1
    85    30    29   ar
    86   100    99    2
    87   107   106    1
    88   107   110    1
    89    33    31   ar
    90    27    26    2
    91    26    25    1
    92    99   106   am
    93    99    98    1
    94    98    97    1
    95    29    31   ar
    96    29    28    1
    97   110   111    1
    98   110   112    1
    99   140   139    2
   100    96    94    1
   101    25    28    1
   102    25    24    1
   103    95    94    1
   104   139   141   am
   105   139   138    1
   106    94    93    1
   107   134   135    1
   108    76    75   ar
   109    69    70    1
   110    83    82    1
   111   135   138    1
   112   135   136    1
   113    93    90    1
   114    75    74    1
   115    75    77   ar
   116    74    73    1
   117    90    89    1
   118    90    91    1
   119    82    79    1
   120   136   137    2
   121    70    73    1
   122    70    71    1
   123    92    91    2
   124    87    86    2
   125    88    85    1
   126    89    86   am
   127    72    71    2
   128    86    85    1
   129    79    78    1
   130    79    80    1
   131    81    80    2
   132    85    84    1
