@<TRIPOS>MOLECULE
tmp/5xhsA01.pdb
 150 144 0 0 0
SMALL
GASTEIGER

@<TRIPOS>ATOM
      1  N         10.1500  -23.0860  -17.5720 N.3    34  THR34      -0.1218
      2  CA        10.7360  -23.5100  -16.3170 C.3    34  THR34       0.1862
      3  C          9.7590  -24.2410  -15.4130 C.2    34  THR34       0.2287
      4  O         10.1930  -25.0080  -14.5330 O.2    34  THR34      -0.2866
      5  CB        11.2820  -22.2910  -15.5850 C.3    34  THR34       0.1770
      6  OG1       11.9430  -22.7310  -14.4070 O.3    34  THR34      -0.2211
      7  CG2       10.1550  -21.3130  -15.2270 C.3    34  THR34       0.0375
      8  N          8.1910  -23.1650  -13.0150 N.3    36  ARG36      -0.1245
      9  CA         8.4900  -22.7370  -11.6540 C.3    36  ARG36       0.1563
     10  C          7.6900  -21.5090  -11.2350 C.2    36  ARG36       0.2260
     11  O          7.0710  -21.5130  -10.1620 O.2    36  ARG36      -0.2867
     12  CB         9.9970  -22.4360  -11.5080 C.3    36  ARG36       0.0307
     13  CG        10.9410  -23.6500  -11.5900 C.3    36  ARG36       0.0489
     14  CD        10.7970  -24.5760  -10.3750 C.3    36  ARG36       0.2205
     15  NE        11.0020  -23.8670   -9.1100 N.pl3  36  ARG36      -0.0865
     16  CZ        12.1940  -23.5700   -8.5870 C.cat  36  ARG36       0.5346
     17  NH1       13.3110  -23.9130   -9.2150 N.pl3  36  ARG36       0.1354
     18  NH2       12.2670  -22.9230   -7.4290 N.pl3  36  ARG36       0.1354
     19  N          6.8660  -27.6710  -11.3270 N.3    47  ALA47      -0.1245
     20  CA         8.0520  -28.4980  -11.1480 C.3    47  ALA47       0.1562
     21  C          8.1010  -29.0840   -9.7410 C.2    47  ALA47       0.2260
     22  O          8.3880  -30.2680   -9.5690 O.2    47  ALA47      -0.2867
     23  CB         9.3050  -27.6820  -11.4540 C.3    47  ALA47       0.0290
     24  N          9.0720  -32.8380   -9.9150 N.3    51  ALA51      -0.1245
     25  CA        10.5130  -33.0230   -9.7030 C.3    51  ALA51       0.1562
     26  C         10.8000  -33.4870   -8.2720 C.2    51  ALA51       0.2260
     27  O         11.4950  -32.8300   -7.5120 O.2    51  ALA51      -0.2867
     28  CB        11.2590  -31.7220   -9.9880 C.3    51  ALA51       0.0290
     29  N          9.2870  -34.7960  -18.2890 N.3    67  TYR67      -0.1241
     30  CA        10.6740  -34.6320  -18.7380 C.3    67  TYR67       0.1605
     31  C         10.8570  -34.9610  -20.2270 C.2    67  TYR67       0.2264
     32  O         11.7180  -34.3710  -20.8840 O.2    67  TYR67      -0.2867
     33  CB        11.5910  -35.4890  -17.8520 C.3    67  TYR67       0.0534
     34  CG        11.8640  -34.8230  -16.5150 C.ar   67  TYR67      -0.0201
     35  CD1       11.1840  -35.2070  -15.3560 C.ar   67  TYR67      -0.0009
     36  CD2       12.7660  -33.7600  -16.4220 C.ar   67  TYR67      -0.0009
     37  CE1       11.4230  -34.5590  -14.1430 C.ar   67  TYR67       0.0417
     38  CE2       13.0030  -33.1120  -15.2160 C.ar   67  TYR67       0.0417
     39  CZ        12.3390  -33.5240  -14.0770 C.ar   67  TYR67       0.1957
     40  OH        12.5910  -32.8820  -12.8650 O.3    67  TYR67      -0.2866
     41  N         10.0120  -31.7730  -21.8790 N.3    70  ARG70      -0.1245
     42  CA        11.0480  -30.7610  -21.7700 C.3    70  ARG70       0.1563
     43  C         12.2420  -31.0620  -22.6800 C.2    70  ARG70       0.2260
     44  O         12.8440  -30.1280  -23.2260 O.2    70  ARG70      -0.2867
     45  CB        11.4440  -30.6110  -20.3050 C.3    70  ARG70       0.0307
     46  CG        10.2630  -30.0920  -19.4600 C.3    70  ARG70       0.0489
     47  CD        10.5710  -30.0570  -17.9850 C.3    70  ARG70       0.2205
     48  NE        11.6370  -29.1330  -17.6550 N.pl3  70  ARG70      -0.0865
     49  CZ        12.1100  -28.9740  -16.4200 C.cat  70  ARG70       0.5346
     50  NH1       11.6000  -29.6780  -15.4220 N.pl3  70  ARG70       0.1354
     51  NH2       13.0750  -28.1150  -16.1770 N.pl3  70  ARG70       0.1354
     52  N         22.4920  -23.8160  -12.5550 N.3   105  GLN105     -0.1245
     53  CA        21.3500  -24.5950  -12.1300 C.3   105  GLN105      0.1566
     54  C         20.4910  -25.0740  -13.2970 C.2   105  GLN105      0.2260
     55  O         19.6180  -25.9200  -13.0820 O.2   105  GLN105     -0.2867
     56  CB        20.4800  -23.7570  -11.1990 C.3   105  GLN105      0.0367
     57  CG        19.8500  -22.5630  -11.8940 C.3   105  GLN105      0.0905
     58  CD        18.7000  -22.0240  -11.1170 C.2   105  GLN105      0.2608
     59  OE1       18.6910  -20.8410  -10.6980 O.2   105  GLN105     -0.2717
     60  NE2       17.7060  -22.8890  -10.8920 N.am  105  GLN105     -0.0878
     61  N         19.1860  -26.9500  -16.6350 N.3   107  ILE107     -0.1245
     62  CA        19.3140  -28.3510  -17.0010 C.3   107  ILE107      0.1561
     63  C         19.1180  -28.5660  -18.4950 C.2   107  ILE107      0.2260
     64  O         19.0760  -29.7050  -18.9480 O.2   107  ILE107     -0.2867
     65  CB        18.3550  -29.2480  -16.1800 C.3   107  ILE107      0.0252
     66  CG1       16.8910  -28.9540  -16.4930 C.3   107  ILE107      0.0019
     67  CG2       18.5850  -29.1000  -14.6320 C.3   107  ILE107      0.0019
     68  CD1       16.0040  -30.0820  -16.1490 C.3   107  ILE107      0.0001
     69  N         22.4180  -29.0760  -11.1950 N.3   123  HIS123     -0.1241
     70  CA        21.1680  -29.8240  -11.1340 C.3   123  HIS123      0.1621
     71  C         21.1020  -30.9620  -12.1460 C.2   123  HIS123      0.2264
     72  O         20.0490  -31.5920  -12.2730 O.2   123  HIS123     -0.2867
     73  CB        19.9950  -28.8680  -11.3260 C.3   123  HIS123      0.0745
     74  CG        19.7720  -27.9920  -10.1420 C.ar  123  HIS123      0.0817
     75  ND1       18.9400  -26.8970  -10.1600 N.ar  123  HIS123     -0.2268
     76  CD2       20.3010  -28.0430   -8.8960 C.ar  123  HIS123      0.1154
     77  CE1       18.9600  -26.3140   -8.9760 C.ar  123  HIS123      0.1986
     78  NE2       19.7730  -26.9920   -8.1900 N.ar  123  HIS123     -0.2212
     79  N         18.7040  -35.6010  -12.9500 N.3   185  VAL185     -0.1231
     80  CA        18.5010  -34.2330  -12.5020 C.3   185  VAL185      0.1692
     81  C         18.2870  -34.2510  -10.9940 C.2   185  VAL185      0.2592
     82  O         17.7550  -35.2050  -10.4220 O.2   185  VAL185     -0.2718
     83  CB        17.3150  -33.5400  -13.2400 C.3   185  VAL185      0.0266
     84  CG1       17.4260  -33.7410  -14.7940 C.3   185  VAL185      0.0020
     85  CG2       15.9970  -34.0720  -12.7850 C.3   185  VAL185      0.0020
     86  N         18.7390  -33.1960  -10.3460 N.am  186  VAL186     -0.1966
     87  CA        18.5260  -33.0530   -8.9170 C.3   186  VAL186      0.1727
     88  C         17.0670  -32.6660   -8.7030 C.2   186  VAL186      0.2616
     89  O         16.5860  -31.6610   -9.2370 O.2   186  VAL186     -0.2715
     90  CB        19.4910  -32.0210   -8.3040 C.3   186  VAL186      0.0290
     91  CG1       19.2170  -31.8560   -6.8310 C.3   186  VAL186      0.0023
     92  CG2       20.9730  -32.4690   -8.4930 C.3   186  VAL186      0.0023
     93  N         16.3560  -33.4710   -7.9340 N.am  187  TRP187     -0.1960
     94  CA        14.9720  -33.1460   -7.6390 C.3   187  TRP187      0.1771
     95  C         14.8500  -32.3230   -6.3540 C.2   187  TRP187      0.2620
     96  O         15.7970  -32.1830   -5.5640 O.2   187  TRP187     -0.2715
     97  CB        14.1580  -34.4190   -7.5510 C.3   187  TRP187      0.0590
     98  CG        13.8360  -34.9630   -8.9110 C.ar  187  TRP187      0.0006
     99  CD1       13.7190  -34.2510  -10.0700 C.ar  187  TRP187      0.0946
    100  CD2       13.5960  -36.3260   -9.2570 C.ar  187  TRP187      0.0152
    101  NE1       13.4230  -35.0810  -11.1100 N.ar  187  TRP187     -0.2442
    102  CE2       13.3350  -36.3650  -10.6390 C.ar  187  TRP187      0.0810
    103  CE3       13.5690  -37.5240   -8.5330 C.ar  187  TRP187      0.0012
    104  CZ2       13.0410  -37.5560  -11.3110 C.ar  187  TRP187      0.0191
    105  CZ3       13.2770  -38.7010   -9.2050 C.ar  187  TRP187      0.0001
    106  CH2       13.0300  -38.7090  -10.5750 C.ar  187  TRP187      0.0015
    107  N         13.6660  -31.7280   -6.1860 N.am  188  PHE188     -0.1960
    108  CA        13.3350  -31.0860   -4.9270 C.3   188  PHE188      0.1771
    109  C         13.4960  -32.0970   -3.8040 C.2   188  PHE188      0.2620
    110  O         13.0450  -33.2430   -3.9120 O.2   188  PHE188     -0.2715
    111  CB        11.9100  -30.5270   -4.9520 C.3   188  PHE188      0.0574
    112  CG        11.7410  -29.2720   -5.7920 C.ar  188  PHE188     -0.0200
    113  CD1       11.9140  -28.0120   -5.2330 C.ar  188  PHE188     -0.0042
    114  CD2       11.3810  -29.3560   -7.1380 C.ar  188  PHE188     -0.0042
    115  CE1       11.7370  -26.8690   -5.9990 C.ar  188  PHE188     -0.0003
    116  CE2       11.2130  -28.2140   -7.9080 C.ar  188  PHE188     -0.0003
    117  CZ        11.3840  -26.9730   -7.3330 C.ar  188  PHE188     -0.0000
    118  N         14.1880  -31.6780   -2.7420 N.am  189  GLY189     -0.1940
    119  CA        14.3960  -32.5330   -1.5970 C.3   189  GLY189      0.2014
    120  C         15.5630  -33.4620   -1.7430 C.2   189  GLY189      0.2638
    121  O         15.6660  -34.4340   -1.0010 O.2   189  GLY189     -0.2714
    122  N         16.4580  -33.1970   -2.6760 N.am  190  GLU190     -0.1977
    123  CA        17.5570  -34.1050   -2.9390 C.3   190  GLU190      0.1602
    124  C         18.8760  -33.3780   -2.7380 C.2   190  GLU190      0.2287
    125  O         18.9680  -32.1520   -2.8840 O.2   190  GLU190     -0.2864
    126  CB        17.4880  -34.6830   -4.3640 C.3   190  GLU190      0.0415
    127  CG        16.7930  -36.0150   -4.4480 C.3   190  GLU190      0.1163
    128  CD        16.6880  -36.5690   -5.8540 C.2   190  GLU190      0.3649
    129  OE1       17.1090  -35.8880   -6.8280 O.co2 190  GLU190     -0.2457
    130  OE2       16.1790  -37.6990   -5.9860 O.co2 190  GLU190     -0.2457
    131  N         22.6260  -32.2830   -3.7410 N.3   192  LEU192     -0.1245
    132  CA        23.5880  -32.0940   -4.8300 C.3   192  LEU192      0.1561
    133  C         24.6800  -33.1460   -4.8040 C.2   192  LEU192      0.2260
    134  O         25.0940  -33.6200   -3.7420 O.2   192  LEU192     -0.2867
    135  CB        24.2630  -30.7490   -4.7380 C.3   192  LEU192      0.0270
    136  CG        23.5550  -29.5330   -5.2820 C.3   192  LEU192      0.0019
    137  CD1       22.0530  -29.6910   -5.2600 C.3   192  LEU192      0.0001
    138  CD2       24.0070  -28.3720   -4.4470 C.3   192  LEU192      0.0001
    139  N         18.8330  -18.9860   -3.4380 N.3   220  TYR220     -0.1241
    140  CA        19.3650  -20.2350   -3.9570 C.3   220  TYR220      0.1605
    141  C         19.3330  -20.1840   -5.4840 C.2   220  TYR220      0.2264
    142  O         18.3180  -19.8000   -6.0480 O.2   220  TYR220     -0.2867
    143  CB        18.5600  -21.4400   -3.4680 C.3   220  TYR220      0.0534
    144  CG        19.1140  -22.7380   -4.0200 C.ar  220  TYR220     -0.0201
    145  CD1       20.2130  -23.3510   -3.4260 C.ar  220  TYR220     -0.0009
    146  CD2       18.5830  -23.3120   -5.1570 C.ar  220  TYR220     -0.0009
    147  CE1       20.7510  -24.4810   -3.9360 C.ar  220  TYR220      0.0417
    148  CE2       19.1070  -24.4710   -5.6760 C.ar  220  TYR220      0.0417
    149  CZ        20.1980  -25.0520   -5.0570 C.ar  220  TYR220      0.1957
    150  OH        20.7500  -26.2080   -5.5460 O.3   220  TYR220     -0.2866
@<TRIPOS>BOND
     1    44    43    2
     2    43    42    1
     3    41    42    1
     4    42    45    1
     5    32    31    2
     6    45    46    1
     7    31    30    1
     8    46    47    1
     9    64    63    2
    10    30    29    1
    11    30    33    1
    12    63    62    1
    13    47    48    1
    14    33    34    1
    15    48    49    2
    16     1     2    1
    17    62    61    1
    18    62    65    1
    19    34    36   ar
    20    34    35   ar
    21    66    65    1
    22    66    68    1
    23    36    38   ar
    24    49    51    1
    25    49    50    1
    26     2     5    1
    27     2     3    1
    28    65    67    1
    29     5     7    1
    30     5     6    1
    31     3     4    2
    32    35    37   ar
    33    38    39   ar
    34    84    83    1
    35    37    39   ar
    36    39    40    1
    37    54    55    2
    38    54    53    1
    39    83    85    1
    40    83    80    1
    41     8     9    1
    42    79    80    1
    43    52    53    1
    44    80    81    1
    45    72    71    2
    46    71    70    1
    47    53    56    1
    48    57    56    1
    49    57    58    1
    50     9    12    1
    51     9    10    1
    52    13    12    1
    53    13    14    1
    54    23    20    1
    55    19    20    1
    56    73    70    1
    57    73    74    1
    58   104   102   ar
    59   104   106   ar
    60    10    11    2
    61    69    70    1
    62    20    21    1
    63    58    60   am
    64    58    59    2
    65   101   102   ar
    66   101    99   ar
    67    81    82    2
    68    81    86   am
    69   102   100   ar
    70   106   105   ar
    71    14    15    1
    72    86    87    1
    73    75    74   ar
    74    75    77   ar
    75    74    76   ar
    76    99    98   ar
    77    28    25    1
    78    24    25    1
    79    21    22    2
    80    25    26    1
    81   100    98   ar
    82   100   103   ar
    83    89    88    2
    84    17    16    1
    85   105   103   ar
    86    15    16    2
    87    77    78   ar
    88    87    88    1
    89    87    90    1
    90    98    97    1
    91    76    78   ar
    92    88    93   am
    93    16    18    1
    94    92    90    1
    95    90    91    1
    96    26    27    2
    97    93    94    1
    98   116   117   ar
    99   116   114   ar
   100    94    97    1
   101    94    95    1
   102   117   115   ar
   103   114   112   ar
   104   129   128   ar
   105    95   107   am
   106    95    96    2
   107   107   108    1
   108   142   141    2
   109   115   113   ar
   110   130   128   ar
   111   128   127    1
   112   112   113   ar
   113   112   111    1
   114   148   146   ar
   115   148   149   ar
   116   150   149    1
   117   141   140    1
   118   136   137    1
   119   136   135    1
   120   136   138    1
   121   146   144   ar
   122   149   147   ar
   123   111   108    1
   124   108   109    1
   125   132   133    1
   126   132   135    1
   127   132   131    1
   128   133   134    2
   129   127   126    1
   130   126   123    1
   131   144   143    1
   132   144   145   ar
   133   140   143    1
   134   140   139    1
   135   147   145   ar
   136   110   109    2
   137   109   118   am
   138   123   124    1
   139   123   122    1
   140   125   124    2
   141   118   119    1
   142   122   120   am
   143   120   119    1
   144   120   121    2
