@<TRIPOS>MOLECULE
tmp/5xhsA02.pdb
 89 88 0 0 0
SMALL
GASTEIGER

@<TRIPOS>ATOM
      1  N         18.7390  -33.1960  -10.3460 N.3   186  VAL186     -0.1231
      2  CA        18.5260  -33.0530   -8.9170 C.3   186  VAL186      0.1692
      3  C         17.0670  -32.6660   -8.7030 C.2   186  VAL186      0.2592
      4  O         16.5860  -31.6610   -9.2370 O.2   186  VAL186     -0.2718
      5  CB        19.4910  -32.0210   -8.3040 C.3   186  VAL186      0.0266
      6  CG1       19.2170  -31.8560   -6.8310 C.3   186  VAL186      0.0020
      7  CG2       20.9730  -32.4690   -8.4930 C.3   186  VAL186      0.0020
      8  N         16.3560  -33.4710   -7.9340 N.am  187  TRP187     -0.1976
      9  CA        14.9720  -33.1460   -7.6390 C.3   187  TRP187      0.1640
     10  C         14.8500  -32.3230   -6.3540 C.2   187  TRP187      0.2290
     11  O         15.7970  -32.1830   -5.5640 O.2   187  TRP187     -0.2864
     12  CB        14.1580  -34.4190   -7.5510 C.3   187  TRP187      0.0576
     13  CG        13.8360  -34.9630   -8.9110 C.ar  187  TRP187      0.0006
     14  CD1       13.7190  -34.2510  -10.0700 C.ar  187  TRP187      0.0946
     15  CD2       13.5960  -36.3260   -9.2570 C.ar  187  TRP187      0.0152
     16  NE1       13.4230  -35.0810  -11.1100 N.ar  187  TRP187     -0.2442
     17  CE2       13.3350  -36.3650  -10.6390 C.ar  187  TRP187      0.0810
     18  CE3       13.5690  -37.5240   -8.5330 C.ar  187  TRP187      0.0012
     19  CZ2       13.0410  -37.5560  -11.3110 C.ar  187  TRP187      0.0191
     20  CZ3       13.2770  -38.7010   -9.2050 C.ar  187  TRP187      0.0001
     21  CH2       13.0300  -38.7090  -10.5750 C.ar  187  TRP187      0.0015
     22  N         14.1880  -31.6780   -2.7420 N.3   189  GLY189     -0.1210
     23  CA        14.3960  -32.5330   -1.5970 C.3   189  GLY189      0.1956
     24  C         15.5630  -33.4620   -1.7430 C.2   189  GLY189      0.2612
     25  O         15.6660  -34.4340   -1.0010 O.2   189  GLY189     -0.2717
     26  N         16.4580  -33.1970   -2.6760 N.am  190  GLU190     -0.1965
     27  CA        17.5570  -34.1050   -2.9390 C.3   190  GLU190      0.1733
     28  C         18.8760  -33.3780   -2.7380 C.2   190  GLU190      0.2616
     29  O         18.9680  -32.1520   -2.8840 O.2   190  GLU190     -0.2715
     30  CB        17.4880  -34.6830   -4.3640 C.3   190  GLU190      0.0429
     31  CG        16.7930  -36.0150   -4.4480 C.3   190  GLU190      0.1163
     32  CD        16.6880  -36.5690   -5.8540 C.2   190  GLU190      0.3649
     33  OE1       17.1090  -35.8880   -6.8280 O.co2 190  GLU190     -0.2457
     34  OE2       16.1790  -37.6990   -5.9860 O.co2 190  GLU190     -0.2457
     35  N         19.8890  -34.1870   -2.4370 N.am  191  ASN191     -0.1958
     36  CA        21.2680  -33.7360   -2.3060 C.3   191  ASN191      0.1819
     37  C         21.8830  -33.3910   -3.6740 C.2   191  ASN191      0.2621
     38  O         21.7130  -34.1260   -4.6480 O.2   191  ASN191     -0.2715
     39  CB        22.0970  -34.8480   -1.6230 C.3   191  ASN191      0.1195
     40  CG        23.3910  -34.3320   -1.0810 C.2   191  ASN191      0.2630
     41  OD1       23.5940  -33.1210   -1.0140 O.2   191  ASN191     -0.2716
     42  ND2       24.2780  -35.2340   -0.6640 N.am  191  ASN191     -0.0877
     43  N         22.6260  -32.2830   -3.7410 N.am  192  LEU192     -0.1977
     44  CA        23.5880  -32.0940   -4.8300 C.3   192  LEU192      0.1596
     45  C         24.6800  -33.1460   -4.8040 C.2   192  LEU192      0.2287
     46  O         25.0940  -33.6200   -3.7420 O.2   192  LEU192     -0.2864
     47  CB        24.2630  -30.7490   -4.7380 C.3   192  LEU192      0.0297
     48  CG        23.5550  -29.5330   -5.2820 C.3   192  LEU192      0.0022
     49  CD1       22.0530  -29.6910   -5.2600 C.3   192  LEU192      0.0001
     50  CD2       24.0070  -28.3720   -4.4470 C.3   192  LEU192      0.0001
     51  N         29.8490  -30.3940   -5.9260 N.3   197  LEU197     -0.1245
     52  CA        30.0160  -29.3810   -4.8910 C.3   197  LEU197      0.1561
     53  C         31.4820  -29.1340   -4.6110 C.2   197  LEU197      0.2260
     54  O         31.9040  -27.9840   -4.4340 O.2   197  LEU197     -0.2867
     55  CB        29.3150  -29.8110   -3.6100 C.3   197  LEU197      0.0270
     56  CG        27.8630  -29.4080   -3.3630 C.3   197  LEU197      0.0019
     57  CD1       27.3450  -30.0840   -2.1030 C.3   197  LEU197      0.0001
     58  CD2       27.7210  -27.8980   -3.2460 C.3   197  LEU197      0.0001
     59  N         18.8330  -18.9860   -3.4380 N.3   220  TYR220     -0.1241
     60  CA        19.3650  -20.2350   -3.9570 C.3   220  TYR220      0.1605
     61  C         19.3330  -20.1840   -5.4840 C.2   220  TYR220      0.2264
     62  O         18.3180  -19.8000   -6.0480 O.2   220  TYR220     -0.2867
     63  CB        18.5600  -21.4400   -3.4680 C.3   220  TYR220      0.0534
     64  CG        19.1140  -22.7380   -4.0200 C.ar  220  TYR220     -0.0201
     65  CD1       20.2130  -23.3510   -3.4260 C.ar  220  TYR220     -0.0009
     66  CD2       18.5830  -23.3120   -5.1570 C.ar  220  TYR220     -0.0009
     67  CE1       20.7510  -24.4810   -3.9360 C.ar  220  TYR220      0.0417
     68  CE2       19.1070  -24.4710   -5.6760 C.ar  220  TYR220      0.0417
     69  CZ        20.1980  -25.0520   -5.0570 C.ar  220  TYR220      0.1957
     70  OH        20.7500  -26.2080   -5.5460 O.3   220  TYR220     -0.2866
     71  N         24.5530  -19.5410   -2.1860 N.3   224  MET224     -0.1230
     72  CA        25.4760  -20.5480   -1.6540 C.3   224  MET224      0.1702
     73  C         26.9100  -20.2510   -2.0240 C.2   224  MET224      0.2592
     74  O         27.8160  -20.8220   -1.4200 O.2   224  MET224     -0.2718
     75  CB        25.1960  -21.9610   -2.1930 C.3   224  MET224      0.0401
     76  CG        23.8360  -22.5600   -1.9660 C.3   224  MET224      0.0596
     77  SD        23.2680  -22.4450   -0.2660 S.3   224  MET224     -0.1393
     78  CE        22.5150  -20.8290   -0.2240 C.3   224  MET224      0.0692
     79  N         27.1170  -19.4190   -3.0410 N.am  225  PHE225     -0.1976
     80  CA        28.3990  -19.2970   -3.7120 C.3   225  PHE225      0.1639
     81  C         28.9750  -17.8910   -3.6320 C.2   225  PHE225      0.2290
     82  O         30.1320  -17.7300   -3.2310 O.2   225  PHE225     -0.2864
     83  CB        28.2430  -19.7230   -5.1830 C.3   225  PHE225      0.0560
     84  CG        27.6430  -21.0900   -5.3700 C.ar  225  PHE225     -0.0200
     85  CD1       27.8200  -22.0880   -4.4300 C.ar  225  PHE225     -0.0042
     86  CD2       26.9410  -21.3840   -6.5080 C.ar  225  PHE225     -0.0042
     87  CE1       27.2680  -23.3260   -4.6180 C.ar  225  PHE225     -0.0003
     88  CE2       26.3960  -22.6380   -6.7030 C.ar  225  PHE225     -0.0003
     89  CZ        26.5520  -23.5950   -5.7660 C.ar  225  PHE225     -0.0000
@<TRIPOS>BOND
     1    19    17   ar
     2    19    21   ar
     3    16    17   ar
     4    16    14   ar
     5    17    15   ar
     6    21    20   ar
     7     1     2    1
     8    14    13   ar
     9    15    13   ar
    10    15    18   ar
    11     4     3    2
    12    20    18   ar
    13     2     3    1
    14     2     5    1
    15    13    12    1
    16     3     8   am
    17     7     5    1
    18     5     6    1
    19     8     9    1
    20     9    12    1
    21     9    10    1
    22    33    32   ar
    23    88    86   ar
    24    88    89   ar
    25    86    84   ar
    26    10    11    2
    27    62    61    2
    28    34    32   ar
    29    51    52    1
    30    32    31    1
    31    89    87   ar
    32    68    66   ar
    33    68    69   ar
    34    70    69    1
    35    61    60    1
    36    84    83    1
    37    84    85   ar
    38    48    49    1
    39    48    47    1
    40    48    50    1
    41    83    80    1
    42    66    64   ar
    43    69    67   ar
    44    52    53    1
    45    52    55    1
    46    44    45    1
    47    44    47    1
    48    44    43    1
    49    45    46    2
    50    38    37    2
    51    87    85   ar
    52    53    54    2
    53    31    30    1
    54    30    27    1
    55    64    63    1
    56    64    65   ar
    57    60    63    1
    58    60    59    1
    59    67    65   ar
    60    43    37   am
    61    80    81    1
    62    80    79    1
    63    37    36    1
    64    81    82    2
    65    55    56    1
    66    56    58    1
    67    56    57    1
    68    79    73   am
    69    27    28    1
    70    27    26    1
    71    29    28    2
    72    22    23    1
    73    28    35   am
    74    26    24   am
    75    35    36    1
    76    36    39    1
    77    75    76    1
    78    75    72    1
    79    71    72    1
    80    73    72    1
    81    73    74    2
    82    76    77    1
    83    24    23    1
    84    24    25    2
    85    39    40    1
    86    40    41    2
    87    40    42   am
    88    77    78    1
