@<TRIPOS>MOLECULE
tmp/5xhyA00.pdb
 126 122 0 0 0
SMALL
GASTEIGER

@<TRIPOS>ATOM
      1  N         -3.6020   -0.3390   -0.1760 N.3    39  TRP39      -0.1228
      2  CA        -3.2560   -1.6280   -0.7540 C.3    39  TRP39       0.1722
      3  C         -4.4330   -2.5630   -1.1220 C.2    39  TRP39       0.2437
      4  O         -4.3460   -3.2560   -2.1340 O.2    39  TRP39      -0.2733
      5  CB        -2.2640   -2.3550    0.1610 C.3    39  TRP39       0.0563
      6  CG        -2.7320   -2.6480    1.5080 C.ar   39  TRP39       0.0003
      7  CD1       -2.5840   -1.8710    2.6100 C.ar   39  TRP39       0.0946
      8  CD2       -3.3970   -3.8430    1.9200 C.ar   39  TRP39       0.0152
      9  NE1       -3.1330   -2.5020    3.6940 N.ar   39  TRP39      -0.2442
     10  CE2       -3.6290   -3.6970    3.3110 C.ar   39  TRP39       0.0810
     11  CE3       -3.8160   -4.9950    1.2740 C.ar   39  TRP39       0.0012
     12  CZ2       -4.2800   -4.6900    4.0410 C.ar   39  TRP39       0.0191
     13  CZ3       -4.4450   -5.9770    2.0070 C.ar   39  TRP39       0.0001
     14  CH2       -4.6670   -5.8160    3.3820 C.ar   39  TRP39       0.0015
     15  N         -5.5420   -2.5670   -0.3580 N.am   40  PRO40      -0.2718
     16  CA        -6.6150   -3.4640   -0.8020 C.3    40  PRO40       0.1535
     17  C         -7.3040   -2.9940   -2.0680 C.2    40  PRO40       0.2598
     18  O         -8.0560   -3.7500   -2.7000 O.2    40  PRO40      -0.2715
     19  CB        -7.6110   -3.4280    0.3600 C.3    40  PRO40       0.0310
     20  CG        -6.8860   -2.7940    1.4870 C.3    40  PRO40       0.0237
     21  CD        -5.9330   -1.8610    0.8750 C.3    40  PRO40       0.0939
     22  N         -7.0630   -1.7490   -2.4360 N.am   41  PHE41      -0.1974
     23  CA        -7.8020   -1.1540   -3.5360 C.3    41  PHE41       0.1639
     24  C         -6.9500   -1.0150   -4.7850 C.2    41  PHE41       0.2290
     25  O         -7.4160   -0.5050   -5.8160 O.2    41  PHE41      -0.2864
     26  CB        -8.3720    0.1970   -3.0810 C.3    41  PHE41       0.0560
     27  CG        -9.2650    0.0920   -1.8600 C.ar   41  PHE41      -0.0200
     28  CD1      -10.5900   -0.2670   -1.9810 C.ar   41  PHE41      -0.0042
     29  CD2       -8.7660    0.3240   -0.5980 C.ar   41  PHE41      -0.0042
     30  CE1      -11.3950   -0.3790   -0.8810 C.ar   41  PHE41      -0.0003
     31  CE2       -9.5800    0.2110    0.5170 C.ar   41  PHE41      -0.0003
     32  CZ       -10.8880   -0.1300    0.3750 C.ar   41  PHE41      -0.0000
     33  N         -5.8740   -3.2660   -6.8350 N.3    43  GLN43      -0.1245
     34  CA        -6.1040   -4.3120   -7.8290 C.3    43  GLN43       0.1566
     35  C         -7.5290   -4.8400   -7.6850 C.2    43  GLN43       0.2260
     36  O         -8.1520   -4.6350   -6.6520 O.2    43  GLN43      -0.2867
     37  CB        -5.0900   -5.4460   -7.6660 C.3    43  GLN43       0.0367
     38  CG        -5.2280   -6.2050   -6.3570 C.3    43  GLN43       0.0905
     39  CD        -4.6610   -5.4430   -5.1600 C.2    43  GLN43       0.2608
     40  OE1       -3.5620   -4.9040   -5.2230 O.2    43  GLN43      -0.2717
     41  NE2       -5.4180   -5.3970   -4.0640 N.am   43  GLN43      -0.0878
     42  N        -10.7390   -6.9850   -6.7480 N.3    45  VAL45      -0.1245
     43  CA       -11.0170   -7.9450   -5.6950 C.3    45  VAL45       0.1561
     44  C        -10.8840   -9.3510   -6.2540 C.2    45  VAL45       0.2260
     45  O        -11.5740   -9.6910   -7.2250 O.2    45  VAL45      -0.2867
     46  CB       -12.4120   -7.7440   -5.1430 C.3    45  VAL45       0.0252
     47  CG1      -12.8050   -8.9110   -4.2700 C.3    45  VAL45       0.0019
     48  CG2      -12.4850   -6.4050   -4.3840 C.3    45  VAL45       0.0019
     49  N         -9.4720  -14.5730   -1.8490 N.3    50  LEU50      -0.1245
     50  CA       -10.0070  -14.2070   -0.5280 C.3    50  LEU50       0.1561
     51  C        -11.0690  -15.1740   -0.0530 C.2    50  LEU50       0.2260
     52  O        -11.5980  -15.0400    1.0520 O.2    50  LEU50      -0.2867
     53  CB       -10.6110  -12.7980   -0.5570 C.3    50  LEU50       0.0270
     54  CG        -9.7800  -11.6210   -1.0570 C.3    50  LEU50       0.0019
     55  CD1      -10.6630  -10.3740   -1.0920 C.3    50  LEU50       0.0001
     56  CD2       -8.5650  -11.3940   -0.1770 C.3    50  LEU50       0.0001
     57  N        -14.1300  -15.4020   -1.1220 N.3    52  LEU52      -0.1245
     58  CA       -15.3540  -14.6310   -0.9650 C.3    52  LEU52       0.1561
     59  C        -16.1250  -14.7350   -2.2670 C.2    52  LEU52       0.2260
     60  O        -16.2430  -13.7590   -3.0270 O.2    52  LEU52      -0.2867
     61  CB       -15.0500  -13.1700   -0.6150 C.3    52  LEU52       0.0270
     62  CG       -14.3240  -12.9170    0.7080 C.3    52  LEU52       0.0019
     63  CD1      -13.9210  -11.4570    0.8400 C.3    52  LEU52       0.0001
     64  CD2      -15.1830  -13.3340    1.8920 C.3    52  LEU52       0.0001
     65  N        -18.7760  -12.1710   -3.3260 N.3    55  TYR55      -0.1241
     66  CA       -18.4800  -10.7800   -3.6830 C.3    55  TYR55       0.1605
     67  C        -19.0460  -10.4110   -5.0500 C.2    55  TYR55       0.2264
     68  O        -19.7720   -9.4300   -5.1890 O.2    55  TYR55      -0.2867
     69  CB       -16.9760  -10.4920   -3.6760 C.3    55  TYR55       0.0534
     70  CG       -16.6810   -9.0160   -3.9420 C.ar   55  TYR55      -0.0201
     71  CD1      -16.7150   -8.0840   -2.9080 C.ar   55  TYR55      -0.0009
     72  CD2      -16.4070   -8.5590   -5.2230 C.ar   55  TYR55      -0.0009
     73  CE1      -16.4730   -6.7500   -3.1370 C.ar   55  TYR55       0.0417
     74  CE2      -16.1650   -7.2270   -5.4670 C.ar   55  TYR55       0.0417
     75  CZ       -16.1930   -6.3230   -4.4100 C.ar   55  TYR55       0.1957
     76  OH       -15.9410   -4.9850   -4.6200 O.3    55  TYR55      -0.2866
     77  N        -17.3960   -0.8560   -1.9170 N.3    94  CYS94      -0.1235
     78  CA       -16.8930   -1.2700   -0.6250 C.3    94  CYS94       0.1677
     79  C        -17.9770   -1.0740    0.4350 C.2    94  CYS94       0.2270
     80  O        -18.2210   -1.9660    1.2540 O.2    94  CYS94      -0.2867
     81  CB       -15.6210   -0.4960   -0.2980 C.3    94  CYS94       0.0956
     82  SG       -14.8360   -0.9570    1.2290 S.3    94  CYS94      -0.0801
     83  N        -20.8460   -3.8490   -0.1350 N.3    97  TYR97      -0.1227
     84  CA       -20.6020   -5.2290    0.2650 C.3    97  TYR97       0.1736
     85  C        -20.2970   -5.3410    1.7660 C.2    97  TYR97       0.2595
     86  O        -20.5890   -6.3610    2.3910 O.2    97  TYR97      -0.2718
     87  CB       -19.4660   -5.8210   -0.5680 C.3    97  TYR97       0.0548
     88  CG       -19.0890   -7.2360   -0.1900 C.ar   97  TYR97      -0.0200
     89  CD1      -19.6230   -8.3330   -0.8430 C.ar   97  TYR97      -0.0009
     90  CD2      -18.1930   -7.4680    0.8260 C.ar   97  TYR97      -0.0009
     91  CE1      -19.2550   -9.6200   -0.4860 C.ar   97  TYR97       0.0417
     92  CE2      -17.8280   -8.7350    1.1950 C.ar   97  TYR97       0.0417
     93  CZ       -18.3480   -9.8050    0.5440 C.ar   97  TYR97       0.1957
     94  OH       -17.9460  -11.0520    0.9590 O.3    97  TYR97      -0.2866
     95  N        -19.6860   -4.3190    2.3510 N.am   98  ASN98      -0.1974
     96  CA       -19.3040   -4.4190    3.7620 C.3    98  ASN98       0.1688
     97  C        -20.2560   -3.6620    4.6470 C.2    98  ASN98       0.2292
     98  O        -21.2460   -3.1320    4.1690 O.2    98  ASN98      -0.2864
     99  CB       -17.8890   -3.9210    3.9700 C.3    98  ASN98       0.1181
    100  CG       -16.8960   -4.6660    3.1240 C.2    98  ASN98       0.2629
    101  OD1      -16.4940   -5.7800    3.4550 O.2    98  ASN98      -0.2716
    102  ND2      -16.5010   -4.0620    2.0090 N.am   98  ASN98      -0.0877
    103  N        -13.1730   -3.1100    9.0950 N.3   103  ASP103     -0.1225
    104  CA       -11.8820   -2.4630    8.9410 C.3   103  ASP103      0.1805
    105  C        -11.6790   -2.0000    7.4920 C.2   103  ASP103      0.2597
    106  O        -11.1030   -0.9390    7.2440 O.2   103  ASP103     -0.2718
    107  CB       -10.7580   -3.3980    9.3710 C.3   103  ASP103      0.1424
    108  CG       -10.6330   -3.5350   10.8950 C.2   103  ASP103      0.3668
    109  OD1      -10.8760   -2.5470   11.6360 O.co2 103  ASP103     -0.2456
    110  OD2      -10.2640   -4.6460   11.3480 O.co2 103  ASP103     -0.2456
    111  N        -12.1810   -2.7730    6.5380 N.am  104  ILE104     -0.1980
    112  CA       -11.9980   -2.4100    5.1290 C.3   104  ILE104      0.1595
    113  C        -12.7590   -1.1140    4.8380 C.2   104  ILE104      0.2287
    114  O        -12.3330   -0.2990    4.0180 O.2   104  ILE104     -0.2864
    115  CB       -12.4500   -3.5390    4.1820 C.3   104  ILE104      0.0276
    116  CG1      -12.0510   -3.2240    2.7380 C.3   104  ILE104      0.0022
    117  CG2      -13.9240   -3.7900    4.2980 C.3   104  ILE104      0.0022
    118  CD1      -10.5670   -3.2300    2.5350 C.3   104  ILE104      0.0001
    119  N        -10.8220    1.9210    6.0200 N.3   107  MET107     -0.1245
    120  CA        -9.8140    2.2110    5.0170 C.3   107  MET107      0.1570
    121  C        -10.4450    2.9960    3.8650 C.2   107  MET107      0.2261
    122  O         -9.9490    4.0440    3.4870 O.2   107  MET107     -0.2867
    123  CB        -9.1750    0.9140    4.5050 C.3   107  MET107      0.0387
    124  CG        -8.3500    0.2160    5.5610 C.3   107  MET107      0.0595
    125  SD        -7.8390   -1.4330    5.0650 S.3   107  MET107     -0.1393
    126  CE        -6.1610   -1.1330    4.5210 C.3   107  MET107      0.0692
@<TRIPOS>BOND
     1    34    35    1
     2    34    37    1
     3    34    33    1
     4    35    36    2
     5    37    38    1
     6    45    44    2
     7    42    43    1
     8    38    39    1
     9    44    43    1
    10    25    24    2
    11    43    46    1
    12    74    72   ar
    13    74    75   ar
    14    72    70   ar
    15    40    39    2
    16    68    67    2
    17    39    41   am
    18    46    48    1
    19    46    47    1
    20    67    66    1
    21    24    23    1
    22    76    75    1
    23    75    73   ar
    24    70    69    1
    25    70    71   ar
    26    66    69    1
    27    66    65    1
    28    23    26    1
    29    23    22    1
    30    73    71   ar
    31    26    27    1
    32    60    59    2
    33    18    17    2
    34    22    17   am
    35    59    58    1
    36     4     3    2
    37    17    16    1
    38    28    27   ar
    39    28    30   ar
    40    77    78    1
    41    27    29   ar
    42    49    50    1
    43     3     2    1
    44     3    15   am
    45    57    58    1
    46    55    54    1
    47    54    53    1
    48    54    56    1
    49    58    61    1
    50    30    32   ar
    51    89    91   ar
    52    89    88   ar
    53    16    15    1
    54    16    19    1
    55     2     1    1
    56     2     5    1
    57    78    81    1
    58    78    79    1
    59    61    62    1
    60    29    31   ar
    61    87    88    1
    62    87    84    1
    63    53    50    1
    64    50    51    1
    65    91    93   ar
    66    15    21    1
    67    81    82    1
    68    88    90   ar
    69    83    84    1
    70    51    52    2
    71     5     6    1
    72    84    85    1
    73    19    20    1
    74    32    31   ar
    75    79    80    2
    76    93    94    1
    77    93    92   ar
    78    62    63    1
    79    62    64    1
    80    90    92   ar
    81    21    20    1
    82    11     8   ar
    83    11    13   ar
    84     6     8   ar
    85     6     7   ar
    86    85    95   am
    87    85    86    2
    88     8    10   ar
    89    13    14   ar
    90   102   100   am
    91    95    96    1
    92   118   116    1
    93     7     9   ar
    94   116   115    1
    95   100   101    2
    96   100    99    1
    97    10     9   ar
    98    10    12   ar
    99    14    12   ar
   100   122   121    2
   101    96    99    1
   102    96    97    1
   103   121   120    1
   104   114   113    2
   105    98    97    2
   106   115   117    1
   107   115   112    1
   108   123   120    1
   109   123   124    1
   110   126   125    1
   111   113   112    1
   112   120   119    1
   113   125   124    1
   114   112   111    1
   115   111   105   am
   116   106   105    2
   117   105   104    1
   118   104   103    1
   119   104   107    1
   120   107   108    1
   121   108   110   ar
   122   108   109   ar
