@<TRIPOS>MOLECULE
tmp/5xhzA00.pdb
 105 102 0 0 0
SMALL
GASTEIGER

@<TRIPOS>ATOM
      1  N        -23.7280    0.5610    0.7180 N.3    16  ASN16      -0.1240
      2  CA       -23.7770   -0.7300    1.3810 C.3    16  ASN16       0.1653
      3  C        -24.1710   -0.4980    2.8340 C.2    16  ASN16       0.2266
      4  O        -23.9520    0.5880    3.3860 O.2    16  ASN16      -0.2867
      5  CB       -22.4210   -1.4610    1.3150 C.3    16  ASN16       0.1155
      6  CG       -22.0200   -1.8340   -0.1040 C.2    16  ASN16       0.2627
      7  OD1      -22.4640   -2.8580   -0.6330 O.2    16  ASN16      -0.2716
      8  ND2      -21.1780   -1.0200   -0.7230 N.am   16  ASN16      -0.0877
      9  N        -23.0000   -1.2680    5.5790 N.3    18  ASP18      -0.1225
     10  CA       -21.9500   -0.9850    6.5500 C.3    18  ASP18       0.1805
     11  C        -21.3450    0.4050    6.3900 C.2    18  ASP18       0.2597
     12  O        -20.3840    0.7180    7.0950 O.2    18  ASP18      -0.2718
     13  CB       -20.8430   -2.0620    6.5140 C.3    18  ASP18       0.1424
     14  CG       -20.1280   -2.1340    5.1720 C.2    18  ASP18       0.3668
     15  OD1      -20.5870   -1.5280    4.1820 O.co2  18  ASP18      -0.2456
     16  OD2      -19.0750   -2.8180    5.1180 O.co2  18  ASP18      -0.2456
     17  N        -21.8650    1.2350    5.4910 N.am   19  GLU19      -0.1979
     18  CA       -21.2660    2.5300    5.1920 C.3    19  GLU19       0.1602
     19  C        -21.9540    3.6520    5.9600 C.2    19  GLU19       0.2287
     20  O        -23.1530    3.5970    6.2530 O.2    19  GLU19      -0.2864
     21  CB       -21.3230    2.8320    3.6950 C.3    19  GLU19       0.0415
     22  CG       -20.5180    1.8370    2.8820 C.3    19  GLU19       0.1163
     23  CD       -20.5500    2.0780    1.3880 C.2    19  GLU19       0.3649
     24  OE1      -21.1700    3.0580    0.9190 O.co2  19  GLU19      -0.2457
     25  OE2      -19.9380    1.2450    0.6670 O.co2  19  GLU19      -0.2457
     26  N        -10.8550    4.9000   12.7850 N.3    31  VAL31      -0.1231
     27  CA       -10.4460    3.6010   13.3130 C.3    31  VAL31       0.1692
     28  C         -9.2290    3.1120   12.5390 C.2    31  VAL31       0.2593
     29  O         -8.1880    2.8030   13.1320 O.2    31  VAL31      -0.2718
     30  CB       -11.5870    2.5690   13.2410 C.3    31  VAL31       0.0266
     31  CG1      -11.0580    1.1730   13.5950 C.3    31  VAL31       0.0020
     32  CG2      -12.7200    2.9570   14.1590 C.3    31  VAL31       0.0020
     33  N         -9.3460    3.0090   11.2220 N.am   32  GLY32      -0.1942
     34  CA        -8.2250    2.5520   10.4240 C.3    32  GLY32       0.2014
     35  C         -8.6270    2.3200    8.9880 C.2    32  GLY32       0.2639
     36  O         -9.7860    2.4890    8.6030 O.2    32  GLY32      -0.2714
     37  N         -7.6370    1.9290    8.1960 N.am   33  GLU33      -0.1963
     38  CA        -7.8330    1.6470    6.7850 C.3    33  GLU33       0.1733
     39  C         -8.2500    0.1920    6.6230 C.2    33  GLU33       0.2616
     40  O         -7.7360   -0.6960    7.3120 O.2    33  GLU33      -0.2715
     41  CB        -6.5420    1.8990    6.0010 C.3    33  GLU33       0.0429
     42  CG        -6.6930    1.6540    4.5060 C.3    33  GLU33       0.1163
     43  CD        -5.4440    1.9980    3.7260 C.2    33  GLU33       0.3649
     44  OE1       -4.6390    2.8200    4.2170 O.co2  33  GLU33      -0.2457
     45  OE2       -5.2720    1.4500    2.6190 O.co2  33  GLU33      -0.2457
     46  N         -9.1860   -0.0500    5.7120 N.am   34  VAL34      -0.1963
     47  CA        -9.6910   -1.3870    5.4450 C.3    34  VAL34       0.1727
     48  C         -9.3010   -1.8690    4.0520 C.2    34  VAL34       0.2616
     49  O         -9.0150   -3.0560    3.8550 O.2    34  VAL34      -0.2715
     50  CB       -11.2210   -1.4410    5.6520 C.3    34  VAL34       0.0290
     51  CG1      -11.7730   -2.7970    5.2940 C.3    34  VAL34       0.0023
     52  CG2      -11.5750   -1.0690    7.0990 C.3    34  VAL34       0.0023
     53  N         -9.2900   -0.9660    3.0800 N.am   35  GLU35      -0.1963
     54  CA        -9.0030   -1.2720    1.6860 C.3    35  GLU35       0.1733
     55  C         -8.5750    0.0430    1.0600 C.2    35  GLU35       0.2616
     56  O         -8.8610    1.1110    1.6030 O.2    35  GLU35      -0.2715
     57  CB       -10.2620   -1.8360    1.0010 C.3    35  GLU35       0.0429
     58  CG       -10.0530   -2.3550   -0.4040 C.3    35  GLU35       0.1163
     59  CD       -11.2450   -3.1180   -0.9230 C.2    35  GLU35       0.3649
     60  OE1      -12.3440   -3.0330   -0.3160 O.co2  35  GLU35      -0.2457
     61  OE2      -11.0940   -3.8070   -1.9570 O.co2  35  GLU35      -0.2457
     62  N         -7.8760   -0.0270   -0.0710 N.am   36  GLU36      -0.1963
     63  CA        -7.5080    1.2110   -0.7480 C.3    36  GLU36       0.1733
     64  C         -8.7570    2.0490   -0.9990 C.2    36  GLU36       0.2617
     65  O         -9.7220    1.5790   -1.6030 O.2    36  GLU36      -0.2715
     66  CB        -6.8050    0.8940   -2.0710 C.3    36  GLU36       0.0429
     67  CG        -6.1600    2.0880   -2.7500 C.3    36  GLU36       0.1163
     68  CD        -5.1850    2.8240   -1.8400 C.2    36  GLU36       0.3649
     69  OE1       -4.3670    2.1610   -1.1460 O.co2  36  GLU36      -0.2457
     70  OE2       -5.2390    4.0660   -1.8140 O.co2  36  GLU36      -0.2457
     71  N         -8.7470    3.2850   -0.5020 N.am   37  GLY37      -0.1940
     72  CA        -9.8750    4.1850   -0.6530 C.3    37  GLY37       0.2014
     73  C        -10.9650    4.0800    0.3960 C.2    37  GLY37       0.2638
     74  O        -11.9650    4.8010    0.2900 O.2    37  GLY37      -0.2714
     75  N        -10.8080    3.2300    1.4120 N.am   38  TRP38      -0.1973
     76  CA       -11.8980    2.9200    2.3320 C.3    38  TRP38       0.1640
     77  C        -11.3700    2.8110    3.7520 C.2    38  TRP38       0.2290
     78  O        -10.5120    1.9670    4.0400 O.2    38  TRP38      -0.2864
     79  CB       -12.6320    1.6320    1.9020 C.3    38  TRP38       0.0576
     80  CG       -13.4620    1.9370    0.7150 C.ar   38  TRP38       0.0006
     81  CD1      -13.0930    1.8420   -0.6040 C.ar   38  TRP38       0.0946
     82  CD2      -14.7740    2.5080    0.7270 C.ar   38  TRP38       0.0152
     83  NE1      -14.1060    2.3150   -1.4100 N.ar   38  TRP38      -0.2442
     84  CE2      -15.1490    2.7240   -0.6160 C.ar   38  TRP38       0.0810
     85  CE3      -15.6750    2.8460    1.7460 C.ar   38  TRP38       0.0012
     86  CZ2      -16.3960    3.2390   -0.9680 C.ar   38  TRP38       0.0191
     87  CZ3      -16.9140    3.3720    1.3910 C.ar   38  TRP38       0.0001
     88  CH2      -17.2560    3.5690    0.0440 C.ar   38  TRP38       0.0015
     89  N        -12.5080    2.8950    8.0830 N.3    40  GLU40      -0.1245
     90  CA       -13.5610    2.7350    9.0730 C.3    40  GLU40       0.1567
     91  C        -13.4330    3.8490   10.0970 C.2    40  GLU40       0.2260
     92  O        -12.3160    4.2500   10.4550 O.2    40  GLU40      -0.2867
     93  CB       -13.4930    1.3720    9.7730 C.3    40  GLU40       0.0388
     94  CG       -14.7200    1.0970   10.6500 C.3    40  GLU40       0.1160
     95  CD       -14.6930   -0.2700   11.3210 C.2    40  GLU40       0.3649
     96  OE1      -13.6560   -0.6220   11.9160 O.co2  40  GLU40      -0.2457
     97  OE2      -15.7240   -0.9710   11.2580 O.co2  40  GLU40      -0.2457
     98  N        -18.0440    2.3120    7.3910 N.3    49  MET49      -0.1245
     99  CA       -17.0780    2.4870    6.3160 C.3    49  MET49       0.1570
    100  C        -17.3340    3.7730    5.5430 C.2    49  MET49       0.2261
    101  O        -18.4780    4.1960    5.3690 O.2    49  MET49      -0.2867
    102  CB       -17.1940    1.3000    5.3500 C.3    49  MET49       0.0387
    103  CG       -16.8930   -0.0460    6.0040 C.3    49  MET49       0.0595
    104  SD       -15.1970   -0.1030    6.6350 S.3    49  MET49      -0.1393
    105  CE       -14.3130    0.3920    5.1550 C.3    49  MET49       0.0692
@<TRIPOS>BOND
     1    67    66    1
     2    67    68    1
     3    66    63    1
     4    61    59   ar
     5    68    70   ar
     6    68    69   ar
     7    65    64    2
     8    83    84   ar
     9    83    81   ar
    10    64    63    1
    11    64    71   am
    12    86    84   ar
    13    86    88   ar
    14    59    58    1
    15    59    60   ar
    16    63    62    1
    17     8     6   am
    18    72    71    1
    19    72    73    1
    20     7     6    2
    21    84    82   ar
    22    81    80   ar
    23    58    57    1
    24     6     5    1
    25    62    55   am
    26    88    87   ar
    27    74    73    2
    28    73    75   am
    29    25    23   ar
    30    80    82   ar
    31    80    79    1
    32     1     2    1
    33    82    85   ar
    34    24    23   ar
    35    57    54    1
    36    55    56    2
    37    55    54    1
    38     5     2    1
    39     2     3    1
    40    23    22    1
    41    87    85   ar
    42    75    76    1
    43    54    53    1
    44    79    76    1
    45    76    77    1
    46    45    43   ar
    47     3     4    2
    48    22    21    1
    49    53    48   am
    50    21    18    1
    51    43    44   ar
    52    43    42    1
    53    77    78    2
    54    49    48    2
    55    48    47    1
    56    15    14   ar
    57    42    41    1
    58    16    14   ar
    59   105   104    1
    60    14    13    1
    61    18    17    1
    62    18    19    1
    63    51    50    1
    64   102   103    1
    65   102    99    1
    66   101   100    2
    67    47    50    1
    68    47    46    1
    69    17    11   am
    70   100    99    1
    71     9    10    1
    72    50    52    1
    73    46    39   am
    74    19    20    2
    75    41    38    1
    76   103   104    1
    77    99    98    1
    78    11    10    1
    79    11    12    2
    80    13    10    1
    81    39    38    1
    82    39    40    2
    83    38    37    1
    84    89    90    1
    85    37    35   am
    86    36    35    2
    87    35    34    1
    88    90    93    1
    89    90    91    1
    90    93    94    1
    91    91    92    2
    92    34    33    1
    93    94    95    1
    94    33    28   am
    95    97    95   ar
    96    95    96   ar
    97    28    29    2
    98    28    27    1
    99    26    27    1
   100    30    27    1
   101    30    31    1
   102    30    32    1
