@<TRIPOS>MOLECULE
tmp/5xhzB00.pdb
 90 92 0 0 0
SMALL
GASTEIGER

@<TRIPOS>ATOM
      1  N        -43.1470   11.9270   -8.2260 N.3     9  PHE9       -0.1227
      2  CA       -42.5910   10.9660   -9.1640 C.3     9  PHE9        0.1736
      3  C        -41.3690   10.3190   -8.5480 C.2     9  PHE9        0.2596
      4  O        -40.5740   10.9910   -7.8890 O.2     9  PHE9       -0.2718
      5  CB       -42.1750   11.6260  -10.4770 C.3     9  PHE9        0.0547
      6  CG       -43.3240   12.1800  -11.2470 C.ar    9  PHE9       -0.0202
      7  CD1      -44.0670   11.3590  -12.0820 C.ar    9  PHE9       -0.0042
      8  CD2      -43.6950   13.5030  -11.1070 C.ar    9  PHE9       -0.0042
      9  CE1      -45.1460   11.8550  -12.7850 C.ar    9  PHE9       -0.0003
     10  CE2      -44.7940   14.0060  -11.8150 C.ar    9  PHE9       -0.0003
     11  CZ       -45.5010   13.1760  -12.6540 C.ar    9  PHE9       -0.0000
     12  N        -41.2200    9.0170   -8.7670 N.am   10  SER10      -0.1938
     13  CA       -40.0640    8.3050   -8.2500 C.3    10  SER10       0.2055
     14  C        -38.7990    8.7260   -8.9960 C.2    10  SER10       0.2643
     15  O        -38.8400    9.2070  -10.1310 O.2    10  SER10      -0.2714
     16  CB       -40.2710    6.7970   -8.3830 C.3    10  SER10       0.2130
     17  OG       -40.3670    6.4410   -9.7430 O.3    10  SER10      -0.2179
     18  N        -37.6530    8.5350   -8.3390 N.am   11  TYR11      -0.1959
     19  CA       -36.3730    8.9520   -8.9120 C.3    11  TYR11       0.1771
     20  C        -35.2410    8.0920   -8.3650 C.2    11  TYR11       0.2619
     21  O        -35.0880    7.9680   -7.1470 O.2    11  TYR11      -0.2715
     22  CB       -36.0940   10.4330   -8.6030 C.3    11  TYR11       0.0574
     23  CG       -34.7430   10.8890   -9.1030 C.ar   11  TYR11      -0.0198
     24  CD1      -34.5170   11.0730  -10.4560 C.ar   11  TYR11      -0.0009
     25  CD2      -33.6810   11.0900   -8.2260 C.ar   11  TYR11      -0.0009
     26  CE1      -33.2760   11.4710  -10.9300 C.ar   11  TYR11       0.0417
     27  CE2      -32.4350   11.4980   -8.6870 C.ar   11  TYR11       0.0417
     28  CZ       -32.2390   11.6770  -10.0440 C.ar   11  TYR11       0.1957
     29  OH       -31.0130   12.0590  -10.5300 O.3    11  TYR11      -0.2866
     30  N        -34.4460    7.5290   -9.2620 N.am   12  LEU12      -0.1977
     31  CA       -33.2670    6.7530   -8.8890 C.3    12  LEU12       0.1596
     32  C        -32.0270    7.6320   -8.9440 C.2    12  LEU12       0.2287
     33  O        -31.8290    8.3650   -9.9300 O.2    12  LEU12      -0.2864
     34  CB       -33.0890    5.5560   -9.8210 C.3    12  LEU12       0.0297
     35  CG       -34.1790    4.4880   -9.7080 C.3    12  LEU12       0.0022
     36  CD1      -33.9920    3.4030  -10.7680 C.3    12  LEU12       0.0001
     37  CD2      -34.1940    3.8820   -8.3110 C.3    12  LEU12       0.0001
     38  N        -30.8700   25.4840   -9.9790 N.3    35  GLU35      -0.1231
     39  CA       -32.1540   25.3800  -10.6580 C.3    35  GLU35       0.1699
     40  C        -32.4870   23.9140  -10.8940 C.2    35  GLU35       0.2593
     41  O        -31.6910   23.1690  -11.4740 O.2    35  GLU35      -0.2718
     42  CB       -32.1220   26.1380  -11.9860 C.3    35  GLU35       0.0402
     43  CG       -33.4150   26.0100  -12.7820 C.3    35  GLU35       0.1161
     44  CD       -33.5440   27.0540  -13.8720 C.2    35  GLU35       0.3649
     45  OE1      -34.6810   27.4980  -14.1360 O.co2  35  GLU35      -0.2457
     46  OE2      -32.5110   27.4280  -14.4650 O.co2  35  GLU35      -0.2457
     47  N        -33.6610   23.5000  -10.4130 N.am   36  GLY36      -0.1942
     48  CA       -34.1030   22.1220  -10.5280 C.3    36  GLY36       0.2014
     49  C        -33.6360   21.1790   -9.4340 C.2    36  GLY36       0.2638
     50  O        -33.9840   19.9910   -9.4800 O.2    36  GLY36      -0.2714
     51  N        -32.8820   21.6620   -8.4460 N.am   37  TRP37      -0.1973
     52  CA       -32.2320   20.7840   -7.4730 C.3    37  TRP37       0.1640
     53  C        -32.3160   21.3780   -6.0790 C.2    37  TRP37       0.2290
     54  O        -31.8340   22.4950   -5.8430 O.2    37  TRP37      -0.2864
     55  CB       -30.7780   20.4880   -7.8650 C.3    37  TRP37       0.0576
     56  CG       -30.7780   19.5800   -9.0120 C.ar   37  TRP37       0.0006
     57  CD1      -30.7800   19.9260  -10.3290 C.ar   37  TRP37       0.0946
     58  CD2      -30.8930   18.1540   -8.9690 C.ar   37  TRP37       0.0152
     59  NE1      -30.8770   18.8010  -11.1080 N.ar   37  TRP37      -0.2442
     60  CE2      -30.9420   17.7000  -10.2950 C.ar   37  TRP37       0.0810
     61  CE3      -30.9320   17.2140   -7.9320 C.ar   37  TRP37       0.0012
     62  CZ2      -31.0220   16.3440  -10.6160 C.ar   37  TRP37       0.0191
     63  CZ3      -31.0110   15.8700   -8.2510 C.ar   37  TRP37       0.0001
     64  CH2      -31.0590   15.4490   -9.5810 C.ar   37  TRP37       0.0015
     65  N        -34.4150   16.1500   -7.4730 N.3    50  PRO50      -0.2116
     66  CA       -34.9340   17.0700   -8.4990 C.3    50  PRO50       0.1372
     67  C        -36.2370   17.7170   -8.0430 C.2    50  PRO50       0.2244
     68  O        -37.2150   17.0330   -7.7340 O.2    50  PRO50      -0.2868
     69  CB       -35.1510   16.1580   -9.7120 C.3    50  PRO50       0.0268
     70  CG       -35.3570   14.7860   -9.1180 C.3    50  PRO50       0.0207
     71  CD       -34.4590   14.7370   -7.9000 C.3    50  PRO50       0.0892
     72  N        -38.4480   19.3930   -9.6070 N.3    52  ASN52      -0.1225
     73  CA       -39.6050   19.2250  -10.4750 C.3    52  ASN52       0.1785
     74  C        -40.2810   17.8690  -10.3100 C.2    52  ASN52       0.2597
     75  O        -41.2760   17.5980  -10.9940 O.2    52  ASN52      -0.2718
     76  CB       -39.2620   19.5470  -11.9400 C.3    52  ASN52       0.1169
     77  CG       -38.0830   18.7460  -12.4830 C.2    52  ASN52       0.2627
     78  OD1      -37.2920   18.1690  -11.7360 O.2    52  ASN52      -0.2716
     79  ND2      -37.9590   18.7130  -13.8050 N.am   52  ASN52      -0.0877
     80  N        -39.7900   17.0150   -9.4140 N.am   53  PHE53      -0.1976
     81  CA       -40.4620   15.7610   -9.0950 C.3    53  PHE53       0.1639
     82  C        -41.3900   15.8950   -7.8920 C.2    53  PHE53       0.2290
     83  O        -41.9250   14.8860   -7.4170 O.2    53  PHE53      -0.2864
     84  CB       -39.4280   14.6540   -8.8390 C.3    53  PHE53       0.0560
     85  CG       -38.8310   14.0590  -10.0980 C.ar   53  PHE53      -0.0200
     86  CD1      -38.7690   12.6830  -10.2640 C.ar   53  PHE53      -0.0042
     87  CD2      -38.3270   14.8670  -11.0990 C.ar   53  PHE53      -0.0042
     88  CE1      -38.2200   12.1260  -11.4100 C.ar   53  PHE53      -0.0003
     89  CE2      -37.7800   14.3230  -12.2460 C.ar   53  PHE53      -0.0003
     90  CZ       -37.7280   12.9420  -12.4020 C.ar   53  PHE53      -0.0000
@<TRIPOS>BOND
     1    46    44   ar
     2    45    44   ar
     3    44    43    1
     4    79    77   am
     5     9    11   ar
     6     9     7   ar
     7    43    42    1
     8    11    10   ar
     9    77    76    1
    10    77    78    2
    11    90    89   ar
    12    90    88   ar
    13    89    87   ar
    14     7     6   ar
    15    42    39    1
    16    76    73    1
    17    10     8   ar
    18    41    40    2
    19    88    86   ar
    20     6     8   ar
    21     6     5    1
    22    59    57   ar
    23    59    60   ar
    24    87    85   ar
    25    75    74    2
    26    26    24   ar
    27    26    28   ar
    28    40    39    1
    29    40    47   am
    30    36    35    1
    31    39    38    1
    32    62    60   ar
    33    62    64   ar
    34    29    28    1
    35    48    47    1
    36    48    49    1
    37     5     2    1
    38    73    74    1
    39    73    72    1
    40    24    23   ar
    41    57    56   ar
    42    74    80   am
    43    60    58   ar
    44    86    85   ar
    45    15    14    2
    46    85    84    1
    47    28    27   ar
    48    33    32    2
    49    34    35    1
    50    34    31    1
    51    17    16    1
    52    69    70    1
    53    69    66    1
    54    35    37    1
    55    64    63   ar
    56    50    49    2
    57    49    51   am
    58    80    81    1
    59    30    31    1
    60    30    20   am
    61     2     3    1
    62     2     1    1
    63    70    71    1
    64    23    22    1
    65    23    25   ar
    66    81    84    1
    67    81    82    1
    68    56    58   ar
    69    56    55    1
    70    14    18   am
    71    14    13    1
    72    58    61   ar
    73    32    31    1
    74    19    22    1
    75    19    20    1
    76    19    18    1
    77    12     3   am
    78    12    13    1
    79    27    25   ar
    80     3     4    2
    81    66    67    1
    82    66    65    1
    83    51    52    1
    84    16    13    1
    85    20    21    2
    86    63    61   ar
    87    67    68    2
    88    71    65    1
    89    82    83    2
    90    55    52    1
    91    52    53    1
    92    53    54    2
