@<TRIPOS>MOLECULE
tmp/5xi3A00.pdb
 142 137 0 0 0
SMALL
GASTEIGER

@<TRIPOS>ATOM
      1  N          2.4430   47.1840    0.5600 N.3    39  TRP39      -0.1228
      2  CA         2.0860   45.9090    1.1780 C.3    39  TRP39       0.1722
      3  C          3.2760   45.0210    1.5340 C.2    39  TRP39       0.2437
      4  O          3.1940   44.3300    2.5690 O.2    39  TRP39      -0.2733
      5  CB         1.0840   45.1580    0.2840 C.3    39  TRP39       0.0563
      6  CG         1.5570   44.8440   -1.0970 C.ar   39  TRP39       0.0003
      7  CD1        1.3620   45.5960   -2.2150 C.ar   39  TRP39       0.0946
      8  CD2        2.2870   43.6830   -1.5160 C.ar   39  TRP39       0.0152
      9  NE1        1.9420   44.9870   -3.3090 N.ar   39  TRP39      -0.2442
     10  CE2        2.5190   43.8120   -2.9030 C.ar   39  TRP39       0.0810
     11  CE3        2.7900   42.5590   -0.8520 C.ar   39  TRP39       0.0012
     12  CZ2        3.2040   42.8530   -3.6380 C.ar   39  TRP39       0.0191
     13  CZ3        3.4760   41.6030   -1.5900 C.ar   39  TRP39       0.0001
     14  CH2        3.6690   41.7570   -2.9700 C.ar   39  TRP39       0.0015
     15  N          4.3810   44.9750    0.7750 N.am   40  PRO40      -0.2718
     16  CA         5.5020   44.1370    1.2140 C.3    40  PRO40       0.1535
     17  C          6.1110   44.5970    2.5090 C.2    40  PRO40       0.2598
     18  O          6.8060   43.8140    3.1550 O.2    40  PRO40      -0.2715
     19  CB         6.5170   44.2550    0.0730 C.3    40  PRO40       0.0310
     20  CG         5.7310   44.7160   -1.1040 C.3    40  PRO40       0.0237
     21  CD         4.7010   45.6310   -0.5090 C.3    40  PRO40       0.0939
     22  N          5.8920   45.8510    2.8910 N.am   41  PHE41      -0.1974
     23  CA         6.5990   46.4720    3.9960 C.3    41  PHE41       0.1639
     24  C          5.7260   46.6570    5.2280 C.2    41  PHE41       0.2290
     25  O          6.1730   47.2820    6.1990 O.2    41  PHE41      -0.2864
     26  CB         7.1790   47.8130    3.5240 C.3    41  PHE41       0.0560
     27  CG         8.0430   47.6860    2.2890 C.ar   41  PHE41      -0.0200
     28  CD1        9.3580   47.2580    2.3850 C.ar   41  PHE41      -0.0042
     29  CD2        7.5250   47.9460    1.0300 C.ar   41  PHE41      -0.0042
     30  CE1       10.1450   47.1110    1.2610 C.ar   41  PHE41      -0.0003
     31  CE2        8.3070   47.7920   -0.1040 C.ar   41  PHE41      -0.0003
     32  CZ         9.6190   47.3830    0.0120 C.ar   41  PHE41      -0.0000
     33  N          4.6880   44.3900    7.3560 N.3    43  GLN43      -0.1245
     34  CA         4.8880   43.3840    8.3910 C.3    43  GLN43       0.1566
     35  C          6.3150   42.8840    8.2820 C.2    43  GLN43       0.2260
     36  O          6.9640   43.0710    7.2440 O.2    43  GLN43      -0.2867
     37  CB         3.9050   42.2060    8.2550 C.3    43  GLN43       0.0367
     38  CG         3.9660   41.4830    6.9230 C.3    43  GLN43       0.0905
     39  CD         3.2860   42.2410    5.7900 C.2    43  GLN43       0.2608
     40  OE1        2.1230   42.6330    5.8990 O.2    43  GLN43      -0.2717
     41  NE2        4.0230   42.4840    4.7160 N.am   43  GLN43      -0.0878
     42  N          9.3270   40.5290    7.4460 N.3    45  VAL45      -0.1245
     43  CA         9.5660   39.4760    6.4700 C.3    45  VAL45       0.1561
     44  C          9.4200   38.1120    7.1410 C.2    45  VAL45       0.2260
     45  O         10.1040   37.8060    8.1260 O.2    45  VAL45      -0.2867
     46  CB        10.9530   39.6580    5.8430 C.3    45  VAL45       0.0252
     47  CG1       11.3500   38.4280    5.0280 C.3    45  VAL45       0.0019
     48  CG2       10.9860   40.9160    4.9820 C.3    45  VAL45       0.0019
     49  N          7.4200   33.1380    3.0180 N.3    50  LEU50      -0.1245
     50  CA         7.9050   33.6740    1.7590 C.3    50  LEU50       0.1561
     51  C          8.9910   32.8170    1.1300 C.2    50  LEU50       0.2260
     52  O          9.4530   33.1440    0.0280 O.2    50  LEU50      -0.2867
     53  CB         8.4330   35.1040    1.9580 C.3    50  LEU50       0.0270
     54  CG         7.4120   36.2210    2.1970 C.3    50  LEU50       0.0019
     55  CD1        8.1370   37.5540    2.3360 C.3    50  LEU50       0.0001
     56  CD2        6.4010   36.2780    1.0680 C.3    50  LEU50       0.0001
     57  N         12.1760   32.3090    1.9370 N.3    52  LEU52      -0.1245
     58  CA        13.4180   33.0730    1.8420 C.3    52  LEU52       0.1561
     59  C         14.3050   32.6750    3.0120 C.2    52  LEU52       0.2260
     60  O         14.4990   33.4570    3.9510 O.2    52  LEU52      -0.2867
     61  CB        13.1510   34.5760    1.8720 C.3    52  LEU52       0.0270
     62  CG        12.1710   35.1210    0.8360 C.3    52  LEU52       0.0019
     63  CD1       11.6250   36.4540    1.3180 C.3    52  LEU52       0.0001
     64  CD2       12.8700   35.2620   -0.5000 C.3    52  LEU52       0.0001
     65  N         17.0430   35.1130    4.2880 N.3    55  TYR55      -0.1241
     66  CA        16.7640   36.5370    4.4880 C.3    55  TYR55       0.1605
     67  C         17.4850   37.0650    5.7170 C.2    55  TYR55       0.2264
     68  O         18.1770   38.0860    5.6510 O.2    55  TYR55      -0.2867
     69  CB        15.2660   36.8160    4.6220 C.3    55  TYR55       0.0534
     70  CG        15.0340   38.3090    4.7350 C.ar   55  TYR55      -0.0201
     71  CD1       15.1020   39.1240    3.6130 C.ar   55  TYR55      -0.0009
     72  CD2       14.8100   38.9060    5.9740 C.ar   55  TYR55      -0.0009
     73  CE1       14.9280   40.5030    3.7160 C.ar   55  TYR55       0.0417
     74  CE2       14.6450   40.2890    6.0880 C.ar   55  TYR55       0.0417
     75  CZ        14.6910   41.0720    4.9610 C.ar   55  TYR55       0.1957
     76  OH        14.5240   42.4410    5.0610 O.3    55  TYR55      -0.2866
     77  N         14.6540   50.1020    7.1130 N.3    90  MET90      -0.1245
     78  CA        13.7430   49.2990    6.3040 C.3    90  MET90       0.1570
     79  C         14.0760   49.4000    4.8190 C.2    90  MET90       0.2261
     80  O         14.1380   48.3830    4.1180 O.2    90  MET90      -0.2867
     81  CB        12.3010   49.7390    6.5570 C.3    90  MET90       0.0387
     82  CG        11.2900   49.1110    5.5950 C.3    90  MET90       0.0595
     83  SD         9.6300   49.6620    5.9420 S.3    90  MET90      -0.1393
     84  CE         9.6180   51.1970    5.0350 C.3    90  MET90       0.0692
     85  N         16.0470   46.3880    2.1970 N.3    94  CYS94      -0.1235
     86  CA        15.5270   45.9380    0.9150 C.3    94  CYS94       0.1677
     87  C         16.5940   46.0210   -0.1730 C.2    94  CYS94       0.2270
     88  O         16.7400   45.0960   -0.9830 O.2    94  CYS94      -0.2867
     89  CB        14.2930   46.7640    0.5570 C.3    94  CYS94       0.0956
     90  SG        13.4480   46.2080   -0.9260 S.3    94  CYS94      -0.0801
     91  N         19.2760   43.1350    0.5640 N.3    97  TYR97      -0.1227
     92  CA        18.9360   41.7340    0.3500 C.3    97  TYR97       0.1736
     93  C         18.6840   41.4170   -1.1160 C.2    97  TYR97       0.2595
     94  O         18.8470   40.2610   -1.5260 O.2    97  TYR97      -0.2718
     95  CB        17.7140   41.3080    1.1780 C.3    97  TYR97       0.0548
     96  CG        17.3170   39.8580    0.9040 C.ar   97  TYR97      -0.0200
     97  CD1       18.0350   38.7990    1.4580 C.ar   97  TYR97      -0.0009
     98  CD2       16.2590   39.5530    0.0540 C.ar   97  TYR97      -0.0009
     99  CE1       17.6880   37.4720    1.1880 C.ar   97  TYR97       0.0417
    100  CE2       15.9120   38.2340   -0.2250 C.ar   97  TYR97       0.0417
    101  CZ        16.6270   37.2050    0.3460 C.ar   97  TYR97       0.1957
    102  OH        16.2750   35.9020    0.0720 O.3    97  TYR97      -0.2866
    103  N         18.3130   42.4110   -1.9100 N.am   98  ASN98      -0.1974
    104  CA        17.9430   42.2180   -3.2980 C.3    98  ASN98       0.1688
    105  C         19.0560   42.7590   -4.1990 C.2    98  ASN98       0.2292
    106  O         20.2360   42.7250   -3.8230 O.2    98  ASN98      -0.2864
    107  CB        16.5740   42.8640   -3.5110 C.3    98  ASN98       0.1181
    108  CG        15.5000   42.1900   -2.6700 C.2    98  ASN98       0.2629
    109  OD1       15.1210   41.0460   -2.9340 O.2    98  ASN98      -0.2716
    110  ND2       15.0330   42.8800   -1.6220 N.am   98  ASN98      -0.0877
    111  N         15.1520   44.9540   -9.3390 N.3   102  ASP102     -0.1225
    112  CA        14.1630   44.0060   -8.8360 C.3   102  ASP102      0.1805
    113  C         12.8470   44.7140   -8.5400 C.2   102  ASP102      0.2598
    114  O         12.8330   45.8720   -8.1130 O.2   102  ASP102     -0.2718
    115  CB        14.6750   43.3460   -7.5540 C.3   102  ASP102      0.1424
    116  CG        15.6970   42.2630   -7.8070 C.2   102  ASP102      0.3668
    117  OD1       16.0440   42.0090   -8.9870 O.co2 102  ASP102     -0.2456
    118  OD2       16.1590   41.6560   -6.8110 O.co2 102  ASP102     -0.2456
    119  N         11.7330   44.0060   -8.7590 N.am  103  ASP103     -0.1960
    120  CA        10.4130   44.5790   -8.4940 C.3   103  ASP103      0.1840
    121  C         10.3150   45.1320   -7.0700 C.2   103  ASP103      0.2621
    122  O          9.8260   46.2480   -6.8590 O.2   103  ASP103     -0.2715
    123  CB         9.3250   43.5220   -8.7370 C.3   103  ASP103      0.1450
    124  CG         8.8380   43.4970  -10.1830 C.2   103  ASP103      0.3671
    125  OD1        9.2930   44.3340  -10.9940 O.co2 103  ASP103     -0.2456
    126  OD2        7.9870   42.6410  -10.5080 O.co2 103  ASP103     -0.2456
    127  N         10.7990   44.3790   -6.0780 N.am  104  ILE104     -0.1977
    128  CA        10.6910   44.8420   -4.6890 C.3   104  ILE104      0.1596
    129  C         11.5130   46.1030   -4.4720 C.2   104  ILE104      0.2287
    130  O         11.1210   46.9850   -3.6960 O.2   104  ILE104     -0.2864
    131  CB        11.0910   43.7170   -3.7080 C.3   104  ILE104      0.0276
    132  CG1       10.8110   44.1350   -2.2630 C.3   104  ILE104      0.0022
    133  CG2       12.5500   43.3120   -3.8880 C.3   104  ILE104      0.0022
    134  CD1        9.3550   44.2190   -1.9400 C.3   104  ILE104      0.0001
    135  N          9.7840   49.1140   -5.7760 N.3   107  MET107     -0.1245
    136  CA         8.7930   49.5110   -4.7790 C.3   107  MET107      0.1570
    137  C          9.4380   50.3200   -3.6600 C.2   107  MET107      0.2261
    138  O          8.9440   51.3900   -3.2910 O.2   107  MET107     -0.2867
    139  CB         8.0860   48.2750   -4.2160 C.3   107  MET107      0.0387
    140  CG         7.2150   47.5900   -5.2520 C.3   107  MET107      0.0595
    141  SD         6.6850   45.9550   -4.7160 S.3   107  MET107     -0.1393
    142  CE         5.0700   46.3430   -4.1160 C.3   107  MET107      0.0692
@<TRIPOS>BOND
     1   125   124   ar
     2   126   124   ar
     3   124   123    1
     4   111   112    1
     5   117   116   ar
     6   112   113    1
     7   112   115    1
     8   119   113   am
     9   119   120    1
    10   123   120    1
    11   113   114    2
    12   120   121    1
    13   116   115    1
    14   116   118   ar
    15   121   122    2
    16   121   127   am
    17   127   128    1
    18   135   136    1
    19   140   141    1
    20   140   139    1
    21   136   139    1
    22   136   137    1
    23   141   142    1
    24   128   129    1
    25   128   131    1
    26   129   130    2
    27   105   106    2
    28   105   104    1
    29   133   131    1
    30   131   132    1
    31   137   138    2
    32    12    14   ar
    33    12    10   ar
    34   107   104    1
    35   107   108    1
    36     9    10   ar
    37     9     7   ar
    38   104   103    1
    39    14    13   ar
    40   109   108    2
    41    10     8   ar
    42   108   110   am
    43   132   134    1
    44     7     6   ar
    45   103    93   am
    46    13    11   ar
    47    94    93    2
    48     8     6   ar
    49     8    11   ar
    50    93    92    1
    51    20    21    1
    52    20    19    1
    53     6     5    1
    54    88    87    2
    55    90    89    1
    56    21    15    1
    57    64    62    1
    58   100    98   ar
    59   100   101   ar
    60    87    86    1
    61    31    32   ar
    62    31    29   ar
    63    32    30   ar
    64    52    51    2
    65    98    96   ar
    66   102   101    1
    67    19    16    1
    68     5     2    1
    69   101    99   ar
    70    92    91    1
    71    92    95    1
    72    89    86    1
    73     1     2    1
    74    15    16    1
    75    15     3   am
    76    62    63    1
    77    62    61    1
    78    96    95    1
    79    96    97   ar
    80    86    85    1
    81    29    27   ar
    82    56    54    1
    83    51    50    1
    84     2     3    1
    85    99    97   ar
    86    16    17    1
    87    30    28   ar
    88     3     4    2
    89    50    53    1
    90    50    49    1
    91    58    61    1
    92    58    57    1
    93    58    59    1
    94    53    54    1
    95    54    55    1
    96    27    28   ar
    97    27    26    1
    98    17    22   am
    99    17    18    2
   100    22    23    1
   101    59    60    2
   102    26    23    1
   103    71    73   ar
   104    71    70   ar
   105    73    75   ar
   106    23    24    1
   107    80    79    2
   108    65    66    1
   109    66    69    1
   110    66    67    1
   111    69    70    1
   112    41    39   am
   113    70    72   ar
   114    79    78    1
   115    75    76    1
   116    75    74   ar
   117    48    46    1
   118    47    46    1
   119    84    83    1
   120    24    25    2
   121    82    83    1
   122    82    81    1
   123    68    67    2
   124    39    40    2
   125    39    38    1
   126    46    43    1
   127    72    74   ar
   128    78    81    1
   129    78    77    1
   130    43    44    1
   131    43    42    1
   132    38    37    1
   133    44    45    2
   134    36    35    2
   135    33    34    1
   136    37    34    1
   137    35    34    1
