@<TRIPOS>MOLECULE
tmp/5xiaA00.pdb
 156 147 0 0 0
SMALL
GASTEIGER

@<TRIPOS>ATOM
      1  N         20.9280   76.8070   18.0800 N.3    14  TRP14      -0.1241
      2  CA        20.4240   75.8390   17.1040 C.3    14  TRP14       0.1605
      3  C         20.8970   74.4260   17.3920 C.2    14  TRP14       0.2264
      4  O         20.3910   73.4670   16.7210 O.2    14  TRP14      -0.2867
      5  CB        20.8150   76.3110   15.6790 C.3    14  TRP14       0.0550
      6  CG        22.2450   76.0610   15.3260 C.ar   14  TRP14       0.0003
      7  CD1       22.8020   74.9320   14.7620 C.ar   14  TRP14       0.0946
      8  CD2       23.3630   76.9140   15.6240 C.ar   14  TRP14       0.0152
      9  NE1       24.1580   75.0510   14.6640 N.ar   14  TRP14      -0.2442
     10  CE2       24.5620   76.2430   15.1950 C.ar   14  TRP14       0.0810
     11  CE3       23.4750   78.1560   16.2050 C.ar   14  TRP14       0.0012
     12  CZ2       25.8420   76.8250   15.2910 C.ar   14  TRP14       0.0191
     13  CZ3       24.7450   78.7240   16.2840 C.ar   14  TRP14       0.0001
     14  CH2       25.8990   78.0720   15.8290 C.ar   14  TRP14       0.0015
     15  N         22.6320   82.3290   15.3500 N.3    52  HIS52      -0.1297
     16  CA        22.3960   82.8400   14.0100 C.3    52  HIS52       0.1306
     17  C         21.3610   83.9730   14.2070 C.3    52  HIS52       0.2013
     18  O         20.4320   83.7630   15.0890 O.3    52  HIS52      -0.2188
     19  CB        21.6600   81.9670   12.9560 C.3    52  HIS52       0.0691
     20  CG        22.4950   80.8660   12.4130 C.ar   52  HIS52       0.0814
     21  ND1       22.5270   79.6460   13.0440 N.ar   52  HIS52      -0.2268
     22  CD2       23.2900   80.7070   11.3510 C.ar   52  HIS52       0.1154
     23  CE1       23.3010   78.7920   12.4430 C.ar   52  HIS52       0.1986
     24  NE2       23.7530   79.3950   11.4100 N.ar   52  HIS52      -0.2212
     25  N         26.5690   84.4480   14.0240 N.3    88  THR88      -0.1203
     26  CA        26.5460   84.0820   12.5970 C.3    88  THR88       0.1994
     27  C         25.2540   84.5000   11.9340 C.2    88  THR88       0.2618
     28  O         24.3240   85.0030   12.6030 O.2    88  THR88      -0.2717
     29  CB        27.0060   82.5760   12.4120 C.3    88  THR88       0.1784
     30  OG1       27.2260   82.4500   10.9440 O.3    88  THR88      -0.2211
     31  CG2       26.1000   81.5630   13.0170 C.3    88  THR88       0.0376
     32  N         25.1520   84.4880   10.6400 N.am   89  THR89      -0.1952
     33  CA        23.9870   84.9290    9.8810 C.3    89  THR89       0.1897
     34  C         23.3420   83.7220    9.2020 C.2    89  THR89       0.2313
     35  O         24.0710   82.8090    8.8260 O.2    89  THR89      -0.2863
     36  CB        24.3010   86.0470    8.8020 C.3    89  THR89       0.1794
     37  OG1       25.3520   86.8790    9.3770 O.3    89  THR89      -0.2208
     38  CG2       23.1290   86.9970    8.5170 C.3    89  THR89       0.0378
     39  N         20.6480   80.7150    4.4530 N.3    92  PHE92      -0.1298
     40  CA        20.2870   79.4500    3.9020 C.3    92  PHE92       0.1290
     41  C         18.8620   78.9580    4.1520 C.3    92  PHE92       0.2013
     42  O         18.4590   78.1040    3.3010 O.3    92  PHE92      -0.2188
     43  CB        21.2910   78.3490    4.3500 C.3    92  PHE92       0.0480
     44  CG        21.5480   78.3260    5.8420 C.ar   92  PHE92      -0.0206
     45  CD1       20.6790   77.6020    6.6920 C.ar   92  PHE92      -0.0042
     46  CD2       22.6440   79.0010    6.3740 C.ar   92  PHE92      -0.0042
     47  CE1       20.9390   77.6270    8.0700 C.ar   92  PHE92      -0.0003
     48  CE2       22.8720   78.9920    7.7680 C.ar   92  PHE92      -0.0003
     49  CZ        22.0170   78.3000    8.6210 C.ar   92  PHE92      -0.0000
     50  N         31.2630   84.2950   12.1680 N.3   133  VAL133     -0.1245
     51  CA        31.3970   83.1530   11.2650 C.3   133  VAL133      0.1561
     52  C         30.5670   83.3330   10.0460 C.2   133  VAL133      0.2260
     53  O         29.3710   83.6990   10.1640 O.2   133  VAL133     -0.2867
     54  CB        31.0210   81.8430   12.0550 C.3   133  VAL133      0.0252
     55  CG1       30.7290   80.6250   11.1930 C.3   133  VAL133      0.0019
     56  CG2       32.1160   81.5420   13.0980 C.3   133  VAL133      0.0019
     57  N         29.1680   80.7750    7.0490 N.3   135  TRP135     -0.1298
     58  CA        29.1000   79.3670    6.5140 C.3   135  TRP135      0.1291
     59  C         28.3080   79.5540    5.2240 C.3   135  TRP135      0.2013
     60  O         27.0640   79.7170    5.4280 O.3   135  TRP135     -0.2188
     61  CB        28.4800   78.3230    7.4150 C.3   135  TRP135      0.0497
     62  CG        28.1650   77.0670    6.7090 C.ar  135  TRP135     -0.0001
     63  CD1       29.0440   76.2500    6.0300 C.ar  135  TRP135      0.0946
     64  CD2       26.8730   76.4720    6.5390 C.ar  135  TRP135      0.0152
     65  NE1       28.3960   75.1570    5.4560 N.ar  135  TRP135     -0.2442
     66  CE2       27.0660   75.2880    5.7360 C.ar  135  TRP135      0.0810
     67  CE3       25.5960   76.8190    6.9750 C.ar  135  TRP135      0.0012
     68  CZ2       26.0270   74.4460    5.3810 C.ar  135  TRP135      0.0191
     69  CZ3       24.5670   75.9670    6.6070 C.ar  135  TRP135      0.0001
     70  CH2       24.7440   74.7940    5.8450 C.ar  135  TRP135      0.0015
     71  N         33.7750   79.1920    7.0180 N.3   179  GLU179     -0.1245
     72  CA        33.5040   77.7890    7.2610 C.3   179  GLU179      0.1567
     73  C         33.1480   76.9260    6.0410 C.2   179  GLU179      0.2260
     74  O         32.0480   76.8760    5.4520 O.2   179  GLU179     -0.2867
     75  CB        32.3710   77.6150    8.2990 C.3   179  GLU179      0.0388
     76  CG        32.0990   76.2130    8.7680 C.3   179  GLU179      0.1160
     77  CD        31.0990   76.1040    9.8440 C.2   179  GLU179      0.3649
     78  OE1       30.5730   76.9630   10.4830 O.co2 179  GLU179     -0.2457
     79  OE2       30.8140   74.9080   10.0490 O.co2 179  GLU179     -0.2457
     80  N         32.6760   73.4440    3.7490 N.3   181  LYS181     -0.1245
     81  CA        31.7940   72.2410    3.7440 C.3   181  LYS181      0.1561
     82  C         31.7100   71.7780    2.2810 C.2   181  LYS181      0.2260
     83  O         31.4440   72.6330    1.4340 O.2   181  LYS181     -0.2867
     84  CB        30.4190   72.5330    4.3460 C.3   181  LYS181      0.0271
     85  CG        29.4430   71.3380    4.2660 C.3   181  LYS181      0.0035
     86  CD        28.2090   71.5760    5.0880 C.3   181  LYS181      0.0206
     87  CE        27.4260   70.3390    5.4230 C.3   181  LYS181      0.1093
     88  NZ        26.1530   70.7770    6.0600 N.3   181  LYS181     -0.1314
     89  N         37.0250   78.6050   10.2870 N.3   213  ASN213     -0.1240
     90  CA        36.1890   77.9110   11.2780 C.3   213  ASN213      0.1653
     91  C         35.9350   76.4950   10.7770 C.2   213  ASN213      0.2266
     92  O         34.8490   76.1810   10.2380 O.2   213  ASN213     -0.2867
     93  CB        34.9150   78.7370   11.5740 C.3   213  ASN213      0.1155
     94  CG        33.9980   78.0600   12.5540 C.2   213  ASN213      0.2627
     95  OD1       34.4990   77.7010   13.6340 O.2   213  ASN213     -0.2716
     96  ND2       32.7310   77.7850   12.2540 N.am  213  ASN213     -0.0877
     97  N         35.0660   72.4540   10.6690 N.3   215  GLU215     -0.1245
     98  CA        34.1520   71.6620   11.4970 C.3   215  GLU215      0.1567
     99  C         34.6000   70.2370   11.2960 C.2   215  GLU215      0.2260
    100  O         34.9830   69.8780   10.1710 O.2   215  GLU215     -0.2867
    101  CB        32.7070   71.8240   11.2680 C.3   215  GLU215      0.0388
    102  CG        31.7120   70.8380   11.8720 C.3   215  GLU215      0.1160
    103  CD        30.2640   71.2900   11.7830 C.2   215  GLU215      0.3649
    104  OE1       30.0440   72.5190   12.0200 O.co2 215  GLU215     -0.2457
    105  OE2       29.4740   70.2970   11.4650 O.co2 215  GLU215     -0.2457
    106  N         32.5610   68.1010    8.6640 N.3   218  HIS218     -0.1241
    107  CA        32.6840   68.6730    7.3210 C.3   218  HIS218      0.1621
    108  C         33.9520   68.1400    6.6860 C.2   218  HIS218      0.2264
    109  O         33.8420   67.5070    5.5950 O.2   218  HIS218     -0.2867
    110  CB        32.7470   70.1670    7.3550 C.3   218  HIS218      0.0745
    111  CG        31.5090   70.8360    7.8350 C.ar  218  HIS218      0.0817
    112  ND1       31.5000   72.2560    7.6870 N.ar  218  HIS218     -0.2268
    113  CD2       30.3400   70.4770    8.3470 C.ar  218  HIS218      0.1154
    114  CE1       30.3380   72.7000    8.1070 C.ar  218  HIS218      0.1986
    115  NE2       29.6550   71.6840    8.5050 N.ar  218  HIS218     -0.2212
    116  N         34.5700   74.1820   15.2360 N.3   243  ASP243     -0.1239
    117  CA        33.2930   73.5460   15.4660 C.3   243  ASP243      0.1674
    118  C         33.6160   72.0470   15.7070 C.2   243  ASP243      0.2266
    119  O         34.2350   71.4720   14.7850 O.2   243  ASP243     -0.2867
    120  CB        32.3430   73.6350   14.3110 C.3   243  ASP243      0.1410
    121  CG        31.6350   74.9430   14.1910 C.2   243  ASP243      0.3668
    122  OD1       31.8200   75.8200   15.0360 O.co2 243  ASP243     -0.2456
    123  OD2       30.8720   74.9930   13.1930 O.co2 243  ASP243     -0.2456
    124  N         25.7440   64.6860    6.6430 N.3   253  ASP253     -0.1239
    125  CA        26.2930   65.3400    7.8650 C.3   253  ASP253      0.1674
    126  C         25.4090   64.9020    9.0610 C.2   253  ASP253      0.2266
    127  O         24.2300   65.2820    9.0620 O.2   253  ASP253     -0.2867
    128  CB        26.4680   66.8670    7.8670 C.3   253  ASP253      0.1410
    129  CG        25.3680   67.6370    7.1920 C.2   253  ASP253      0.3668
    130  OD1       24.6550   67.0050    6.2930 O.co2 253  ASP253     -0.2456
    131  OD2       25.1460   68.8380    7.5220 O.co2 253  ASP253     -0.2456
    132  N         26.3150   65.3070   12.5290 N.3   255  ASP255     -0.1239
    133  CA        26.3490   66.2320   13.6700 C.3   255  ASP255      0.1674
    134  C         26.1880   65.4990   14.9870 C.2   255  ASP255      0.2266
    135  O         25.3300   65.7850   15.8270 O.2   255  ASP255     -0.2867
    136  CB        25.2190   67.2540   13.4560 C.3   255  ASP255      0.1410
    137  CG        25.4810   68.2610   12.3740 C.2   255  ASP255      0.3668
    138  OD1       26.6610   68.4040   12.0250 O.co2 255  ASP255     -0.2456
    139  OD2       24.5490   68.9080   11.8480 O.co2 255  ASP255     -0.2456
    140  N         29.0770   72.0480   17.6460 N.3   291  ASP291     -0.1239
    141  CA        28.0290   72.2560   16.5860 C.3   291  ASP291      0.1674
    142  C         27.5250   70.8520   16.1860 C.2   291  ASP291      0.2266
    143  O         28.0300   70.3000   15.1850 O.2   291  ASP291     -0.2867
    144  CB        28.5740   73.1970   15.5000 C.3   291  ASP291      0.1410
    145  CG        27.6460   73.4380   14.3350 C.2   291  ASP291      0.3668
    146  OD1       27.9860   73.8890   13.2360 O.co2 291  ASP291     -0.2456
    147  OD2       26.4200   73.1350   14.3850 O.co2 291  ASP291     -0.2456
    148  N         23.8780   68.0040   16.8350 N.3   293  LYS293     -0.1245
    149  CA        22.4460   67.9240   16.9350 C.3   293  LYS293      0.1561
    150  C         22.0870   66.7140   17.7820 C.2   293  LYS293      0.2260
    151  O         22.5360   65.5960   17.4760 O.2   293  LYS293     -0.2867
    152  CB        21.9050   67.6140   15.5200 C.3   293  LYS293      0.0271
    153  CG        21.6350   68.8200   14.7070 C.3   293  LYS293      0.0035
    154  CD        21.4460   68.7360   13.1930 C.3   293  LYS293      0.0206
    155  CE        21.3460   70.2030   12.8230 C.3   293  LYS293      0.1093
    156  NZ        22.5340   71.1010   12.6220 N.3   293  LYS293     -0.1314
@<TRIPOS>BOND
     1    83    82    2
     2    82    81    1
     3    42    41    1
     4    81    80    1
     5    81    84    1
     6    40    41    1
     7    40    43    1
     8    40    39    1
     9    85    84    1
    10    85    86    1
    11    43    44    1
    12    86    87    1
    13    59    60    1
    14    59    58    1
    15    68    66   ar
    16    68    70   ar
    17    87    88    1
    18    74    73    2
    19    65    66   ar
    20    65    63   ar
    21   109   108    2
    22    66    64   ar
    23    44    46   ar
    24    44    45   ar
    25    70    69   ar
    26    63    62   ar
    27    73    72    1
    28   130   129   ar
    29    46    48   ar
    30    58    57    1
    31    58    61    1
    32    64    62   ar
    33    64    67   ar
    34    69    67   ar
    35   124   125    1
    36   108   107    1
    37    45    47   ar
    38    62    61    1
    39    71    72    1
    40   129   131   ar
    41   129   128    1
    42    72    75    1
    43   107   110    1
    44   107   106    1
    45   110   111    1
    46   112   111   ar
    47   112   114   ar
    48    48    49   ar
    49   111   113   ar
    50   125   128    1
    51   125   126    1
    52    47    49   ar
    53   114   115   ar
    54    75    76    1
    55   113   115   ar
    56    38    36    1
    57    76    77    1
    58    36    37    1
    59    36    33    1
    60    35    34    2
    61   126   127    2
    62    34    33    1
    63    77    79   ar
    64    77    78   ar
    65    33    32    1
    66    52    53    2
    67    52    51    1
    68   100    99    2
    69    92    91    2
    70    89    90    1
    71    32    27   am
    72    97    98    1
    73    91    90    1
    74    30    29    1
    75    55    54    1
    76    51    54    1
    77    51    50    1
    78   101    98    1
    79   101   102    1
    80    90    93    1
    81    99    98    1
    82    22    24   ar
    83    22    20   ar
    84    24    23   ar
    85   105   103   ar
    86    93    94    1
    87   103   102    1
    88   103   104   ar
    89   139   137   ar
    90    27    26    1
    91    27    28    2
    92   138   137   ar
    93    54    56    1
    94    96    94   am
    95   137   136    1
    96    29    26    1
    97    29    31    1
    98    20    19    1
    99    20    21   ar
   100    23    21   ar
   101   132   133    1
   102    94    95    2
   103    26    25    1
   104   156   155    1
   105   155   154    1
   106    19    16    1
   107   123   121   ar
   108   154   153    1
   109   146   145   ar
   110   136   133    1
   111   133   134    1
   112    16    17    1
   113    16    15    1
   114   121   120    1
   115   121   122   ar
   116    17    18    1
   117   120   117    1
   118   145   147   ar
   119   145   144    1
   120     9     7   ar
   121     9    10   ar
   122   153   152    1
   123     7     6   ar
   124   119   118    2
   125   134   135    2
   126   143   142    2
   127    10    12   ar
   128    10     8   ar
   129   116   117    1
   130    12    14   ar
   131     6     8   ar
   132     6     5    1
   133   117   118    1
   134   144   141    1
   135   152   149    1
   136     8    11   ar
   137     5     2    1
   138    14    13   ar
   139   142   141    1
   140    11    13   ar
   141   141   140    1
   142     4     3    2
   143   148   149    1
   144   149   150    1
   145     2     3    1
   146     2     1    1
   147   151   150    2
