@<TRIPOS>MOLECULE
tmp/5xicA02.pdb
 107 98 0 0 0
SMALL
GASTEIGER

@<TRIPOS>ATOM
      1  N          2.4420   -4.9270   22.3520 N.3     6  SER6       -0.1217
      2  CA         2.3860   -6.3560   22.6680 C.3     6  SER6        0.1889
      3  C          3.5130   -6.6350   23.6400 C.2     6  SER6        0.2288
      4  O          4.6260   -6.1730   23.4290 O.2     6  SER6       -0.2866
      5  CB         2.5710   -7.1950   21.4080 C.3     6  SER6        0.2089
      6  OG         2.2090   -8.5490   21.6230 O.3     6  SER6       -0.2183
      7  N         11.7620   -4.1990    6.9090 N.3    55  GLN55      -0.1245
      8  CA        12.4330   -4.3290    8.1970 C.3    55  GLN55       0.1566
      9  C         13.8880   -3.9080    8.1090 C.2    55  GLN55       0.2260
     10  O         14.5480   -4.1470    7.0860 O.2    55  GLN55      -0.2867
     11  CB        12.4250   -5.7740    8.6650 C.3    55  GLN55       0.0367
     12  CG        11.0510   -6.3660    8.8980 C.3    55  GLN55       0.0905
     13  CD        11.1440   -7.8530    9.1820 C.2    55  GLN55       0.2608
     14  OE1       11.8280   -8.5840    8.4630 O.2    55  GLN55      -0.2717
     15  NE2       10.5060   -8.2980   10.2560 N.am   55  GLN55      -0.0878
     16  N         14.0040   -5.1490   15.8630 N.3    68  ILE68      -0.1245
     17  CA        13.5320   -5.0940   14.4760 C.3    68  ILE68       0.1561
     18  C         12.6740   -3.8450   14.3370 C.2    68  ILE68       0.2260
     19  O         11.6670   -3.7000   15.0350 O.2    68  ILE68      -0.2867
     20  CB        12.6960   -6.3270   14.0770 C.3    68  ILE68       0.0252
     21  CG1       13.4510   -7.6250   14.3880 C.3    68  ILE68       0.0019
     22  CG2       12.3480   -6.2600   12.5900 C.3    68  ILE68       0.0019
     23  CD1       12.6160   -8.8770   14.2650 C.3    68  ILE68       0.0001
     24  N          6.7160    0.1360   13.4800 N.3    91  SER91      -0.1217
     25  CA         6.9130   -0.6930   14.6650 C.3    91  SER91       0.1889
     26  C          8.3670   -0.8330   15.0870 C.2    91  SER91       0.2288
     27  O          9.2760   -0.7740   14.2640 O.2    91  SER91      -0.2866
     28  CB         6.3250   -2.0800   14.4340 C.3    91  SER91       0.2089
     29  OG         7.0160   -2.7370   13.3860 O.3    91  SER91      -0.2183
     30  N         10.1890   -3.7900   17.5030 N.3    93  ALA93      -0.1245
     31  CA        10.0920   -5.0390   18.2550 C.3    93  ALA93       0.1562
     32  C         11.4130   -5.2600   18.9730 C.2    93  ALA93       0.2260
     33  O         12.4770   -5.1800   18.3490 O.2    93  ALA93      -0.2867
     34  CB         9.7910   -6.1920   17.3150 C.3    93  ALA93       0.0290
     35  N         16.6040  -13.9250   14.5120 N.3    99  THR99      -0.1203
     36  CA        16.6530  -15.0000   13.5310 C.3    99  THR99       0.1994
     37  C         16.2170  -14.4730   12.1780 C.2    99  THR99       0.2618
     38  O         15.6200  -13.3980   12.0720 O.2    99  THR99      -0.2717
     39  CB        15.7400  -16.1800   13.9140 C.3    99  THR99       0.1784
     40  OG1       14.3670  -15.7690   13.8970 O.3    99  THR99      -0.2211
     41  CG2       16.1010  -16.7220   15.2940 C.3    99  THR99       0.0376
     42  N         16.5140  -15.2510   11.1470 N.am  100  GLY100     -0.1956
     43  CA        16.0870  -14.9340    9.7990 C.3   100  GLY100      0.1869
     44  C         16.8560  -13.7760    9.1970 C.2   100  GLY100      0.2309
     45  O         18.0370  -13.5630    9.4960 O.2   100  GLY100     -0.2863
     46  N         15.4820  -15.4690    4.4810 N.3   104  SER104     -0.1202
     47  CA        14.2720  -16.1290    5.0170 C.3   104  SER104      0.2020
     48  C         12.9710  -15.3690    4.7310 C.2   104  SER104      0.2619
     49  O         11.8960  -15.7900    5.1610 O.2   104  SER104     -0.2717
     50  CB        14.4120  -16.3210    6.5310 C.3   104  SER104      0.2103
     51  OG        15.5850  -17.0420    6.8300 O.3   104  SER104     -0.2182
     52  N         13.0630  -14.2540    4.0130 N.am  105  GLY105     -0.1942
     53  CA        11.9200  -13.3820    3.7740 C.3   105  GLY105      0.2014
     54  C         11.4240  -12.6110    4.9820 C.2   105  GLY105      0.2639
     55  O         10.3010  -12.1190    4.9720 O.2   105  GLY105     -0.2714
     56  N         12.2560  -12.4750    6.0110 N.am  106  GLY106     -0.1939
     57  CA        11.8430  -11.7600    7.2100 C.3   106  GLY106      0.2014
     58  C         12.7180  -12.0580    8.3970 C.2   106  GLY106      0.2639
     59  O         13.2290  -13.1620    8.5520 O.2   106  GLY106     -0.2714
     60  N         12.8950  -11.0420    9.2300 N.am  107  TYR107     -0.1959
     61  CA        13.5090  -11.1830   10.5330 C.3   107  TYR107      0.1771
     62  C         12.4440  -11.5030   11.5680 C.2   107  TYR107      0.2619
     63  O         11.2850  -11.0870   11.4430 O.2   107  TYR107     -0.2715
     64  CB        14.1800   -9.8810   10.9410 C.3   107  TYR107      0.0574
     65  CG        15.4810   -9.5690   10.2460 C.ar  107  TYR107     -0.0198
     66  CD1       16.6630  -10.1930   10.6310 C.ar  107  TYR107     -0.0009
     67  CD2       15.5330   -8.6140    9.2290 C.ar  107  TYR107     -0.0009
     68  CE1       17.8630   -9.8820   10.0140 C.ar  107  TYR107      0.0417
     69  CE2       16.7260   -8.2960    8.6060 C.ar  107  TYR107      0.0417
     70  CZ        17.8860   -8.9320    9.0070 C.ar  107  TYR107      0.1957
     71  OH        19.0690   -8.6170    8.3940 O.3   107  TYR107     -0.2866
     72  N         12.8610  -12.2180   12.6040 N.am  108  ALA108     -0.1977
     73  CA        12.0170  -12.4740   13.7650 C.3   108  ALA108      0.1597
     74  C         12.8970  -12.6330   14.9900 C.2   108  ALA108      0.2287
     75  O         14.0730  -12.9800   14.8810 O.2   108  ALA108     -0.2864
     76  CB        11.1700  -13.7220   13.5520 C.3   108  ALA108      0.0319
     77  N         10.7130  -12.6590   21.5080 N.3   112  GLN112     -0.1245
     78  CA        10.1620  -11.3100   21.3780 C.3   112  GLN112      0.1566
     79  C          9.5080  -10.9420   22.6970 C.2   112  GLN112      0.2260
     80  O          8.6180  -11.6470   23.1730 O.2   112  GLN112     -0.2867
     81  CB         9.1460  -11.1940   20.2510 C.3   112  GLN112      0.0367
     82  CG         8.6290   -9.7660   20.0990 C.3   112  GLN112      0.0905
     83  CD         7.9420   -9.5090   18.7830 C.2   112  GLN112      0.2608
     84  OE1        8.5080   -9.7490   17.7200 O.2   112  GLN112     -0.2717
     85  NE2        6.7200   -8.9930   18.8460 N.am  112  GLN112     -0.0878
     86  N          6.7510   -5.2320   21.8250 N.3   115  SER115     -0.1217
     87  CA         6.6920   -4.4970   20.5640 C.3   115  SER115      0.1889
     88  C          5.7830   -3.2820   20.6900 C.2   115  SER115      0.2288
     89  O          4.7750   -3.3020   21.4090 O.2   115  SER115     -0.2866
     90  CB         6.2400   -5.4010   19.4150 C.3   115  SER115      0.2089
     91  OG         4.8860   -5.7800   19.5380 O.3   115  SER115     -0.2183
     92  N          3.7680   -0.8140   18.1320 N.3   117  SER117     -0.1217
     93  CA         3.2910   -0.7680   16.7490 C.3   117  SER117      0.1889
     94  C          2.3010    0.3680   16.5780 C.2   117  SER117      0.2288
     95  O          1.9060    1.0030   17.5540 O.2   117  SER117     -0.2866
     96  CB         2.6680   -2.1040   16.3620 C.3   117  SER117      0.2089
     97  OG         3.6170   -3.1390   16.5280 O.3   117  SER117     -0.2183
     98  N         -1.6790   -5.6430   24.7490 N.3   179  HIS179     -0.1241
     99  CA        -2.1170   -7.0170   24.9810 C.3   179  HIS179      0.1621
    100  C         -0.9430   -7.9000   25.3720 C.2   179  HIS179      0.2264
    101  O          0.1650   -7.7780   24.8440 O.2   179  HIS179     -0.2867
    102  CB        -2.8770   -7.5850   23.7760 C.3   179  HIS179      0.0745
    103  CG        -2.0310   -7.8320   22.5690 C.ar  179  HIS179      0.0817
    104  ND1       -1.7560   -6.8560   21.6350 N.ar  179  HIS179     -0.2268
    105  CD2       -1.4280   -8.9600   22.1240 C.ar  179  HIS179      0.1154
    106  CE1       -1.0050   -7.3700   20.6760 C.ar  179  HIS179      0.1986
    107  NE2       -0.7870   -8.6440   20.9520 N.ar  179  HIS179     -0.2212
@<TRIPOS>BOND
     1    53    52    1
     2    53    54    1
     3    52    48   am
     4    46    47    1
     5    48    47    1
     6    48    49    2
     7    55    54    2
     8    54    56   am
     9    47    50    1
    10    56    57    1
    11    50    51    1
    12     7     8    1
    13    10     9    2
    14    57    58    1
    15     9     8    1
    16     8    11    1
    17    71    70    1
    18    58    59    2
    19    58    60   am
    20    14    13    2
    21    69    70   ar
    22    69    67   ar
    23    11    12    1
    24    12    13    1
    25    70    68   ar
    26    13    15   am
    27    44    45    2
    28    44    43    1
    29    67    65   ar
    30    60    61    1
    31    43    42    1
    32    68    66   ar
    33    65    66   ar
    34    65    64    1
    35    61    64    1
    36    61    62    1
    37    42    37   am
    38    63    62    2
    39    62    72   am
    40    38    37    2
    41    37    36    1
    42    22    20    1
    43    72    73    1
    44    29    28    1
    45    24    25    1
    46    36    39    1
    47    36    35    1
    48    76    73    1
    49    73    74    1
    50    40    39    1
    51    39    41    1
    52    20    21    1
    53    20    17    1
    54    27    26    2
    55    23    21    1
    56    18    17    1
    57    18    19    2
    58    28    25    1
    59    17    16    1
    60    25    26    1
    61    75    74    2
    62    96    97    1
    63    96    93    1
    64    94    93    1
    65    94    95    2
    66    93    92    1
    67    34    31    1
    68    30    31    1
    69    84    83    2
    70    31    32    1
    71    33    32    2
    72    83    85   am
    73    83    82    1
    74    90    91    1
    75    90    87    1
    76    82    81    1
    77    81    78    1
    78    87    88    1
    79    87    86    1
    80   106   107   ar
    81   106   104   ar
    82    88    89    2
    83   107   105   ar
    84    78    77    1
    85    78    79    1
    86     5     6    1
    87     5     2    1
    88   104   103   ar
    89   105   103   ar
    90     1     2    1
    91   103   102    1
    92     2     3    1
    93    79    80    2
    94     4     3    2
    95   102    99    1
    96    98    99    1
    97   101   100    2
    98    99   100    1
