@<TRIPOS>MOLECULE
tmp/5xicA00.pdb
 185 183 0 0 0
SMALL
GASTEIGER

@<TRIPOS>ATOM
      1  N         28.2720    1.8570   15.7250 N.3    32  HIS32      -0.1226
      2  CA        28.0670    2.1180   14.3050 C.3    32  HIS32       0.1752
      3  C         28.1780    3.6340   14.0990 C.2    32  HIS32       0.2596
      4  O         27.1860    4.3580   14.1380 O.2    32  HIS32      -0.2718
      5  CB        26.7100    1.5700   13.8820 C.3    32  HIS32       0.0759
      6  CG        26.4470    1.6440   12.4130 C.ar   32  HIS32       0.0818
      7  ND1       26.2960    0.5200   11.6380 N.ar   32  HIS32      -0.2268
      8  CD2       26.2810    2.7010   11.5850 C.ar   32  HIS32       0.1154
      9  CE1       26.0450    0.8770   10.3910 C.ar   32  HIS32       0.1986
     10  NE2       26.0390    2.1950   10.3340 N.ar   32  HIS32      -0.2212
     11  N         29.4150    4.0880   13.9030 N.am   33  ARG33      -0.1966
     12  CA        29.7790    5.5080   13.8320 C.3    33  ARG33       0.1714
     13  C         30.8370    5.7190   12.7640 C.2    33  ARG33       0.2458
     14  O         31.4840    4.7590   12.3590 O.2    33  ARG33      -0.2730
     15  CB        30.3850    5.9690   15.1600 C.3    33  ARG33       0.0347
     16  CG        29.3890    6.2030   16.2640 C.3    33  ARG33       0.0492
     17  CD        30.0420    6.9050   17.4370 C.3    33  ARG33       0.2205
     18  NE        29.0750    7.0970   18.5130 N.pl3  33  ARG33      -0.0865
     19  CZ        28.6970    6.1580   19.3830 C.cat  33  ARG33       0.5346
     20  NH1       27.7960    6.4550   20.3160 N.pl3  33  ARG33       0.1354
     21  NH2       29.2070    4.9290   19.3370 N.pl3  33  ARG33       0.1354
     22  N         31.0460    6.9810   12.3250 N.am   34  PRO34      -0.2716
     23  CA        32.1280    7.2840   11.3870 C.3    34  PRO34       0.1536
     24  C         33.4890    6.7460   11.8360 C.2    34  PRO34       0.2599
     25  O         33.8980    6.9560   12.9780 O.2    34  PRO34      -0.2715
     26  CB        32.1240    8.8090   11.3470 C.3    34  PRO34       0.0310
     27  CG        30.6900    9.1560   11.5390 C.3    34  PRO34       0.0237
     28  CD        30.1570    8.1440   12.5110 C.3    34  PRO34       0.0939
     29  N         34.1510    6.0230   10.9370 N.am   35  GLY35      -0.1955
     30  CA        35.4440    5.3940   11.2110 C.3    35  GLY35       0.1869
     31  C         35.3940    4.0480   11.9210 C.2    35  GLY35       0.2309
     32  O         36.4400    3.4350   12.1320 O.2    35  GLY35      -0.2863
     33  N         32.7580    1.4280   11.2080 N.3    37  VAL37      -0.1245
     34  CA        32.0090    0.3880   10.4900 C.3    37  VAL37       0.1561
     35  C         32.9090   -0.0950    9.3510 C.2    37  VAL37       0.2260
     36  O         33.0340    0.5530    8.3050 O.2    37  VAL37      -0.2867
     37  CB        30.6450    0.8760    9.9610 C.3    37  VAL37       0.0252
     38  CG1       29.7810   -0.3030    9.5380 C.3    37  VAL37       0.0019
     39  CG2       29.9160    1.7160   10.9990 C.3    37  VAL37       0.0019
     40  N         26.6560   -3.7430   11.4190 N.3    43  THR43      -0.1203
     41  CA        25.8860   -3.1380   10.3310 C.3    43  THR43       0.1994
     42  C         24.3840   -3.3170   10.4960 C.2    43  THR43       0.2618
     43  O         23.6190   -2.4200   10.1570 O.2    43  THR43      -0.2717
     44  CB        26.2760   -3.7080    8.9530 C.3    43  THR43       0.1784
     45  OG1       26.0940   -5.1240    8.9380 O.3    43  THR43      -0.2211
     46  CG2       27.7190   -3.3570    8.6100 C.3    43  THR43       0.0376
     47  N         23.9630   -4.4700   11.0060 N.am   44  GLY44      -0.1942
     48  CA        22.5660   -4.8850   10.8980 C.3    44  GLY44       0.2014
     49  C         22.2640   -5.3010    9.4720 C.2    44  GLY44       0.2639
     50  O         23.1710   -5.5990    8.6860 O.2    44  GLY44      -0.2714
     51  N         20.9820   -5.3400    9.1400 N.am   45  GLY45      -0.1939
     52  CA        20.5610   -5.6990    7.7920 C.3    45  GLY45       0.2014
     53  C         19.1320   -5.3080    7.5110 C.2    45  GLY45       0.2638
     54  O         18.3370   -5.1060    8.4240 O.2    45  GLY45      -0.2714
     55  N         18.8190   -5.2030    6.2230 N.am   46  PHE46      -0.1973
     56  CA        17.4710   -4.9220    5.7480 C.3    46  PHE46       0.1639
     57  C         16.8450   -6.1560    5.1250 C.2    46  PHE46       0.2290
     58  O         17.5440   -7.0190    4.5770 O.2    46  PHE46      -0.2864
     59  CB        17.4710   -3.8130    4.6950 C.3    46  PHE46       0.0560
     60  CG        17.7640   -2.4500    5.2420 C.ar   46  PHE46      -0.0200
     61  CD1       19.0710   -1.9840    5.3050 C.ar   46  PHE46      -0.0042
     62  CD2       16.7340   -1.6280    5.6820 C.ar   46  PHE46      -0.0042
     63  CE1       19.3490   -0.7210    5.8050 C.ar   46  PHE46      -0.0003
     64  CE2       17.0050   -0.3640    6.1820 C.ar   46  PHE46      -0.0003
     65  CZ        18.3180    0.0850    6.2490 C.ar   46  PHE46      -0.0000
     66  N         19.1830   -4.5380   -0.4260 N.3    50  PRO50      -0.2102
     67  CA        20.2790   -4.3250    0.5340 C.3    50  PRO50       0.1504
     68  C         20.2120   -3.0270    1.3500 C.2    50  PRO50       0.2575
     69  O         20.7750   -2.9810    2.4390 O.2    50  PRO50      -0.2718
     70  CB        21.5350   -4.3600   -0.3510 C.3    50  PRO50       0.0282
     71  CG        21.0610   -4.0600   -1.7280 C.3    50  PRO50       0.0208
     72  CD        19.6490   -4.5420   -1.8270 C.3    50  PRO50       0.0893
     73  N         19.5400   -1.9950    0.8400 N.am   51  PHE51      -0.1977
     74  CA        19.5470   -0.6620    1.4750 C.3    51  PHE51       0.1639
     75  C         18.1610   -0.1150    1.8110 C.2    51  PHE51       0.2290
     76  O         18.0260    1.0470    2.1950 O.2    51  PHE51      -0.2864
     77  CB        20.3180    0.3230    0.5790 C.3    51  PHE51       0.0560
     78  CG        21.7030   -0.1530    0.2450 C.ar   51  PHE51      -0.0200
     79  CD1       22.6690   -0.2310    1.2390 C.ar   51  PHE51      -0.0042
     80  CD2       22.0310   -0.5830   -1.0410 C.ar   51  PHE51      -0.0042
     81  CE1       23.9420   -0.7040    0.9640 C.ar   51  PHE51      -0.0003
     82  CE2       23.3060   -1.0500   -1.3240 C.ar   51  PHE51      -0.0003
     83  CZ        24.2610   -1.1100   -0.3200 C.ar   51  PHE51      -0.0000
     84  N         14.3620   -3.2820    9.1840 N.3    56  TYR56      -0.1241
     85  CA        15.7830   -3.1700    9.5080 C.3    56  TYR56       0.1605
     86  C         15.9700   -3.8320   10.8690 C.2    56  TYR56       0.2264
     87  O         15.2330   -3.5290   11.8110 O.2    56  TYR56      -0.2867
     88  CB        16.2540   -1.7110    9.5800 C.3    56  TYR56       0.0534
     89  CG        17.6710   -1.6090   10.1000 C.ar   56  TYR56      -0.0201
     90  CD1       18.7600   -1.9870    9.3090 C.ar   56  TYR56      -0.0009
     91  CD2       17.9220   -1.1910   11.4100 C.ar   56  TYR56      -0.0009
     92  CE1       20.0540   -1.9340    9.8010 C.ar   56  TYR56       0.0417
     93  CE2       19.2110   -1.1300   11.9100 C.ar   56  TYR56       0.0417
     94  CZ        20.2790   -1.5010   11.1050 C.ar   56  TYR56       0.1957
     95  OH        21.5630   -1.4520   11.6150 O.3    56  TYR56      -0.2866
     96  N         17.7720    3.5060    3.5240 N.3    75  TYR75      -0.1241
     97  CA        19.0750    4.0200    3.9500 C.3    75  TYR75       0.1605
     98  C         19.7510    4.6990    2.7760 C.2    75  TYR75       0.2264
     99  O         19.8750    4.1160    1.6940 O.2    75  TYR75      -0.2867
    100  CB        19.9510    2.8820    4.4650 C.3    75  TYR75       0.0534
    101  CG        21.2170    3.3240    5.1670 C.ar   75  TYR75      -0.0201
    102  CD1       21.1620    4.1420    6.2980 C.ar   75  TYR75      -0.0009
    103  CD2       22.4600    2.9020    4.7260 C.ar   75  TYR75      -0.0009
    104  CE1       22.3150    4.5450    6.9550 C.ar   75  TYR75       0.0417
    105  CE2       23.6230    3.2960    5.3790 C.ar   75  TYR75       0.0417
    106  CZ        23.5410    4.1180    6.4890 C.ar   75  TYR75       0.1957
    107  OH        24.6950    4.4840    7.1630 O.3    75  TYR75      -0.2866
    108  N         22.9130    5.5780    2.5340 N.3    77  LEU77      -0.1231
    109  CA        24.3150    5.1430    2.3980 C.3    77  LEU77       0.1693
    110  C         25.2160    6.3700    2.1590 C.2    77  LEU77       0.2592
    111  O         25.2970    7.2330    3.0350 O.2    77  LEU77      -0.2718
    112  CB        24.4560    4.0190    1.3510 C.3    77  LEU77       0.0284
    113  CG        25.8050    3.2840    1.2770 C.3    77  LEU77       0.0019
    114  CD1       26.1120    2.5090    2.5590 C.3    77  LEU77       0.0001
    115  CD2       25.8470    2.3480    0.0760 C.3    77  LEU77       0.0001
    116  N         25.8540    6.4850    0.9990 N.am   78  PHE78      -0.1976
    117  CA        26.7530    7.6180    0.7360 C.3    78  PHE78       0.1639
    118  C         26.0540    8.8770    0.2560 C.2    78  PHE78       0.2290
    119  O         26.6780    9.9370    0.1810 O.2    78  PHE78      -0.2864
    120  CB        27.7900    7.2280   -0.3130 C.3    78  PHE78       0.0560
    121  CG        28.6000    6.0340    0.0610 C.ar   78  PHE78      -0.0200
    122  CD1       29.4350    6.0800    1.1630 C.ar   78  PHE78      -0.0042
    123  CD2       28.5230    4.8570   -0.6730 C.ar   78  PHE78      -0.0042
    124  CE1       30.1840    4.9780    1.5320 C.ar   78  PHE78      -0.0003
    125  CE2       29.2790    3.7520   -0.3110 C.ar   78  PHE78      -0.0003
    126  CZ        30.1100    3.8130    0.7920 C.ar   78  PHE78      -0.0000
    127  N         24.0250    8.6160    5.0620 N.3    83  HIS83      -0.1241
    128  CA        23.8170    7.7780    6.2440 C.3    83  HIS83       0.1621
    129  C         22.5700    8.1280    7.0310 C.2    83  HIS83       0.2264
    130  O         22.5880    8.1850    8.2550 O.2    83  HIS83      -0.2867
    131  CB        25.0830    7.7870    7.0910 C.3    83  HIS83       0.0745
    132  CG        26.2570    7.3160    6.3130 C.ar   83  HIS83       0.0817
    133  ND1       26.4010    6.0000    5.9440 N.ar   83  HIS83      -0.2268
    134  CD2       27.2590    7.9930    5.7080 C.ar   83  HIS83       0.1154
    135  CE1       27.4720    5.8760    5.1870 C.ar   83  HIS83       0.1986
    136  NE2       28.0180    7.0710    5.0370 N.ar   83  HIS83      -0.2212
    137  N         18.7670    6.9290    7.7440 N.3    85  LEU85      -0.1245
    138  CA        17.6150    6.0360    7.7810 C.3    85  LEU85       0.1561
    139  C         16.3290    6.8500    7.8540 C.2    85  LEU85       0.2260
    140  O         16.1170    7.5940    8.8060 O.2    85  LEU85      -0.2867
    141  CB        17.7170    5.1010    8.9900 C.3    85  LEU85       0.0270
    142  CG        16.7170    3.9380    9.0000 C.3    85  LEU85       0.0019
    143  CD1       17.0510    2.8910    7.9480 C.3    85  LEU85       0.0001
    144  CD2       16.6880    3.3000   10.3730 C.3    85  LEU85       0.0001
    145  N         19.6530   13.1220    9.1730 N.3   129  ARG129     -0.1245
    146  CA        19.8240   12.4520   10.4610 C.3   129  ARG129      0.1563
    147  C         19.1470   13.1810   11.6380 C.2   129  ARG129      0.2260
    148  O         19.2200   12.7070   12.7690 O.2   129  ARG129     -0.2867
    149  CB        21.3150   12.2030   10.7280 C.3   129  ARG129      0.0307
    150  CG        21.9450   11.2630    9.7050 C.3   129  ARG129      0.0489
    151  CD        23.3880   10.8870   10.0170 C.3   129  ARG129      0.2205
    152  NE        24.2510   12.0680   10.0100 N.pl3 129  ARG129     -0.0865
    153  CZ        24.6090   12.7830   11.0800 C.cat 129  ARG129      0.5346
    154  NH1       24.2090   12.4550   12.3110 N.pl3 129  ARG129      0.1354
    155  NH2       25.3930   13.8470   10.9140 N.pl3 129  ARG129      0.1354
    156  N         15.1590    8.3870   12.0580 N.3   134  HIS134     -0.1241
    157  CA        16.5990    8.2060   12.2370 C.3   134  HIS134      0.1621
    158  C         17.0110    8.2380   13.7090 C.2   134  HIS134      0.2264
    159  O         17.7220    7.3530   14.1860 O.2   134  HIS134     -0.2867
    160  CB        17.3920    9.2730   11.4830 C.3   134  HIS134      0.0745
    161  CG        18.8430    8.9530   11.3890 C.ar  134  HIS134      0.0817
    162  ND1       19.7620    9.2740   12.3640 N.ar  134  HIS134     -0.2268
    163  CD2       19.5240    8.2940   10.4360 C.ar  134  HIS134      0.1154
    164  CE1       20.9510    8.8250   11.9990 C.ar  134  HIS134      0.1986
    165  NE2       20.8340    8.2250   10.8310 N.ar  134  HIS134     -0.2212
    166  N         18.6040    5.0090   15.3500 N.3   138  TYR138     -0.1241
    167  CA        20.0120    5.2010   15.7030 C.3   138  TYR138      0.1605
    168  C         20.2260    5.2400   17.2200 C.2   138  TYR138      0.2264
    169  O         21.2480    4.7630   17.7170 O.2   138  TYR138     -0.2867
    170  CB        20.6050    6.4520   15.0510 C.3   138  TYR138      0.0534
    171  CG        22.0980    6.5030   15.2420 C.ar  138  TYR138     -0.0201
    172  CD1       22.9080    5.5680   14.6190 C.ar  138  TYR138     -0.0009
    173  CD2       22.6990    7.4440   16.0810 C.ar  138  TYR138     -0.0009
    174  CE1       24.2770    5.5770   14.7900 C.ar  138  TYR138      0.0417
    175  CE2       24.0780    7.4600   16.2590 C.ar  138  TYR138      0.0417
    176  CZ        24.8570    6.5230   15.6000 C.ar  138  TYR138      0.1957
    177  OH        26.2240    6.4980   15.7500 O.3   138  TYR138     -0.2866
    178  N         20.4330    1.7110   18.2220 N.3   141  MET141     -0.1245
    179  CA        21.7290    1.1940   17.7880 C.3   141  MET141      0.1570
    180  C         22.8810    1.6200   18.7050 C.2   141  MET141      0.2261
    181  O         23.8610    0.8890   18.8350 O.2   141  MET141     -0.2867
    182  CB        22.0520    1.6870   16.3750 C.3   141  MET141      0.0387
    183  CG        21.1030    1.1970   15.2950 C.3   141  MET141      0.0595
    184  SD        21.3710    2.0110   13.7120 S.3   141  MET141     -0.1393
    185  CE        22.9330    1.2790   13.2330 C.3   141  MET141      0.0692
@<TRIPOS>BOND
     1    72    71    1
     2    72    66    1
     3    71    70    1
     4    82    80   ar
     5    82    83   ar
     6    80    78   ar
     7   123   125   ar
     8   123   121   ar
     9    66    67    1
    10    70    67    1
    11    83    81   ar
    12   120   121    1
    13   120   117    1
    14   125   126   ar
    15   121   122   ar
    16   115   113    1
    17   119   118    2
    18    78    77    1
    19    78    79   ar
    20   118   117    1
    21    67    68    1
    22    77    74    1
    23   117   116    1
    24   126   124   ar
    25    73    68   am
    26    73    74    1
    27    81    79   ar
    28   116   110   am
    29   122   124   ar
    30   113   112    1
    31   113   114    1
    32    68    69    2
    33   112   109    1
    34    74    75    1
    35    99    98    2
    36    75    76    2
    37   110   109    1
    38   110   111    2
    39   109   108    1
    40    98    97    1
    41    96    97    1
    42    97   100    1
    43   100   101    1
    44    58    57    2
    45    59    60    1
    46    59    56    1
    47   103   101   ar
    48   103   105   ar
    49   136   135   ar
    50   136   134   ar
    51   127   128    1
    52    57    56    1
    53   101   102   ar
    54   135   133   ar
    55    60    61   ar
    56    60    62   ar
    57    61    63   ar
    58   105   106   ar
    59    62    64   ar
    60   134   132   ar
    61    56    55    1
    62    63    65   ar
    63   133   132   ar
    64    64    65   ar
    65    55    53   am
    66   128   129    1
    67   128   131    1
    68   102   104   ar
    69   132   131    1
    70   106   104   ar
    71   106   107    1
    72   129   130    2
    73    53    52    1
    74    53    54    2
    75   137   138    1
    76   138   139    1
    77   138   141    1
    78    52    51    1
    79   139   140    2
    80   143   142    1
    81    36    35    2
    82    46    44    1
    83    50    49    2
    84    45    44    1
    85    44    41    1
    86   141   142    1
    87   142   144    1
    88    51    49   am
    89   145   146    1
    90    84    85    1
    91    90    92   ar
    92    90    89   ar
    93    35    34    1
    94    49    48    1
    95    85    88    1
    96    85    86    1
    97    38    37    1
    98    88    89    1
    99   150   151    1
   100   150   149    1
   101    92    94   ar
   102    37    34    1
   103    37    39    1
   104   152   151    1
   105   152   153    2
   106    89    91   ar
   107    43    42    2
   108    41    42    1
   109    41    40    1
   110    10     9   ar
   111    10     8   ar
   112     9     7   ar
   113   163   165   ar
   114   163   161   ar
   115   146   149    1
   116   146   147    1
   117    34    33    1
   118    42    47   am
   119   165   164   ar
   120    86    87    2
   121    48    47    1
   122   155   153    1
   123    29    30    1
   124    29    24   am
   125   153   154    1
   126    94    95    1
   127    94    93   ar
   128    30    31    1
   129    26    23    1
   130    26    27    1
   131    23    24    1
   132    23    22    1
   133   161   160    1
   134   161   162   ar
   135    91    93   ar
   136   160   157    1
   137    27    28    1
   138     8     6   ar
   139   147   148    2
   140     7     6   ar
   141    24    25    2
   142    31    32    2
   143   164   162   ar
   144   156   157    1
   145   157   158    1
   146    22    28    1
   147    22    13   am
   148    14    13    2
   149     6     5    1
   150    13    12    1
   151   185   184    1
   152   158   159    2
   153   184   183    1
   154    12    11    1
   155    12    15    1
   156     5     2    1
   157    11     3   am
   158     3     4    2
   159     3     2    1
   160     2     1    1
   161   172   174   ar
   162   172   171   ar
   163   174   176   ar
   164   170   171    1
   165   170   167    1
   166    15    16    1
   167   171   173   ar
   168   183   182    1
   169   166   167    1
   170   176   177    1
   171   176   175   ar
   172   167   168    1
   173   173   175   ar
   174    16    17    1
   175   182   179    1
   176   168   169    2
   177    17    18    1
   178   179   178    1
   179   179   180    1
   180    18    19    2
   181   180   181    2
   182    21    19    1
   183    19    20    1
