@<TRIPOS>MOLECULE
tmp/5xigA01.pdb
 154 150 0 0 0
SMALL
GASTEIGER

@<TRIPOS>ATOM
      1  N         12.7550    4.0910  -37.7230 N.3    74  LEU74      -0.1245
      2  CA        11.8130    3.0580  -37.2630 C.3    74  LEU74       0.1561
      3  C         12.3330    1.6640  -37.5570 C.2    74  LEU74       0.2260
      4  O         12.0350    0.7310  -36.8380 O.2    74  LEU74      -0.2867
      5  CB        10.4800    3.2510  -37.9330 C.3    74  LEU74       0.0270
      6  CG         9.3190    2.3100  -37.6360 C.3    74  LEU74       0.0019
      7  CD1        8.7900    2.5540  -36.2240 C.3    74  LEU74       0.0001
      8  CD2        8.2150    2.5200  -38.7220 C.3    74  LEU74       0.0001
      9  N          5.2990   -6.6910  -36.8880 N.3    79  PHE79      -0.1241
     10  CA         4.8020   -5.3250  -36.5970 C.3    79  PHE79       0.1605
     11  C          4.6810   -4.4480  -37.8640 C.2    79  PHE79       0.2264
     12  O          3.8770   -3.5250  -37.9330 O.2    79  PHE79      -0.2867
     13  CB         5.7580   -4.6310  -35.6150 C.3    79  PHE79       0.0534
     14  CG         5.7780   -5.2290  -34.2180 C.ar   79  PHE79      -0.0203
     15  CD1        4.6120   -5.6970  -33.6010 C.ar   79  PHE79      -0.0042
     16  CD2        6.9820   -5.2880  -33.4890 C.ar   79  PHE79      -0.0042
     17  CE1        4.6570   -6.2260  -32.3050 C.ar   79  PHE79      -0.0003
     18  CE2        7.0160   -5.8110  -32.1920 C.ar   79  PHE79      -0.0003
     19  CZ         5.8530   -6.2870  -31.6070 C.ar   79  PHE79      -0.0000
     20  N          1.4450   -3.1280  -39.8610 N.3    82  GLU82      -0.1231
     21  CA         0.5050   -2.2320  -39.1710 C.3    82  GLU82       0.1699
     22  C          0.9290   -0.7650  -39.2620 C.2    82  GLU82       0.2592
     23  O          0.1690    0.1060  -38.8850 O.2    82  GLU82      -0.2718
     24  CB         0.3370   -2.6110  -37.6860 C.3    82  GLU82       0.0402
     25  CG        -0.3050   -3.9510  -37.3620 C.3    82  GLU82       0.1161
     26  CD        -0.1700   -4.3360  -35.8920 C.2    82  GLU82       0.3649
     27  OE1        0.3230   -3.5200  -35.0990 O.co2  82  GLU82      -0.2457
     28  OE2       -0.5700   -5.4540  -35.5170 O.co2  82  GLU82      -0.2457
     29  N          2.1360   -0.4740  -39.7260 N.am   83  VAL83      -0.1980
     30  CA         2.5890    0.9100  -39.7690 C.3    83  VAL83       0.1595
     31  C          1.9580    1.7730  -40.9010 C.2    83  VAL83       0.2287
     32  O          1.9570    1.3730  -42.0790 O.2    83  VAL83      -0.2864
     33  CB         4.1070    0.9530  -39.8880 C.3    83  VAL83       0.0276
     34  CG1        4.6340    2.3900  -39.8640 C.3    83  VAL83       0.0022
     35  CG2        4.7390    0.1270  -38.7890 C.3    83  VAL83       0.0022
     36  N          3.5820    4.1440  -33.8960 N.3   102  PRO102     -0.2102
     37  CA         2.8050    3.0280  -33.4280 C.3   102  PRO102      0.1504
     38  C          3.2330    2.7310  -31.9970 C.2   102  PRO102      0.2576
     39  O          2.6120    1.9800  -31.3460 O.2   102  PRO102     -0.2718
     40  CB         3.2050    1.9280  -34.3690 C.3   102  PRO102      0.0282
     41  CG         4.5700    2.2270  -34.6860 C.3   102  PRO102      0.0208
     42  CD         4.6940    3.6890  -34.7150 C.3   102  PRO102      0.0893
     43  N          4.3020    3.3530  -31.5550 N.am  103  THR103     -0.1953
     44  CA         4.8430    3.2340  -30.2090 C.3   103  THR103      0.1897
     45  C          6.1020    4.0680  -30.3580 C.2   103  THR103      0.2313
     46  O          6.5270    4.2950  -31.4940 O.2   103  THR103     -0.2863
     47  CB         5.1730    1.7860  -29.7910 C.3   103  THR103      0.1794
     48  OG1        5.6310    1.7360  -28.4070 O.3   103  THR103     -0.2208
     49  CG2        6.2220    1.2210  -30.7630 C.3   103  THR103      0.0378
     50  N          9.5070    3.9000  -28.9380 N.3   105  GLU105     -0.1245
     51  CA        10.8820    3.5020  -28.6540 C.3   105  GLU105      0.1567
     52  C         11.9080    4.1220  -29.6250 C.2   105  GLU105      0.2260
     53  O         12.9480    4.6400  -29.1500 O.2   105  GLU105     -0.2867
     54  CB        11.0270    1.9910  -28.6490 C.3   105  GLU105      0.0388
     55  CG        10.4050    1.3270  -27.4570 C.3   105  GLU105      0.1160
     56  CD         8.8970    1.1370  -27.5260 C.2   105  GLU105      0.3649
     57  OE1        8.1890    1.6690  -28.4440 O.co2 105  GLU105     -0.2457
     58  OE2        8.4160    0.4340  -26.6140 O.co2 105  GLU105     -0.2457
     59  N         -2.0880    2.1610  -35.4980 N.3   134  ARG134     -0.1245
     60  CA        -1.7130    0.8260  -35.9340 C.3   134  ARG134      0.1563
     61  C         -2.8700    0.3930  -36.8410 C.2   134  ARG134      0.2260
     62  O         -4.0530    0.5760  -36.4950 O.2   134  ARG134     -0.2867
     63  CB        -1.5460   -0.1470  -34.7440 C.3   134  ARG134      0.0307
     64  CG        -0.5790    0.3580  -33.6830 C.3   134  ARG134      0.0489
     65  CD        -0.3860   -0.6410  -32.5560 C.3   134  ARG134      0.2205
     66  NE         0.5230   -0.1370  -31.5520 N.pl3 134  ARG134     -0.0865
     67  CZ         0.8540   -0.7890  -30.4460 C.cat 134  ARG134      0.5346
     68  NH1        0.3750   -1.9960  -30.2270 N.pl3 134  ARG134      0.1354
     69  NH2        1.6940   -0.2440  -29.5790 N.pl3 134  ARG134      0.1354
     70  N         -3.3850    6.7820  -25.6080 N.3   151  TRP151     -0.1241
     71  CA        -2.7180    6.1190  -24.4820 C.3   151  TRP151      0.1605
     72  C         -1.7960    7.0450  -23.7480 C.2   151  TRP151      0.2264
     73  O         -1.6030    8.1820  -24.1350 O.2   151  TRP151     -0.2867
     74  CB        -1.9800    4.8150  -24.9070 C.3   151  TRP151      0.0550
     75  CG        -0.5700    4.9070  -25.6040 C.ar  151  TRP151      0.0003
     76  CD1        0.1430    6.0250  -25.9440 C.ar  151  TRP151      0.0946
     77  CD2        0.2520    3.7690  -26.0520 C.ar  151  TRP151      0.0152
     78  NE1        1.3560    5.6450  -26.5480 N.ar  151  TRP151     -0.2442
     79  CE2        1.4310    4.2810  -26.5970 C.ar  151  TRP151      0.0810
     80  CE3        0.1110    2.3820  -25.9630 C.ar  151  TRP151      0.0012
     81  CZ2        2.4260    3.4610  -27.1230 C.ar  151  TRP151      0.0191
     82  CZ3        1.1140    1.5670  -26.4720 C.ar  151  TRP151      0.0001
     83  CH2        2.2660    2.1170  -27.0280 C.ar  151  TRP151      0.0015
     84  N          2.3280    6.4400  -22.7810 N.3   153  GLU153     -0.1245
     85  CA         3.4430    5.4800  -22.7160 C.3   153  GLU153      0.1567
     86  C          4.5380    6.0290  -21.8400 C.2   153  GLU153      0.2260
     87  O          4.9020    7.1990  -21.9190 O.2   153  GLU153     -0.2867
     88  CB         3.9520    5.0860  -24.1170 C.3   153  GLU153      0.0388
     89  CG         4.4730    6.2240  -24.9650 C.3   153  GLU153      0.1160
     90  CD         4.9190    5.7870  -26.3860 C.2   153  GLU153      0.3649
     91  OE1        5.8220    4.8930  -26.4820 O.co2 153  GLU153     -0.2457
     92  OE2        4.4120    6.4010  -27.3930 O.co2 153  GLU153     -0.2457
     93  N          8.4570    5.5020  -20.2300 N.3   155  HIS155     -0.1241
     94  CA         9.7510    4.9360  -20.5710 C.3   155  HIS155      0.1621
     95  C         10.7650    5.4500  -19.5890 C.2   155  HIS155      0.2264
     96  O         10.9960    6.6470  -19.5100 O.2   155  HIS155     -0.2867
     97  CB        10.2030    5.3580  -21.9540 C.3   155  HIS155      0.0745
     98  CG         9.3110    4.8730  -23.0540 C.ar  155  HIS155      0.0817
     99  ND1        9.5450    3.7020  -23.7390 N.ar  155  HIS155     -0.2268
    100  CD2        8.1830    5.4030  -23.5920 C.ar  155  HIS155      0.1154
    101  CE1        8.6000    3.5230  -24.6420 C.ar  155  HIS155      0.1986
    102  NE2        7.7720    4.5480  -24.5860 N.ar  155  HIS155     -0.2212
    103  N          6.5360   -8.9070  -24.5540 N.3   198  PHE198     -0.1241
    104  CA         7.2860   -8.0390  -25.4690 C.3   198  PHE198      0.1605
    105  C          8.6550   -8.6560  -25.7870 C.2   198  PHE198      0.2264
    106  O          9.4410   -8.9360  -24.9150 O.2   198  PHE198     -0.2867
    107  CB         7.3810   -6.6300  -24.8790 C.3   198  PHE198      0.0534
    108  CG         7.9920   -5.5910  -25.7880 C.ar  198  PHE198     -0.0203
    109  CD1        7.8090   -5.6060  -27.1630 C.ar  198  PHE198     -0.0042
    110  CD2        8.7310   -4.5420  -25.2350 C.ar  198  PHE198     -0.0042
    111  CE1        8.3780   -4.6220  -27.9660 C.ar  198  PHE198     -0.0003
    112  CE2        9.3110   -3.5550  -26.0210 C.ar  198  PHE198     -0.0003
    113  CZ         9.1480   -3.6000  -27.3880 C.ar  198  PHE198     -0.0000
    114  N          0.0110   -3.0010  -19.4300 N.3   222  THR222     -0.1218
    115  CA         1.2460   -3.7510  -19.5100 C.3   222  THR222      0.1862
    116  C          2.3790   -2.9720  -18.8920 C.2   222  THR222      0.2287
    117  O          2.4120   -1.7450  -18.9770 O.2   222  THR222     -0.2866
    118  CB         1.5480   -4.0730  -20.9960 C.3   222  THR222      0.1770
    119  OG1        2.3540   -5.2410  -21.0860 O.3   222  THR222     -0.2211
    120  CG2        2.2310   -2.9120  -21.6870 C.3   222  THR222      0.0375
    121  N          6.7600   -3.4830  -18.4660 N.3   224  HIS224     -0.1241
    122  CA         7.8390   -4.3650  -18.8990 C.3   224  HIS224      0.1621
    123  C          9.0670   -4.0600  -18.1250 C.2   224  HIS224      0.2264
    124  O          9.4240   -2.8880  -17.9870 O.2   224  HIS224     -0.2867
    125  CB         8.2270   -4.1350  -20.3770 C.3   224  HIS224      0.0745
    126  CG         7.0920   -4.2750  -21.3490 C.ar  224  HIS224      0.0817
    127  ND1        6.4030   -5.4620  -21.5200 N.ar  224  HIS224     -0.2268
    128  CD2        6.5390   -3.3860  -22.2160 C.ar  224  HIS224      0.1154
    129  CE1        5.4700   -5.2920  -22.4400 C.ar  224  HIS224      0.1986
    130  NE2        5.5290   -4.0430  -22.8790 N.ar  224  HIS224     -0.2212
    131  N          9.2660    0.1250  -19.8180 N.3   252  SER252     -0.1202
    132  CA         8.2090    0.8370  -20.5300 C.3   252  SER252      0.2020
    133  C          6.8670    0.2580  -20.1160 C.2   252  SER252      0.2619
    134  O          6.7790   -0.8770  -19.6060 O.2   252  SER252     -0.2717
    135  CB         8.3970    0.7100  -22.0070 C.3   252  SER252      0.2103
    136  OG         8.1850   -0.6430  -22.3980 O.3   252  SER252     -0.2182
    137  N          5.8310    1.0400  -20.3060 N.am  253  TRP253     -0.1961
    138  CA         4.4930    0.7090  -19.7970 C.3   253  TRP253      0.1771
    139  C          3.4020    1.5080  -20.5720 C.2   253  TRP253      0.2620
    140  O          3.6270    2.6030  -21.0240 O.2   253  TRP253     -0.2715
    141  CB         4.3870    0.9720  -18.2910 C.3   253  TRP253      0.0590
    142  CG         5.3950    1.8640  -17.7170 C.ar  253  TRP253      0.0006
    143  CD1        6.6790    1.5360  -17.3480 C.ar  253  TRP253      0.0946
    144  CD2        5.1980    3.2190  -17.3170 C.ar  253  TRP253      0.0152
    145  NE1        7.2990    2.6210  -16.8150 N.ar  253  TRP253     -0.2442
    146  CE2        6.4110    3.6690  -16.7810 C.ar  253  TRP253      0.0810
    147  CE3        4.1000    4.0980  -17.3570 C.ar  253  TRP253      0.0012
    148  CZ2        6.5780    4.9630  -16.3260 C.ar  253  TRP253      0.0191
    149  CZ3        4.2570    5.3630  -16.9060 C.ar  253  TRP253      0.0001
    150  CH2        5.4840    5.7940  -16.3800 C.ar  253  TRP253      0.0015
    151  N          2.2360    0.9310  -20.7370 N.am  254  GLY254     -0.1954
    152  CA         1.1910    1.5990  -21.4750 C.3   254  GLY254      0.1869
    153  C         -0.1830    1.0930  -21.1330 C.2   254  GLY254      0.2309
    154  O         -0.3740   -0.0860  -20.7630 O.2   254  GLY254     -0.2863
@<TRIPOS>BOND
     1    32    31    2
     2    31    30    1
     3    33    34    1
     4    33    30    1
     5    33    35    1
     6    20    21    1
     7    30    29    1
     8    29    22   am
     9    22    21    1
    10    22    23    2
    11    21    24    1
    12     8     6    1
    13     5     6    1
    14     5     2    1
    15    12    11    2
    16    11    10    1
    17     1     2    1
    18    24    25    1
    19     6     7    1
    20     3     2    1
    21     3     4    2
    22    25    26    1
    23     9    10    1
    24    61    62    2
    25    61    60    1
    26    10    13    1
    27    60    59    1
    28    60    63    1
    29    26    28   ar
    30    26    27   ar
    31    13    14    1
    32    63    64    1
    33    42    41    1
    34    42    36    1
    35    41    40    1
    36    40    37    1
    37    14    15   ar
    38    14    16   ar
    39    36    37    1
    40    64    65    1
    41    15    17   ar
    42    16    18   ar
    43    37    38    1
    44    65    66    1
    45    17    19   ar
    46    18    19   ar
    47    38    43   am
    48    38    39    2
    49    43    44    1
    50    66    67    2
    51    46    45    2
    52    49    47    1
    53    67    68    1
    54    67    69    1
    55    45    44    1
    56    44    47    1
    57    47    48    1
    58    52    53    2
    59    52    51    1
    60    50    51    1
    61    51    54    1
    62    54    55    1
    63    57    56   ar
    64   111   113   ar
    65   111   109   ar
    66    56    55    1
    67    56    58   ar
    68    92    90   ar
    69   113   112   ar
    70   109   108   ar
    71    81    83   ar
    72    81    79   ar
    73    83    82   ar
    74    79    78   ar
    75    79    77   ar
    76    78    76   ar
    77    91    90   ar
    78    82    80   ar
    79    90    89    1
    80    77    80   ar
    81    77    75   ar
    82   112   110   ar
    83    76    75   ar
    84   108   110   ar
    85   108   107    1
    86   105   104    1
    87   105   106    2
    88    70    71    1
    89    75    74    1
    90   104   107    1
    91   104   103    1
    92    89    88    1
    93    74    71    1
    94   101   102   ar
    95   101    99   ar
    96   102   100   ar
    97    71    72    1
    98    73    72    2
    99    88    85    1
   100    99    98   ar
   101   100    98   ar
   102    98    97    1
   103   130   129   ar
   104   130   128   ar
   105    84    85    1
   106    85    86    1
   107   129   127   ar
   108   136   135    1
   109   128   126   ar
   110   135   132    1
   111    97    94    1
   112    87    86    2
   113   120   118    1
   114   127   126   ar
   115   152   153    1
   116   152   151    1
   117   126   125    1
   118   153   154    2
   119   119   118    1
   120   140   139    2
   121   118   115    1
   122   151   139   am
   123   139   138    1
   124    94    93    1
   125    94    95    1
   126   132   133    1
   127   132   131    1
   128   125   122    1
   129   137   133   am
   130   137   138    1
   131   133   134    2
   132   138   141    1
   133    95    96    2
   134   115   114    1
   135   115   116    1
   136   117   116    2
   137   122   121    1
   138   122   123    1
   139   141   142    1
   140   123   124    2
   141   142   143   ar
   142   142   144   ar
   143   147   144   ar
   144   147   149   ar
   145   143   145   ar
   146   144   146   ar
   147   149   150   ar
   148   145   146   ar
   149   146   148   ar
   150   150   148   ar
