@<TRIPOS>MOLECULE
tmp/5xigA00.pdb
 196 189 0 0 0
SMALL
GASTEIGER

@<TRIPOS>ATOM
      1  N          5.2990   -6.6910  -36.8880 N.3    79  PHE79      -0.1241
      2  CA         4.8020   -5.3250  -36.5970 C.3    79  PHE79       0.1605
      3  C          4.6810   -4.4480  -37.8640 C.2    79  PHE79       0.2264
      4  O          3.8770   -3.5250  -37.9330 O.2    79  PHE79      -0.2867
      5  CB         5.7580   -4.6310  -35.6150 C.3    79  PHE79       0.0534
      6  CG         5.7780   -5.2290  -34.2180 C.ar   79  PHE79      -0.0203
      7  CD1        4.6120   -5.6970  -33.6010 C.ar   79  PHE79      -0.0042
      8  CD2        6.9820   -5.2880  -33.4890 C.ar   79  PHE79      -0.0042
      9  CE1        4.6570   -6.2260  -32.3050 C.ar   79  PHE79      -0.0003
     10  CE2        7.0160   -5.8110  -32.1920 C.ar   79  PHE79      -0.0003
     11  CZ         5.8530   -6.2870  -31.6070 C.ar   79  PHE79      -0.0000
     12  N          1.4450   -3.1280  -39.8610 N.3    82  GLU82      -0.1245
     13  CA         0.5050   -2.2320  -39.1710 C.3    82  GLU82       0.1567
     14  C          0.9290   -0.7650  -39.2620 C.2    82  GLU82       0.2260
     15  O          0.1690    0.1060  -38.8850 O.2    82  GLU82      -0.2867
     16  CB         0.3370   -2.6110  -37.6860 C.3    82  GLU82       0.0388
     17  CG        -0.3050   -3.9510  -37.3620 C.3    82  GLU82       0.1160
     18  CD        -0.1700   -4.3360  -35.8920 C.2    82  GLU82       0.3649
     19  OE1        0.3230   -3.5200  -35.0990 O.co2  82  GLU82      -0.2457
     20  OE2       -0.5700   -5.4540  -35.5170 O.co2  82  GLU82      -0.2457
     21  N         -2.0880    2.1610  -35.4980 N.3   134  ARG134     -0.1245
     22  CA        -1.7130    0.8260  -35.9340 C.3   134  ARG134      0.1563
     23  C         -2.8700    0.3930  -36.8410 C.2   134  ARG134      0.2260
     24  O         -4.0530    0.5760  -36.4950 O.2   134  ARG134     -0.2867
     25  CB        -1.5460   -0.1470  -34.7440 C.3   134  ARG134      0.0307
     26  CG        -0.5790    0.3580  -33.6830 C.3   134  ARG134      0.0489
     27  CD        -0.3860   -0.6410  -32.5560 C.3   134  ARG134      0.2205
     28  NE         0.5230   -0.1370  -31.5520 N.pl3 134  ARG134     -0.0865
     29  CZ         0.8540   -0.7890  -30.4460 C.cat 134  ARG134      0.5346
     30  NH1        0.3750   -1.9960  -30.2270 N.pl3 134  ARG134      0.1354
     31  NH2        1.6940   -0.2440  -29.5790 N.pl3 134  ARG134      0.1354
     32  N         -4.5210   -2.2220  -37.5640 N.3   136  GLU136     -0.1245
     33  CA        -4.9120   -3.5140  -37.0450 C.3   136  GLU136      0.1567
     34  C         -5.5220   -4.3700  -38.1150 C.2   136  GLU136      0.2260
     35  O         -6.4630   -3.9360  -38.7650 O.2   136  GLU136     -0.2867
     36  CB        -5.9540   -3.3410  -35.9360 C.3   136  GLU136      0.0388
     37  CG        -5.4710   -2.5470  -34.7140 C.3   136  GLU136      0.1160
     38  CD        -4.4100   -3.2320  -33.8690 C.2   136  GLU136      0.3649
     39  OE1       -4.2540   -4.4470  -33.8200 O.co2 136  GLU136     -0.2457
     40  OE2       -3.6950   -2.5000  -33.2360 O.co2 136  GLU136     -0.2457
     41  N         -7.0580   -7.3350  -37.2730 N.3   138  LYS138     -0.1245
     42  CA        -8.2750   -7.8970  -36.7030 C.3   138  LYS138      0.1561
     43  C         -9.4300   -6.9160  -36.7880 C.2   138  LYS138      0.2260
     44  O         -9.2410   -5.6920  -36.8650 O.2   138  LYS138     -0.2867
     45  CB        -8.0810   -8.2630  -35.2590 C.3   138  LYS138      0.0271
     46  CG        -7.0020   -9.2760  -35.0150 C.3   138  LYS138      0.0035
     47  CD        -6.8530   -9.4600  -33.5140 C.3   138  LYS138      0.0206
     48  CE        -5.8050  -10.5140  -33.1760 C.3   138  LYS138      0.1093
     49  NZ        -5.5130  -10.4570  -31.7140 N.3   138  LYS138     -0.1314
     50  N        -13.2240    1.1850  -28.6220 N.3   143  PHE143     -0.1227
     51  CA       -12.4210    1.1420  -27.3960 C.3   143  PHE143      0.1736
     52  C        -11.3870    0.0310  -27.3790 C.2   143  PHE143      0.2595
     53  O        -10.1870    0.3180  -27.2530 O.2   143  PHE143     -0.2718
     54  CB       -13.2770    1.1490  -26.1180 C.3   143  PHE143      0.0547
     55  CG       -14.1440    2.3810  -25.9830 C.ar  143  PHE143     -0.0202
     56  CD1      -13.5900    3.5950  -25.7480 C.ar  143  PHE143     -0.0042
     57  CD2      -15.5160    2.3020  -26.1400 C.ar  143  PHE143     -0.0042
     58  CE1      -14.3730    4.7350  -25.6450 C.ar  143  PHE143     -0.0003
     59  CE2      -16.3160    3.4220  -26.0400 C.ar  143  PHE143     -0.0003
     60  CZ       -15.7430    4.6480  -25.7790 C.ar  143  PHE143     -0.0000
     61  N        -11.8440   -1.2110  -27.5270 N.am  144  LEU144     -0.1966
     62  CA       -11.0010   -2.3550  -27.2730 C.3   144  LEU144      0.1728
     63  C         -9.8770   -2.5360  -28.2830 C.2   144  LEU144      0.2616
     64  O         -8.7320   -2.9300  -27.9120 O.2   144  LEU144     -0.2715
     65  CB       -11.8130   -3.6320  -27.1710 C.3   144  LEU144      0.0311
     66  CG       -12.9250   -3.7730  -26.1090 C.3   144  LEU144      0.0022
     67  CD1      -13.5370   -5.1620  -26.2000 C.3   144  LEU144      0.0001
     68  CD2      -12.4730   -3.5120  -24.6740 C.3   144  LEU144      0.0001
     69  N        -10.1770   -2.2730  -29.5380 N.am  145  ARG145     -0.1963
     70  CA        -9.1690   -2.4190  -30.5950 C.3   145  ARG145      0.1729
     71  C         -9.4980   -1.4940  -31.7580 C.2   145  ARG145      0.2616
     72  O        -10.3550   -1.8140  -32.5840 O.2   145  ARG145     -0.2715
     73  CB        -9.0690   -3.8680  -31.1060 C.3   145  ARG145      0.0348
     74  CG        -7.9540   -3.9960  -32.1230 C.3   145  ARG145      0.0492
     75  CD        -7.5130   -5.4390  -32.4010 C.3   145  ARG145      0.2205
     76  NE        -7.1150   -6.2260  -31.2360 N.pl3 145  ARG145     -0.0865
     77  CZ        -5.9070   -6.2220  -30.6640 C.cat 145  ARG145      0.5346
     78  NH1       -4.9520   -5.3940  -31.0680 N.pl3 145  ARG145      0.1354
     79  NH2       -5.6630   -7.0500  -29.6420 N.pl3 145  ARG145      0.1354
     80  N         -8.8060   -0.3610  -31.7750 N.am  146  THR146     -0.1951
     81  CA        -9.0270    0.6630  -32.7320 C.3   146  THR146      0.1897
     82  C         -7.7240    1.0240  -33.4690 C.2   146  THR146      0.2313
     83  O         -6.6300    0.8260  -32.9610 O.2   146  THR146     -0.2863
     84  CB        -9.7090    1.8620  -32.0610 C.3   146  THR146      0.1794
     85  OG1       -8.8940    2.4330  -31.0350 O.3   146  THR146     -0.2208
     86  CG2      -11.0050    1.3810  -31.4040 C.3   146  THR146      0.0378
     87  N         -5.9400    4.9360  -31.3720 N.3   149  PHE149     -0.1241
     88  CA        -6.3060    4.8850  -29.9510 C.3   149  PHE149      0.1605
     89  C         -5.4550    5.8530  -29.1740 C.2   149  PHE149      0.2264
     90  O         -4.3580    6.2260  -29.6260 O.2   149  PHE149     -0.2867
     91  CB        -6.1870    3.4900  -29.3910 C.3   149  PHE149      0.0534
     92  CG        -4.7860    2.8690  -29.4560 C.ar  149  PHE149     -0.0203
     93  CD1       -3.8990    2.9850  -28.3730 C.ar  149  PHE149     -0.0042
     94  CD2       -4.4360    2.0320  -30.4970 C.ar  149  PHE149     -0.0042
     95  CE1       -2.6760    2.3270  -28.3660 C.ar  149  PHE149     -0.0003
     96  CE2       -3.1930    1.3780  -30.5150 C.ar  149  PHE149     -0.0003
     97  CZ        -2.3100    1.5440  -29.4570 C.ar  149  PHE149     -0.0000
     98  N         -3.3850    6.7820  -25.6080 N.3   151  TRP151     -0.1241
     99  CA        -2.7180    6.1190  -24.4820 C.3   151  TRP151      0.1605
    100  C         -1.7960    7.0450  -23.7480 C.2   151  TRP151      0.2264
    101  O         -1.6030    8.1820  -24.1350 O.2   151  TRP151     -0.2867
    102  CB        -1.9800    4.8150  -24.9070 C.3   151  TRP151      0.0550
    103  CG        -0.5700    4.9070  -25.6040 C.ar  151  TRP151      0.0003
    104  CD1        0.1430    6.0250  -25.9440 C.ar  151  TRP151      0.0946
    105  CD2        0.2520    3.7690  -26.0520 C.ar  151  TRP151      0.0152
    106  NE1        1.3560    5.6450  -26.5480 N.ar  151  TRP151     -0.2442
    107  CE2        1.4310    4.2810  -26.5970 C.ar  151  TRP151      0.0810
    108  CE3        0.1110    2.3820  -25.9630 C.ar  151  TRP151      0.0012
    109  CZ2        2.4260    3.4610  -27.1230 C.ar  151  TRP151      0.0191
    110  CZ3        1.1140    1.5670  -26.4720 C.ar  151  TRP151      0.0001
    111  CH2        2.2660    2.1170  -27.0280 C.ar  151  TRP151      0.0015
    112  N         -6.1420   -8.2830  -22.3130 N.3   219  GLN219     -0.1231
    113  CA        -5.0710   -7.6340  -21.5950 C.3   219  GLN219      0.1698
    114  C         -5.4120   -6.1510  -21.3400 C.2   219  GLN219      0.2592
    115  O         -5.6020   -5.3810  -22.3000 O.2   219  GLN219     -0.2718
    116  CB        -3.7530   -7.7280  -22.3640 C.3   219  GLN219      0.0381
    117  CG        -2.6650   -6.9120  -21.6870 C.3   219  GLN219      0.0905
    118  CD        -1.2650   -7.2960  -22.0980 C.2   219  GLN219      0.2608
    119  OE1       -1.0800   -8.1910  -22.8960 O.2   219  GLN219     -0.2717
    120  NE2       -0.2760   -6.6290  -21.5380 N.am  219  GLN219     -0.0878
    121  N         -5.4020   -5.7670  -20.0690 N.am  220  ALA220     -0.1966
    122  CA        -5.8390   -4.4360  -19.6140 C.3   220  ALA220      0.1728
    123  C         -4.7910   -3.3250  -19.6650 C.2   220  ALA220      0.2616
    124  O         -5.1540   -2.1680  -19.9000 O.2   220  ALA220     -0.2715
    125  CB        -6.4180   -4.5170  -18.2010 C.3   220  ALA220      0.0334
    126  N         -3.5290   -3.6650  -19.3350 N.am  221  ALA221     -0.1963
    127  CA        -2.4030   -2.7730  -19.4060 C.3   221  ALA221      0.1728
    128  C         -1.1520   -3.6180  -19.2770 C.2   221  ALA221      0.2616
    129  O         -1.2210   -4.8290  -19.0510 O.2   221  ALA221     -0.2715
    130  CB        -2.4770   -1.7370  -18.3130 C.3   221  ALA221      0.0334
    131  N          0.0110   -3.0010  -19.4300 N.am  222  THR222     -0.1951
    132  CA         1.2460   -3.7510  -19.5100 C.3   222  THR222      0.1897
    133  C          2.3790   -2.9720  -18.8920 C.2   222  THR222      0.2313
    134  O          2.4120   -1.7450  -18.9770 O.2   222  THR222     -0.2863
    135  CB         1.5480   -4.0730  -20.9960 C.3   222  THR222      0.1794
    136  OG1        2.3540   -5.2410  -21.0860 O.3   222  THR222     -0.2208
    137  CG2        2.2310   -2.9120  -21.6870 C.3   222  THR222      0.0378
    138  N          6.7600   -3.4830  -18.4660 N.3   224  HIS224     -0.1241
    139  CA         7.8390   -4.3650  -18.8990 C.3   224  HIS224      0.1621
    140  C          9.0670   -4.0600  -18.1250 C.2   224  HIS224      0.2264
    141  O          9.4240   -2.8880  -17.9870 O.2   224  HIS224     -0.2867
    142  CB         8.2270   -4.1350  -20.3770 C.3   224  HIS224      0.0745
    143  CG         7.0920   -4.2750  -21.3490 C.ar  224  HIS224      0.0817
    144  ND1        6.4030   -5.4620  -21.5200 N.ar  224  HIS224     -0.2268
    145  CD2        6.5390   -3.3860  -22.2160 C.ar  224  HIS224      0.1154
    146  CE1        5.4700   -5.2920  -22.4400 C.ar  224  HIS224      0.1986
    147  NE2        5.5290   -4.0430  -22.8790 N.ar  224  HIS224     -0.2212
    148  N          2.2360    0.9310  -20.7370 N.3   254  GLY254     -0.1210
    149  CA         1.1910    1.5990  -21.4750 C.3   254  GLY254      0.1956
    150  C         -0.1830    1.0930  -21.1330 C.2   254  GLY254      0.2612
    151  O         -0.3740   -0.0860  -20.7630 O.2   254  GLY254     -0.2717
    152  N         -1.1340    1.9980  -21.2930 N.am  255  CYS255     -0.1956
    153  CA        -2.5530    1.7200  -21.0780 C.3   255  CYS255      0.1843
    154  C         -3.3860    2.6330  -21.9370 C.2   255  CYS255      0.2626
    155  O         -3.0660    3.8300  -22.0840 O.2   255  CYS255     -0.2714
    156  CB        -2.9210    1.9500  -19.6030 C.3   255  CYS255      0.0997
    157  SG        -4.5650    1.3090  -19.1830 S.3   255  CYS255     -0.0797
    158  N         -4.4650    2.1000  -22.4840 N.am  256  THR256     -0.1950
    159  CA        -5.2020    2.8240  -23.5460 C.3   256  THR256      0.1897
    160  C         -6.6950    3.0230  -23.2470 C.2   256  THR256      0.2313
    161  O         -7.2390    2.5170  -22.2400 O.2   256  THR256     -0.2863
    162  CB        -5.1580    2.0860  -24.8890 C.3   256  THR256      0.1794
    163  OG1       -6.0590    0.9880  -24.8260 O.3   256  THR256     -0.2208
    164  CG2       -3.7990    1.5910  -25.2240 C.3   256  THR256      0.0378
    165  N         -8.8400    1.4220  -24.5170 N.3   258  ARG258     -0.1245
    166  CA        -9.3940    0.1130  -24.2510 C.3   258  ARG258      0.1563
    167  C        -10.0610    0.0090  -22.8710 C.2   258  ARG258      0.2260
    168  O        -11.0790   -0.6710  -22.7240 O.2   258  ARG258     -0.2867
    169  CB        -8.3160   -0.9660  -24.3530 C.3   258  ARG258      0.0307
    170  CG        -8.7410   -2.3260  -23.7490 C.3   258  ARG258      0.0489
    171  CD        -7.7130   -3.4330  -24.0000 C.3   258  ARG258      0.2205
    172  NE        -7.4970   -3.6980  -25.4250 N.pl3 258  ARG258     -0.0865
    173  CZ        -6.7770   -4.7080  -25.9030 C.cat 258  ARG258      0.5346
    174  NH1       -6.1910   -5.5670  -25.0910 N.pl3 258  ARG258      0.1354
    175  NH2       -6.6470   -4.8640  -27.2260 N.pl3 258  ARG258      0.1354
    176  N         -4.8840  -19.2640  -25.4890 N.3   452  LYS452     -0.1245
    177  CA        -3.5420  -18.8450  -25.2580 C.3   452  LYS452      0.1561
    178  C         -3.3370  -18.5530  -23.7910 C.2   452  LYS452      0.2260
    179  O         -4.3140  -18.5470  -23.0310 O.2   452  LYS452     -0.2867
    180  CB        -3.1930  -17.6920  -26.1940 C.3   452  LYS452      0.0271
    181  CG        -3.7310  -16.3110  -25.8500 C.3   452  LYS452      0.0035
    182  CD        -3.1030  -15.3010  -26.8180 C.3   452  LYS452      0.0206
    183  CE        -3.1200  -13.8790  -26.2710 C.3   452  LYS452      0.1093
    184  NZ        -2.7940  -12.9540  -27.3850 N.3   452  LYS452     -0.1314
    185  N         -8.9400  -11.4410  -26.6660 N.3   486  TYR486     -0.1241
    186  CA        -8.9880  -10.4060  -27.6680 C.3   486  TYR486      0.1605
    187  C         -7.5790  -10.2640  -28.2170 C.2   486  TYR486      0.2264
    188  O         -6.6930  -11.0350  -27.8220 O.2   486  TYR486     -0.2867
    189  CB        -9.4700   -9.1050  -27.0630 C.3   486  TYR486      0.0534
    190  CG       -10.9650   -8.9430  -26.9370 C.ar  486  TYR486     -0.0201
    191  CD1      -11.6350   -9.4000  -25.8340 C.ar  486  TYR486     -0.0009
    192  CD2      -11.6940   -8.2860  -27.9250 C.ar  486  TYR486     -0.0009
    193  CE1      -12.9970   -9.2100  -25.6810 C.ar  486  TYR486      0.0417
    194  CE2      -13.0660   -8.0970  -27.8090 C.ar  486  TYR486      0.0417
    195  CZ       -13.7160   -8.5600  -26.6750 C.ar  486  TYR486      0.1957
    196  OH       -15.0830   -8.3840  -26.5510 O.3   486  TYR486     -0.2866
@<TRIPOS>BOND
     1    12    13    1
     2    14    13    1
     3    14    15    2
     4    13    16    1
     5    35    34    2
     6    34    33    1
     7     4     3    2
     8     3     2    1
     9    16    17    1
    10    32    33    1
    11    17    18    1
    12    41    42    1
    13    33    36    1
    14     1     2    1
    15    44    43    2
    16    23    24    2
    17    23    22    1
    18    43    42    1
    19    42    45    1
    20     2     5    1
    21    36    37    1
    22    22    21    1
    23    22    25    1
    24    18    20   ar
    25    18    19   ar
    26     5     6    1
    27    45    46    1
    28    46    47    1
    29    25    26    1
    30    37    38    1
    31     6     7   ar
    32     6     8   ar
    33    38    39   ar
    34    38    40   ar
    35    26    27    1
    36     7     9   ar
    37    47    48    1
    38     8    10   ar
    39    82    83    2
    40    82    81    1
    41    48    49    1
    42    81    84    1
    43    81    80    1
    44    72    71    2
    45    27    28    1
    46    75    74    1
    47    75    76    1
    48     9    11   ar
    49    10    11   ar
    50    74    73    1
    51    84    86    1
    52    84    85    1
    53    80    71   am
    54    71    70    1
    55    28    29    2
    56    87    88    1
    57    76    77    2
    58    73    70    1
    59    78    77    1
    60    77    79    1
    61    70    69    1
    62    96    94   ar
    63    96    97   ar
    64    94    92   ar
    65    29    30    1
    66    29    31    1
    67    88    91    1
    68    88    89    1
    69    90    89    2
    70    69    63   am
    71    97    95   ar
    72    92    91    1
    73    92    93   ar
    74    50    51    1
    75    93    95   ar
    76    63    64    2
    77    63    62    1
    78   187   188    2
    79   187   186    1
    80   192   194   ar
    81   192   190   ar
    82   194   195   ar
    83   186   189    1
    84   186   185    1
    85    61    52   am
    86    61    62    1
    87    51    52    1
    88    51    54    1
    89   184   183    1
    90    52    53    2
    91    62    65    1
    92   175   173    1
    93    65    66    1
    94   109   111   ar
    95   109   107   ar
    96   189   190    1
    97   111   110   ar
    98   190   191   ar
    99   182   183    1
   100   182   181    1
   101   195   196    1
   102   195   193   ar
   103   107   106   ar
   104   107   105   ar
   105   106   104   ar
   106   110   108   ar
   107    67    66    1
   108   180   181    1
   109   180   177    1
   110    57    59   ar
   111    57    55   ar
   112    54    55    1
   113    66    68    1
   114   105   108   ar
   115   105   103   ar
   116    59    60   ar
   117    55    56   ar
   118   104   103   ar
   119   173   172    2
   120   173   174    1
   121   191   193   ar
   122    60    58   ar
   123    56    58   ar
   124    98    99    1
   125   103   102    1
   126   176   177    1
   127   172   171    1
   128   177   178    1
   129   164   162    1
   130   102    99    1
   131   162   163    1
   132   162   159    1
   133   165   166    1
   134    99   100    1
   135   169   166    1
   136   169   170    1
   137   166   167    1
   138   101   100    2
   139   171   170    1
   140   178   179    2
   141   159   160    1
   142   159   158    1
   143   160   161    2
   144   119   118    2
   145   147   146   ar
   146   147   145   ar
   147   167   168    2
   148   158   154   am
   149   146   144   ar
   150   116   117    1
   151   116   113    1
   152   112   113    1
   153   115   114    2
   154   145   143   ar
   155   118   117    1
   156   118   120   am
   157   155   154    2
   158   154   153    1
   159   137   135    1
   160   113   114    1
   161   144   143   ar
   162   149   150    1
   163   149   148    1
   164   143   142    1
   165   114   121   am
   166   152   150   am
   167   152   153    1
   168   150   151    2
   169   136   135    1
   170   153   156    1
   171   135   132    1
   172   142   139    1
   173   121   122    1
   174   124   123    2
   175   123   122    1
   176   123   126   am
   177   122   125    1
   178   156   157    1
   179   132   131    1
   180   132   133    1
   181   131   128   am
   182   127   126    1
   183   127   128    1
   184   127   130    1
   185   128   129    2
   186   134   133    2
   187   139   138    1
   188   139   140    1
   189   140   141    2
