@<TRIPOS>MOLECULE
tmp/5xipB01.pdb
 161 157 0 0 0
SMALL
GASTEIGER

@<TRIPOS>ATOM
      1  N        -26.7890  153.1990    7.2140 N.3    72  LEU72      -0.1245
      2  CA       -27.0080  154.6140    6.8760 C.3    72  LEU72       0.1561
      3  C        -26.4940  155.0650    5.5050 C.2    72  LEU72       0.2260
      4  O        -26.7560  156.1960    5.1320 O.2    72  LEU72      -0.2867
      5  CB       -26.4270  155.5250    7.9630 C.3    72  LEU72       0.0270
      6  CG       -26.8340  157.0090    7.9760 C.3    72  LEU72       0.0019
      7  CD1      -28.3270  157.2340    7.8020 C.3    72  LEU72       0.0001
      8  CD2      -26.3800  157.6630    9.2700 C.3    72  LEU72       0.0001
      9  N        -24.8640  166.4920    4.0210 N.3    76  PHE76      -0.1241
     10  CA       -25.6970  165.6430    4.8630 C.3    76  PHE76       0.1605
     11  C        -24.8730  164.9640    5.9510 C.2    76  PHE76       0.2264
     12  O        -25.3990  164.5880    6.9980 O.2    76  PHE76      -0.2867
     13  CB       -26.4180  164.5910    4.0160 C.3    76  PHE76       0.0534
     14  CG       -27.7960  165.0020    3.5830 C.ar   76  PHE76      -0.0203
     15  CD1      -28.3260  166.2190    3.9770 C.ar   76  PHE76      -0.0042
     16  CD2      -28.5610  164.1710    2.7820 C.ar   76  PHE76      -0.0042
     17  CE1      -29.5940  166.6000    3.5800 C.ar   76  PHE76      -0.0003
     18  CE2      -29.8300  164.5450    2.3820 C.ar   76  PHE76      -0.0003
     19  CZ       -30.3470  165.7620    2.7810 C.ar   76  PHE76      -0.0000
     20  N        -24.8900  167.1290    9.2000 N.3    79  GLU79      -0.1231
     21  CA       -26.1190  167.0630    9.8870 C.3    79  GLU79       0.1699
     22  C        -26.3080  165.8030   10.7470 C.2    79  GLU79       0.2592
     23  O        -27.1690  165.8400   11.5970 O.2    79  GLU79      -0.2718
     24  CB       -27.2360  167.2270    8.8640 C.3    79  GLU79       0.0402
     25  CG       -28.0230  168.5140    9.0170 C.3    79  GLU79       0.1161
     26  CD       -28.4930  169.1220    7.7270 C.2    79  GLU79       0.3649
     27  OE1      -29.0160  168.4260    6.8860 O.co2  79  GLU79      -0.2457
     28  OE2      -28.3520  170.3220    7.5430 O.co2  79  GLU79      -0.2457
     29  N        -25.5100  164.7260   10.6100 N.am   80  VAL80      -0.1980
     30  CA       -25.7900  163.5240   11.4520 C.3    80  VAL80       0.1595
     31  C        -25.2120  163.5880   12.8660 C.2    80  VAL80       0.2287
     32  O        -24.1030  164.0040   13.0340 O.2    80  VAL80      -0.2864
     33  CB       -25.2220  162.2230   10.8550 C.3    80  VAL80       0.0276
     34  CG1      -25.6590  161.0160   11.7020 C.3    80  VAL80       0.0022
     35  CG2      -25.6340  162.0430    9.4040 C.3    80  VAL80       0.0022
     36  N        -31.9560  160.9630   11.2190 N.3    99  PRO99      -0.2102
     37  CA       -32.3990  162.2270   10.6290 C.3    99  PRO99       0.1504
     38  C        -33.7340  162.0790    9.9020 C.2    99  PRO99       0.2576
     39  O        -34.4280  163.0530    9.5950 O.2    99  PRO99      -0.2718
     40  CB       -31.3290  162.4680    9.5720 C.3    99  PRO99       0.0282
     41  CG       -30.9510  161.1000    9.1090 C.3    99  PRO99       0.0208
     42  CD       -30.9820  160.2650   10.3550 C.3    99  PRO99       0.0893
     43  N        -33.8930  160.8710    9.4890 N.am  100  THR100     -0.1953
     44  CA       -34.9880  160.3210    8.7780 C.3   100  THR100      0.1897
     45  C        -34.9250  158.8170    8.9880 C.2   100  THR100      0.2313
     46  O        -33.9820  158.2410    9.4810 O.2   100  THR100     -0.2863
     47  CB       -35.0090  160.7260    7.3230 C.3   100  THR100      0.1794
     48  OG1      -36.2760  160.4150    6.7930 O.3   100  THR100     -0.2208
     49  CG2      -34.0520  159.9390    6.5470 C.3   100  THR100      0.0378
     50  N        -35.6130  156.4090    6.5630 N.3   102  GLU102     -0.1231
     51  CA       -35.6380  155.6770    5.2760 C.3   102  GLU102      0.1699
     52  C        -34.7210  154.4600    5.2030 C.2   102  GLU102      0.2592
     53  O        -35.0810  153.3980    4.6810 O.2   102  GLU102     -0.2718
     54  CB       -35.2130  156.5990    4.1350 C.3   102  GLU102      0.0402
     55  CG       -36.3490  157.1520    3.2820 C.3   102  GLU102      0.1161
     56  CD       -36.7890  158.5870    3.6250 C.2   102  GLU102      0.3649
     57  OE1      -36.3450  159.1140    4.7040 O.co2 102  GLU102     -0.2457
     58  OE2      -37.5970  159.1470    2.7830 O.co2 102  GLU102     -0.2457
     59  N        -33.5130  154.6570    5.7120 N.am  103  THR103     -0.1953
     60  CA       -32.4740  153.6390    5.7140 C.3   103  THR103      0.1897
     61  C        -32.6930  152.5670    6.7940 C.2   103  THR103      0.2313
     62  O        -32.0340  151.5440    6.7830 O.2   103  THR103     -0.2863
     63  CB       -31.1190  154.3130    5.9380 C.3   103  THR103      0.1794
     64  OG1      -31.1100  154.9280    7.2290 O.3   103  THR103     -0.2208
     65  CG2      -30.8840  155.3670    4.8790 C.3   103  THR103      0.0378
     66  N        -31.0600  166.4040   13.4900 N.3   131  ARG131     -0.1245
     67  CA       -30.3650  166.8780   12.2950 C.3   131  ARG131      0.1563
     68  C        -29.5670  168.0860   12.7430 C.2   131  ARG131      0.2260
     69  O        -30.1610  169.1400   12.9610 O.2   131  ARG131     -0.2867
     70  CB       -31.3400  167.3040   11.1980 C.3   131  ARG131      0.0307
     71  CG       -32.2370  166.2120   10.6700 C.3   131  ARG131      0.0489
     72  CD       -33.1440  166.7670    9.5810 C.3   131  ARG131      0.2205
     73  NE       -34.0890  165.7820    9.0620 N.pl3 131  ARG131     -0.0865
     74  CZ       -34.8290  165.9660    7.9800 C.cat 131  ARG131      0.5346
     75  NH1      -34.7450  167.0910    7.3020 N.pl3 131  ARG131      0.1354
     76  NH2      -35.6530  165.0340    7.5550 N.pl3 131  ARG131      0.1354
     77  N        -42.0190  165.0000   14.5360 N.3   148  TRP148     -0.1241
     78  CA       -42.7710  164.9870   13.3150 C.3   148  TRP148      0.1605
     79  C        -43.5720  163.7210   13.2580 C.2   148  TRP148      0.2264
     80  O        -43.6410  162.9550   14.2200 O.2   148  TRP148     -0.2867
     81  CB       -41.8850  165.1290   12.0760 C.3   148  TRP148      0.0550
     82  CG       -40.9730  163.9280   11.6600 C.ar  148  TRP148      0.0003
     83  CD1      -40.6210  162.8560   12.4230 C.ar  148  TRP148      0.0946
     84  CD2      -40.2380  163.7830   10.4240 C.ar  148  TRP148      0.0152
     85  NE1      -39.7640  162.0310   11.7280 N.ar  148  TRP148     -0.2442
     86  CE2      -39.5060  162.5870   10.5070 C.ar  148  TRP148      0.0810
     87  CE3      -40.1410  164.5450    9.2620 C.ar  148  TRP148      0.0012
     88  CZ2      -38.7100  162.1220    9.4640 C.ar  148  TRP148      0.0191
     89  CZ3      -39.3510  164.0840    8.2210 C.ar  148  TRP148      0.0001
     90  CH2      -38.6470  162.8830    8.3300 C.ar  148  TRP148      0.0015
     91  N        -43.9620  160.7710   10.1320 N.3   150  GLU150     -0.1245
     92  CA       -43.2750  160.4230    8.8740 C.3   150  GLU150      0.1567
     93  C        -43.7920  159.1350    8.3260 C.2   150  GLU150      0.2260
     94  O        -43.6480  158.0840    8.9480 O.2   150  GLU150     -0.2867
     95  CB       -41.7580  160.3020    9.0470 C.3   150  GLU150      0.0388
     96  CG       -41.2320  159.1550    9.9170 C.3   150  GLU150      0.1160
     97  CD       -39.7070  158.9800    9.8020 C.2   150  GLU150      0.3649
     98  OE1      -39.2150  158.7660    8.6430 O.co2 150  GLU150     -0.2457
     99  OE2      -39.0230  159.0530   10.8750 O.co2 150  GLU150     -0.2457
    100  N        -44.4720  156.1820    5.2880 N.3   152  HIS152     -0.1241
    101  CA       -43.8360  155.4680    4.1880 C.3   152  HIS152      0.1621
    102  C        -44.7690  154.3640    3.7380 C.2   152  HIS152      0.2264
    103  O        -45.2110  153.5630    4.5540 O.2   152  HIS152     -0.2867
    104  CB       -42.5230  154.8440    4.6430 C.3   152  HIS152      0.0745
    105  CG       -41.5800  155.8070    5.2950 C.ar  152  HIS152      0.0817
    106  ND1      -40.5130  156.3590    4.6260 N.ar  152  HIS152     -0.2268
    107  CD2      -41.5330  156.3000    6.5600 C.ar  152  HIS152      0.1154
    108  CE1      -39.8440  157.1410    5.4570 C.ar  152  HIS152      0.1986
    109  NE2      -40.4470  157.1330    6.6330 N.ar  152  HIS152     -0.2212
    110  N        -37.5090  166.0870   -3.7800 N.3   195  PHE195     -0.1241
    111  CA       -36.7430  165.1180   -3.0320 C.3   195  PHE195      0.1605
    112  C        -35.9950  164.2330   -4.0080 C.2   195  PHE195      0.2264
    113  O        -36.5940  163.6720   -4.9540 O.2   195  PHE195     -0.2867
    114  CB       -37.6530  164.2870   -2.1430 C.3   195  PHE195      0.0534
    115  CG       -36.9370  163.2550   -1.3220 C.ar  195  PHE195     -0.0203
    116  CD1      -35.7230  163.5330   -0.7180 C.ar  195  PHE195     -0.0042
    117  CD2      -37.5040  162.0040   -1.1250 C.ar  195  PHE195     -0.0042
    118  CE1      -35.0890  162.5930    0.0550 C.ar  195  PHE195     -0.0003
    119  CE2      -36.8710  161.0590   -0.3480 C.ar  195  PHE195     -0.0003
    120  CZ       -35.6610  161.3560    0.2420 C.ar  195  PHE195     -0.0000
    121  N        -44.5770  167.9330    3.1010 N.3   219  THR219     -0.1218
    122  CA       -44.2130  167.2610    1.8400 C.3   219  THR219      0.1862
    123  C        -44.8790  165.9200    1.6600 C.2   219  THR219      0.2287
    124  O        -45.2020  165.2340    2.6180 O.2   219  THR219     -0.2866
    125  CB       -42.7030  166.9960    1.7630 C.3   219  THR219      0.1770
    126  OG1      -42.2340  166.6380    3.0650 O.3   219  THR219     -0.2211
    127  CG2      -41.9680  168.2260    1.3200 C.3   219  THR219      0.0375
    128  N        -44.2050  162.8460   -1.1440 N.3   221  HIS221     -0.1241
    129  CA       -43.4570  162.3980   -2.3170 C.3   221  HIS221      0.1621
    130  C        -44.0050  161.1270   -2.9080 C.2   221  HIS221      0.2264
    131  O        -44.3630  160.2090   -2.1750 O.2   221  HIS221     -0.2867
    132  CB       -42.0160  162.1100   -1.9700 C.3   221  HIS221      0.0745
    133  CG       -41.4240  163.0860   -1.0320 C.ar  221  HIS221      0.0817
    134  ND1      -41.0870  164.3570   -1.4160 N.ar  221  HIS221     -0.2268
    135  CD2      -41.1060  162.9860    0.2770 C.ar  221  HIS221      0.1154
    136  CE1      -40.5950  165.0110   -0.3780 C.ar  221  HIS221      0.1986
    137  NE2      -40.5890  164.1970    0.6610 N.ar  221  HIS221     -0.2212
    138  N        -43.5960  158.6220    0.4580 N.3   249  SER249     -0.1202
    139  CA       -43.2970  159.0320    1.8250 C.3   249  SER249      0.2020
    140  C        -43.6230  160.4840    1.9480 C.2   249  SER249      0.2619
    141  O        -43.5900  161.2110    0.9510 O.2   249  SER249     -0.2717
    142  CB       -41.8440  158.8420    2.2070 C.3   249  SER249      0.2103
    143  OG       -41.0020  159.6040    1.3640 O.3   249  SER249     -0.2182
    144  N        -43.9380  160.8920    3.1760 N.am  250  TRP250     -0.1961
    145  CA       -44.5870  162.1710    3.4560 C.3   250  TRP250      0.1771
    146  C        -44.2770  162.5650    4.8620 C.2   250  TRP250      0.2620
    147  O        -43.9510  161.7150    5.6900 O.2   250  TRP250     -0.2715
    148  CB       -46.1110  162.0940    3.2790 C.3   250  TRP250      0.0590
    149  CG       -46.7340  160.7130    3.2570 C.ar  250  TRP250      0.0006
    150  CD1      -46.8190  159.8530    2.1840 C.ar  250  TRP250      0.0946
    151  CD2      -47.4090  160.0650    4.3260 C.ar  250  TRP250      0.0152
    152  NE1      -47.4820  158.7050    2.5400 N.ar  250  TRP250     -0.2442
    153  CE2      -47.8600  158.8120    3.8470 C.ar  250  TRP250      0.0810
    154  CE3      -47.6860  160.4210    5.6420 C.ar  250  TRP250      0.0012
    155  CZ2      -48.5430  157.9210    4.6350 C.ar  250  TRP250      0.0191
    156  CZ3      -48.3660  159.5290    6.4300 C.ar  250  TRP250      0.0001
    157  CH2      -48.7870  158.2830    5.9190 C.ar  250  TRP250      0.0015
    158  N        -44.3770  163.8500    5.1530 N.am  251  GLY251     -0.1954
    159  CA       -43.9920  164.3020    6.4740 C.3   251  GLY251      0.1869
    160  C        -44.3120  165.7520    6.7460 C.2   251  GLY251      0.2309
    161  O        -44.3480  166.5770    5.8090 O.2   251  GLY251     -0.2863
@<TRIPOS>BOND
     1   113   112    2
     2   112   111    1
     3   110   111    1
     4   111   114    1
     5   130   129    1
     6   130   131    2
     7   129   132    1
     8   129   128    1
     9   114   115    1
    10   132   133    1
    11   134   133   ar
    12   134   136   ar
    13   115   117   ar
    14   115   116   ar
    15   117   119   ar
    16   133   135   ar
    17   116   118   ar
    18   136   137   ar
    19   119   120   ar
    20   118   120   ar
    21   135   137   ar
    22   138   139    1
    23   141   140    2
    24   127   125    1
    25   143   142    1
    26   123   122    1
    27   123   124    2
    28   125   122    1
    29   125   126    1
    30   139   140    1
    31   139   142    1
    32   122   121    1
    33   140   144   am
    34   150   152   ar
    35   150   149   ar
    36    18    19   ar
    37    18    16   ar
    38   152   153   ar
    39    19    17   ar
    40    16    14   ar
    41    58    56   ar
    42   144   145    1
    43   149   148    1
    44   149   151   ar
    45   148   145    1
    46    55    56    1
    47    55    54    1
    48   145   146    1
    49    17    15   ar
    50    14    15   ar
    51    14    13    1
    52    56    57   ar
    53   102   101    1
    54   102   103    2
    55   153   151   ar
    56   153   155   ar
    57    13    10    1
    58     9    10    1
    59    54    51    1
    60   101   104    1
    61   101   100    1
    62   151   154   ar
    63   106   105   ar
    64   106   108   ar
    65   155   157   ar
    66   104   105    1
    67    53    52    2
    68   146   158   am
    69   146   147    2
    70    10    11    1
    71    65    63    1
    72     4     3    2
    73   158   159    1
    74    52    51    1
    75    52    59   am
    76    51    50    1
    77   105   107   ar
    78   108   109   ar
    79     3     2    1
    80   154   156   ar
    81    59    60    1
    82    60    63    1
    83    60    61    1
    84   161   160    2
    85   157   156   ar
    86    63    64    1
    87    11    12    2
    88   159   160    1
    89    49    47    1
    90   107   109   ar
    91    62    61    2
    92    48    47    1
    93     2     1    1
    94     2     5    1
    95    27    26   ar
    96    75    74    1
    97    47    44    1
    98    28    26   ar
    99    76    74    1
   100    26    25    1
   101     7     6    1
   102     5     6    1
   103     6     8    1
   104    74    73    2
   105    89    90   ar
   106    89    87   ar
   107    93    92    1
   108    93    94    2
   109    90    88   ar
   110    98    97   ar
   111    44    45    1
   112    44    43    1
   113    24    25    1
   114    24    21    1
   115    92    95    1
   116    92    91    1
   117    45    46    2
   118    95    96    1
   119    73    72    1
   120    41    40    1
   121    41    42    1
   122    20    21    1
   123    87    84   ar
   124    35    33    1
   125    88    86   ar
   126    43    38   am
   127    40    37    1
   128    72    71    1
   129    39    38    2
   130    97    96    1
   131    97    99   ar
   132    21    22    1
   133    38    37    1
   134    42    36    1
   135    84    86   ar
   136    84    82   ar
   137    86    85   ar
   138    29    22   am
   139    29    30    1
   140    37    36    1
   141    71    70    1
   142    22    23    2
   143    33    30    1
   144    33    34    1
   145    70    67    1
   146    30    31    1
   147    82    81    1
   148    82    83   ar
   149    85    83   ar
   150    81    78    1
   151    67    68    1
   152    67    66    1
   153    68    69    2
   154    31    32    2
   155    79    78    1
   156    79    80    2
   157    78    77    1
