@<TRIPOS>MOLECULE
tmp/5xipB00.pdb
 186 180 0 0 0
SMALL
GASTEIGER

@<TRIPOS>ATOM
      1  N        -24.8640  166.4920    4.0210 N.3    76  PHE76      -0.1241
      2  CA       -25.6970  165.6430    4.8630 C.3    76  PHE76       0.1605
      3  C        -24.8730  164.9640    5.9510 C.2    76  PHE76       0.2264
      4  O        -25.3990  164.5880    6.9980 O.2    76  PHE76      -0.2867
      5  CB       -26.4180  164.5910    4.0160 C.3    76  PHE76       0.0534
      6  CG       -27.7960  165.0020    3.5830 C.ar   76  PHE76      -0.0203
      7  CD1      -28.3260  166.2190    3.9770 C.ar   76  PHE76      -0.0042
      8  CD2      -28.5610  164.1710    2.7820 C.ar   76  PHE76      -0.0042
      9  CE1      -29.5940  166.6000    3.5800 C.ar   76  PHE76      -0.0003
     10  CE2      -29.8300  164.5450    2.3820 C.ar   76  PHE76      -0.0003
     11  CZ       -30.3470  165.7620    2.7810 C.ar   76  PHE76      -0.0000
     12  N        -24.8900  167.1290    9.2000 N.3    79  GLU79      -0.1245
     13  CA       -26.1190  167.0630    9.8870 C.3    79  GLU79       0.1567
     14  C        -26.3080  165.8030   10.7470 C.2    79  GLU79       0.2260
     15  O        -27.1690  165.8400   11.5970 O.2    79  GLU79      -0.2867
     16  CB       -27.2360  167.2270    8.8640 C.3    79  GLU79       0.0388
     17  CG       -28.0230  168.5140    9.0170 C.3    79  GLU79       0.1160
     18  CD       -28.4930  169.1220    7.7270 C.2    79  GLU79       0.3649
     19  OE1      -29.0160  168.4260    6.8860 O.co2  79  GLU79      -0.2457
     20  OE2      -28.3520  170.3220    7.5430 O.co2  79  GLU79      -0.2457
     21  N        -31.0600  166.4040   13.4900 N.3   131  ARG131     -0.1245
     22  CA       -30.3650  166.8780   12.2950 C.3   131  ARG131      0.1563
     23  C        -29.5670  168.0860   12.7430 C.2   131  ARG131      0.2260
     24  O        -30.1610  169.1400   12.9610 O.2   131  ARG131     -0.2867
     25  CB       -31.3400  167.3040   11.1980 C.3   131  ARG131      0.0307
     26  CG       -32.2370  166.2120   10.6700 C.3   131  ARG131      0.0489
     27  CD       -33.1440  166.7670    9.5810 C.3   131  ARG131      0.2205
     28  NE       -34.0890  165.7820    9.0620 N.pl3 131  ARG131     -0.0865
     29  CZ       -34.8290  165.9660    7.9800 C.cat 131  ARG131      0.5346
     30  NH1      -34.7450  167.0910    7.3020 N.pl3 131  ARG131      0.1354
     31  NH2      -35.6530  165.0340    7.5550 N.pl3 131  ARG131      0.1354
     32  N        -28.1040  171.0370   12.3220 N.3   133  GLU133     -0.1245
     33  CA       -28.1800  172.0300   11.2760 C.3   133  GLU133      0.1567
     34  C        -27.1760  173.1120   11.2590 C.2   133  GLU133      0.2260
     35  O        -26.9490  173.7400   12.2530 O.2   133  GLU133     -0.2867
     36  CB       -29.5370  172.7230   11.3300 C.3   133  GLU133      0.0388
     37  CG       -30.7420  171.8270   11.3640 C.3   133  GLU133      0.1160
     38  CD       -31.3780  171.6490   10.0320 C.2   133  GLU133      0.3649
     39  OE1      -30.8460  172.1240    9.0470 O.co2 133  GLU133     -0.2457
     40  OE2      -32.4000  171.0100    9.9620 O.co2 133  GLU133     -0.2457
     41  N        -27.5430  175.7180    9.3320 N.3   135  LYS135     -0.1245
     42  CA       -28.3680  176.8990    9.2750 C.3   135  LYS135      0.1561
     43  C        -28.8490  177.3070   10.6180 C.2   135  LYS135      0.2260
     44  O        -28.8360  176.5510   11.5580 O.2   135  LYS135     -0.2867
     45  CB       -29.5620  176.6680    8.3830 C.3   135  LYS135      0.0271
     46  CG       -29.4010  175.5750    7.3570 C.3   135  LYS135      0.0035
     47  CD       -30.1590  175.9630    6.1010 C.3   135  LYS135      0.0206
     48  CE       -30.5300  174.7850    5.2180 C.3   135  LYS135      0.1093
     49  NZ       -31.4580  175.2260    4.1360 N.3   135  LYS135     -0.1314
     50  N        -39.6020  176.0870   16.6210 N.3   140  PHE140     -0.1227
     51  CA       -40.5430  175.4600   15.6960 C.3   140  PHE140      0.1736
     52  C        -40.0660  175.3960   14.2470 C.2   140  PHE140      0.2595
     53  O        -40.0050  174.3290   13.6760 O.2   140  PHE140     -0.2718
     54  CB       -41.9470  176.1030   15.7890 C.3   140  PHE140      0.0547
     55  CG       -42.5120  176.1030   17.1810 C.ar  140  PHE140     -0.0202
     56  CD1      -43.0080  174.9420   17.7380 C.ar  140  PHE140     -0.0042
     57  CD2      -42.4990  177.2460   17.9460 C.ar  140  PHE140     -0.0042
     58  CE1      -43.4900  174.9120   19.0380 C.ar  140  PHE140     -0.0003
     59  CE2      -42.9830  177.2400   19.2440 C.ar  140  PHE140     -0.0003
     60  CZ       -43.4830  176.0660   19.7950 C.ar  140  PHE140     -0.0000
     61  N        -39.7450  176.5170   13.6350 N.am  141  LEU141     -0.1966
     62  CA       -39.5320  176.5210   12.1900 C.3   141  LEU141      0.1728
     63  C        -38.3970  175.6400   11.6510 C.2   141  LEU141      0.2616
     64  O        -38.5370  174.9230   10.6500 O.2   141  LEU141     -0.2715
     65  CB       -39.2510  177.9500   11.7510 C.3   141  LEU141      0.0311
     66  CG       -40.4250  178.9000   11.5990 C.3   141  LEU141      0.0022
     67  CD1      -40.0380  179.8930   10.5150 C.3   141  LEU141      0.0001
     68  CD2      -41.7000  178.1940   11.1760 C.3   141  LEU141      0.0001
     69  N        -37.2480  175.7800   12.3010 N.am  142  ARG142     -0.1963
     70  CA       -36.0850  174.9470   12.0270 C.3   142  ARG142      0.1729
     71  C        -35.3150  174.7020   13.3180 C.2   142  ARG142      0.2616
     72  O        -34.6070  175.5860   13.7940 O.2   142  ARG142     -0.2715
     73  CB       -35.2180  175.6120   10.9740 C.3   142  ARG142      0.0348
     74  CG       -33.7700  175.2290   11.0280 C.3   142  ARG142      0.0492
     75  CD       -33.0570  175.6580    9.7760 C.3   142  ARG142      0.2205
     76  NE       -33.3300  174.6870    8.7470 N.pl3 142  ARG142     -0.0865
     77  CZ       -34.0740  174.9200    7.6930 C.cat 142  ARG142      0.5346
     78  NH1      -34.6010  176.1400    7.5290 N.pl3 142  ARG142      0.1354
     79  NH2      -34.2640  173.9440    6.7970 N.pl3 142  ARG142      0.1354
     80  N        -35.4900  173.5060   13.8890 N.am  143  THR143     -0.1951
     81  CA       -34.7440  173.1290   15.0900 C.3   143  THR143      0.1897
     82  C        -33.9670  171.8860   14.8280 C.2   143  THR143      0.2313
     83  O        -34.1820  171.2200   13.8090 O.2   143  THR143     -0.2863
     84  CB       -35.6460  172.8540   16.2810 C.3   143  THR143      0.1794
     85  OG1      -36.6700  171.9530   15.8630 O.3   143  THR143     -0.2208
     86  CG2      -36.2420  174.1210   16.7530 C.3   143  THR143      0.0378
     87  N        -36.4540  167.6490   16.3030 N.3   146  PHE146     -0.1241
     88  CA       -37.8800  167.9800   16.1970 C.3   146  PHE146      0.1605
     89  C        -38.8330  166.7870   16.1890 C.2   146  PHE146      0.2264
     90  O        -38.4720  165.7240   15.7300 O.2   146  PHE146     -0.2867
     91  CB       -38.1240  168.8570   14.9720 C.3   146  PHE146      0.0534
     92  CG       -37.7080  168.2400   13.7010 C.ar  146  PHE146     -0.0203
     93  CD1      -36.3930  168.2050   13.3560 C.ar  146  PHE146     -0.0042
     94  CD2      -38.6490  167.7240   12.8290 C.ar  146  PHE146     -0.0042
     95  CE1      -36.0100  167.6510   12.1470 C.ar  146  PHE146     -0.0003
     96  CE2      -38.2880  167.1580   11.6160 C.ar  146  PHE146     -0.0003
     97  CZ       -36.9640  167.1300   11.2680 C.ar  146  PHE146     -0.0000
     98  N        -42.0190  165.0000   14.5360 N.3   148  TRP148     -0.1241
     99  CA       -42.7710  164.9870   13.3150 C.3   148  TRP148      0.1605
    100  C        -43.5720  163.7210   13.2580 C.2   148  TRP148      0.2264
    101  O        -43.6410  162.9550   14.2200 O.2   148  TRP148     -0.2867
    102  CB       -41.8850  165.1290   12.0760 C.3   148  TRP148      0.0550
    103  CG       -40.9730  163.9280   11.6600 C.ar  148  TRP148      0.0003
    104  CD1      -40.6210  162.8560   12.4230 C.ar  148  TRP148      0.0946
    105  CD2      -40.2380  163.7830   10.4240 C.ar  148  TRP148      0.0152
    106  NE1      -39.7640  162.0310   11.7280 N.ar  148  TRP148     -0.2442
    107  CE2      -39.5060  162.5870   10.5070 C.ar  148  TRP148      0.0810
    108  CE3      -40.1410  164.5450    9.2620 C.ar  148  TRP148      0.0012
    109  CZ2      -38.7100  162.1220    9.4640 C.ar  148  TRP148      0.0191
    110  CZ3      -39.3510  164.0840    8.2210 C.ar  148  TRP148      0.0001
    111  CH2      -38.6470  162.8830    8.3300 C.ar  148  TRP148      0.0015
    112  N        -37.5090  166.0870   -3.7800 N.3   195  PHE195     -0.1241
    113  CA       -36.7430  165.1180   -3.0320 C.3   195  PHE195      0.1605
    114  C        -35.9950  164.2330   -4.0080 C.2   195  PHE195      0.2264
    115  O        -36.5940  163.6720   -4.9540 O.2   195  PHE195     -0.2867
    116  CB       -37.6530  164.2870   -2.1430 C.3   195  PHE195      0.0534
    117  CG       -36.9370  163.2550   -1.3220 C.ar  195  PHE195     -0.0203
    118  CD1      -35.7230  163.5330   -0.7180 C.ar  195  PHE195     -0.0042
    119  CD2      -37.5040  162.0040   -1.1250 C.ar  195  PHE195     -0.0042
    120  CE1      -35.0890  162.5930    0.0550 C.ar  195  PHE195     -0.0003
    121  CE2      -36.8710  161.0590   -0.3480 C.ar  195  PHE195     -0.0003
    122  CZ       -35.6610  161.3560    0.2420 C.ar  195  PHE195     -0.0000
    123  N        -41.9070  176.0300    3.0820 N.3   216  GLN216     -0.1231
    124  CA       -42.4770  174.6860    2.8780 C.3   216  GLN216      0.1698
    125  C        -43.0530  174.1550    4.1940 C.2   216  GLN216      0.2592
    126  O        -42.3290  174.0360    5.2030 O.2   216  GLN216     -0.2718
    127  CB       -41.4180  173.7170    2.3430 C.3   216  GLN216      0.0381
    128  CG       -41.9510  172.3250    2.0690 C.3   216  GLN216      0.0905
    129  CD       -41.0510  171.5120    1.1590 C.2   216  GLN216      0.2608
    130  OE1      -41.4840  171.0550    0.1030 O.2   216  GLN216     -0.2717
    131  NE2      -39.7990  171.3110    1.5680 N.am  216  GLN216     -0.0878
    132  N        -44.3460  173.8290    4.1640 N.am  217  ALA217     -0.1966
    133  CA       -45.1000  173.4960    5.3820 C.3   217  ALA217      0.1728
    134  C        -45.2690  171.9840    5.5980 C.2   217  ALA217      0.2616
    135  O        -45.3220  171.5100    6.7560 O.2   217  ALA217     -0.2715
    136  CB       -46.4570  174.1540    5.3180 C.3   217  ALA217      0.0334
    137  N        -45.3650  171.2500    4.4790 N.am  218  ALA218     -0.1963
    138  CA       -45.3600  169.7920    4.5010 C.3   218  ALA218      0.1728
    139  C        -45.0270  169.1950    3.1310 C.2   218  ALA218      0.2616
    140  O        -45.1820  169.8680    2.1240 O.2   218  ALA218     -0.2715
    141  CB       -46.7020  169.2870    4.9900 C.3   218  ALA218      0.0334
    142  N        -44.5770  167.9330    3.1010 N.am  219  THR219     -0.1951
    143  CA       -44.2130  167.2610    1.8400 C.3   219  THR219      0.1897
    144  C        -44.8790  165.9200    1.6600 C.2   219  THR219      0.2313
    145  O        -45.2020  165.2340    2.6180 O.2   219  THR219     -0.2863
    146  CB       -42.7030  166.9960    1.7630 C.3   219  THR219      0.1794
    147  OG1      -42.2340  166.6380    3.0650 O.3   219  THR219     -0.2208
    148  CG2      -41.9680  168.2260    1.3200 C.3   219  THR219      0.0378
    149  N        -44.2050  162.8460   -1.1440 N.3   221  HIS221     -0.1241
    150  CA       -43.4570  162.3980   -2.3170 C.3   221  HIS221      0.1621
    151  C        -44.0050  161.1270   -2.9080 C.2   221  HIS221      0.2264
    152  O        -44.3630  160.2090   -2.1750 O.2   221  HIS221     -0.2867
    153  CB       -42.0160  162.1100   -1.9700 C.3   221  HIS221      0.0745
    154  CG       -41.4240  163.0860   -1.0320 C.ar  221  HIS221      0.0817
    155  ND1      -41.0870  164.3570   -1.4160 N.ar  221  HIS221     -0.2268
    156  CD2      -41.1060  162.9860    0.2770 C.ar  221  HIS221      0.1154
    157  CE1      -40.5950  165.0110   -0.3780 C.ar  221  HIS221      0.1986
    158  NE2      -40.5890  164.1970    0.6610 N.ar  221  HIS221     -0.2212
    159  N        -44.3770  163.8500    5.1530 N.3   251  GLY251     -0.1210
    160  CA       -43.9920  164.3020    6.4740 C.3   251  GLY251      0.1956
    161  C        -44.3120  165.7520    6.7460 C.2   251  GLY251      0.2612
    162  O        -44.3480  166.5770    5.8090 O.2   251  GLY251     -0.2717
    163  N        -44.5090  166.0510    8.0370 N.am  252  CYS252     -0.1956
    164  CA       -44.9040  167.3770    8.5160 C.3   252  CYS252      0.1843
    165  C        -44.5310  167.5290   10.0130 C.2   252  CYS252      0.2626
    166  O        -44.7570  166.6300   10.7990 O.2   252  CYS252     -0.2714
    167  CB       -46.4120  167.5930    8.2660 C.3   252  CYS252      0.0997
    168  SG       -47.1170  169.1090    8.9740 S.3   252  CYS252     -0.0797
    169  N        -43.9530  168.6640   10.4000 N.am  253  THR253     -0.1950
    170  CA       -43.3030  168.7680   11.7170 C.3   253  THR253      0.1897
    171  C        -43.9760  169.7820   12.6270 C.2   253  THR253      0.2313
    172  O        -45.0110  170.3310   12.2890 O.2   253  THR253     -0.2863
    173  CB       -41.8200  169.1770   11.5820 C.3   253  THR253      0.1794
    174  OG1      -41.7220  170.5860   11.3470 O.3   253  THR253     -0.2208
    175  CG2      -41.1430  168.4480   10.4240 C.3   253  THR253      0.0378
    176  N        -42.8620  172.5760   12.8310 N.3   255  ARG255     -0.1245
    177  CA       -42.7430  173.8360   12.0940 C.3   255  ARG255      0.1563
    178  C        -44.1230  174.4810   11.9090 C.2   255  ARG255      0.2260
    179  O        -44.2750  175.7070   11.9740 O.2   255  ARG255     -0.2867
    180  CB       -42.0800  173.5870   10.7400 C.3   255  ARG255      0.0307
    181  CG       -42.4670  174.5860    9.6800 C.3   255  ARG255      0.0489
    182  CD       -41.7520  174.3700    8.3660 C.3   255  ARG255      0.2205
    183  NE       -40.3190  174.5560    8.5110 N.pl3 255  ARG255     -0.0865
    184  CZ       -39.4580  174.5750    7.5040 C.cat 255  ARG255      0.5346
    185  NH1      -39.8910  174.4660    6.2450 N.pl3 255  ARG255      0.1354
    186  NH2      -38.1600  174.6980    7.7630 N.pl3 255  ARG255      0.1354
@<TRIPOS>BOND
     1   115   114    2
     2   114   113    1
     3   112   113    1
     4   113   116    1
     5   151   150    1
     6   151   152    2
     7   150   153    1
     8   150   149    1
     9   116   117    1
    10   153   154    1
    11   155   154   ar
    12   155   157   ar
    13   117   119   ar
    14   117   118   ar
    15   119   121   ar
    16   154   156   ar
    17   118   120   ar
    18   157   158   ar
    19   121   122   ar
    20   120   122   ar
    21   130   129    2
    22   156   158   ar
    23   129   131   am
    24   129   128    1
    25   148   146    1
    26   144   143    1
    27   144   145    2
    28   146   143    1
    29   146   147    1
    30   143   142    1
    31   128   127    1
    32   140   139    2
    33   127   124    1
    34    10    11   ar
    35    10     8   ar
    36    11     9   ar
    37     8     6   ar
    38   124   123    1
    39   124   125    1
    40   142   139   am
    41   139   138    1
    42     9     7   ar
    43     6     7   ar
    44     6     5    1
    45     5     2    1
    46     1     2    1
    47    49    48    1
    48   132   125   am
    49   132   133    1
    50   125   126    2
    51   137   138    1
    52   137   134   am
    53   138   141    1
    54     2     3    1
    55   159   160    1
    56    48    47    1
    57   136   133    1
    58   133   134    1
    59   134   135    2
    60   162   161    2
    61     3     4    2
    62    47    46    1
    63   185   184    1
    64   160   161    1
    65   161   163   am
    66    79    77    1
    67    19    18   ar
    68    30    29    1
    69    46    45    1
    70   184   186    1
    71   184   183    2
    72    78    77    1
    73    20    18   ar
    74    31    29    1
    75    77    76    2
    76    18    17    1
    77    29    28    2
    78   163   164    1
    79   110   111   ar
    80   110   108   ar
    81   167   164    1
    82   167   168    1
    83   111   109   ar
    84   182   183    1
    85   182   181    1
    86    45    42    1
    87   164   165    1
    88    76    75    1
    89    16    17    1
    90    16    13    1
    91    39    38   ar
    92    28    27    1
    93    12    13    1
    94   108   105   ar
    95    42    41    1
    96    42    43    1
    97   109   107   ar
    98    27    26    1
    99   181   180    1
   100    75    74    1
   101    13    14    1
   102    40    38   ar
   103   165   169   am
   104   165   166    2
   105    38    37    1
   106   169   170    1
   107   175   173    1
   108   105   107   ar
   109   105   103   ar
   110   107   106   ar
   111    67    66    1
   112    43    44    2
   113    64    63    2
   114    26    25    1
   115   180   177    1
   116    14    15    2
   117    73    74    1
   118    73    70    1
   119    68    66    1
   120    25    22    1
   121    34    33    1
   122    34    35    2
   123    97    96   ar
   124    97    95   ar
   125    33    36    1
   126    33    32    1
   127    36    37    1
   128   174   173    1
   129   173   170    1
   130    66    65    1
   131    96    94   ar
   132    63    62    1
   133    63    69   am
   134   103   102    1
   135   103   104   ar
   136   170   171    1
   137   106   104   ar
   138    65    62    1
   139   178   179    2
   140   178   177    1
   141    70    69    1
   142    70    71    1
   143   102    99    1
   144   177   176    1
   145    95    93   ar
   146    62    61    1
   147   172   171    2
   148    22    23    1
   149    22    21    1
   150    23    24    2
   151    94    92   ar
   152   100    99    1
   153   100   101    2
   154    99    98    1
   155    71    72    2
   156    71    80   am
   157    93    92   ar
   158    61    52   am
   159    53    52    2
   160    92    91    1
   161    83    82    2
   162    80    81    1
   163    52    51    1
   164    82    81    1
   165    91    88    1
   166    81    84    1
   167    51    54    1
   168    51    50    1
   169    90    89    2
   170    54    55    1
   171    85    84    1
   172    89    88    1
   173    88    87    1
   174    84    86    1
   175    55    56   ar
   176    55    57   ar
   177    56    58   ar
   178    57    59   ar
   179    58    60   ar
   180    59    60   ar
