@<TRIPOS>MOLECULE
tmp/5xj1A00.pdb
 130 127 0 0 0
SMALL
GASTEIGER

@<TRIPOS>ATOM
      1  N         -6.2980  -15.1640   14.3680 N.3    79  GLY79      -0.1210
      2  CA        -6.3850  -15.0430   12.9320 C.3    79  GLY79       0.1956
      3  C         -5.0460  -14.8520   12.2750 C.2    79  GLY79       0.2611
      4  O         -4.9930  -14.3820   11.1310 O.2    79  GLY79      -0.2717
      5  N         -3.9620  -15.1480   13.0000 N.am   80  ILE80      -0.1979
      6  CA        -2.6250  -15.0990   12.4190 C.3    80  ILE80       0.1595
      7  C         -2.4610  -16.2130   11.3870 C.2    80  ILE80       0.2287
      8  O         -1.8770  -16.0020   10.3170 O.2    80  ILE80      -0.2864
      9  CB        -1.5640  -15.1530   13.5400 C.3    80  ILE80       0.0276
     10  CG1       -1.4790  -13.8010   14.2680 C.3    80  ILE80       0.0022
     11  CG2       -0.1630  -15.5200   13.0130 C.3    80  ILE80       0.0022
     12  CD1       -0.6090  -13.8410   15.5240 C.3    80  ILE80       0.0001
     13  N          7.3590  -13.4100    7.9140 N.3   127  ARG127     -0.1245
     14  CA         7.0840  -11.9840    7.7400 C.3   127  ARG127      0.1563
     15  C          8.2880  -11.1300    8.0980 C.2   127  ARG127      0.2260
     16  O          8.9360  -11.3320    9.1270 O.2   127  ARG127     -0.2867
     17  CB         5.8840  -11.5360    8.5810 C.3   127  ARG127      0.0307
     18  CG         4.5590  -12.0220    8.0550 C.3   127  ARG127      0.0489
     19  CD         3.4120  -11.2220    8.6970 C.3   127  ARG127      0.2205
     20  NE         2.1520  -11.5730    8.0520 N.pl3 127  ARG127     -0.0865
     21  CZ         1.1740  -10.7200    7.7910 C.cat 127  ARG127      0.5346
     22  NH1        1.2900   -9.4330    8.1230 N.pl3 127  ARG127      0.1354
     23  NH2        0.0730  -11.1680    7.1980 N.pl3 127  ARG127      0.1354
     24  N          7.9870   -7.8720    8.5980 N.3   129  LYS129     -0.1231
     25  CA         7.4740   -6.6900    9.2640 C.3   129  LYS129      0.1693
     26  C          6.4630   -7.1590   10.2810 C.2   129  LYS129      0.2592
     27  O          5.5680   -7.9470    9.9580 O.2   129  LYS129     -0.2718
     28  CB         6.8160   -5.7100    8.2900 C.3   129  LYS129      0.0285
     29  CG         6.3660   -4.4070    8.9810 C.3   129  LYS129      0.0035
     30  CD         5.4690   -3.5510    8.0900 C.3   129  LYS129      0.0206
     31  CE         4.0680   -4.1070    8.0220 C.3   129  LYS129      0.1093
     32  NZ         3.1570   -3.2080    7.2640 N.3   129  LYS129     -0.1314
     33  N          6.6340   -6.6860   11.5010 N.am  130  ALA130     -0.1966
     34  CA         5.6620   -6.8570   12.5580 C.3   130  ALA130      0.1728
     35  C          4.9380   -5.5400   12.7380 C.2   130  ALA130      0.2616
     36  O          5.5430   -4.4730   12.6470 O.2   130  ALA130     -0.2715
     37  CB         6.3370   -7.2640   13.8750 C.3   130  ALA130      0.0334
     38  N          3.6350   -5.6170   12.9540 N.am  131  GLN131     -0.1963
     39  CA         2.8710   -4.4920   13.4740 C.3   131  GLN131      0.1733
     40  C          2.1380   -5.0840   14.6520 C.2   131  GLN131      0.2616
     41  O          1.2590   -5.9310   14.4640 O.2   131  GLN131     -0.2715
     42  CB         1.8940   -3.9250   12.4400 C.3   131  GLN131      0.0408
     43  CG         0.9580   -2.8270   12.9850 C.3   131  GLN131      0.0908
     44  CD        -0.2520   -3.3820   13.7360 C.2   131  GLN131      0.2608
     45  OE1       -0.3800   -3.2060   14.9450 O.2   131  GLN131     -0.2717
     46  NE2       -1.1300   -4.0680   13.0190 N.am  131  GLN131     -0.0878
     47  N          2.5040   -4.6840   15.8640 N.am  132  VAL132     -0.1977
     48  CA         1.9280   -5.2560   17.0690 C.3   132  VAL132      0.1596
     49  C          1.3490   -4.1200   17.8950 C.2   132  VAL132      0.2287
     50  O          1.9960   -3.0850   18.0560 O.2   132  VAL132     -0.2864
     51  CB         2.9280   -6.0800   17.8990 C.3   132  VAL132      0.0276
     52  CG1        3.5030   -7.1770   17.0390 C.3   132  VAL132      0.0022
     53  CG2        4.0220   -5.2150   18.5090 C.3   132  VAL132      0.0022
     54  N         -1.0820   -9.8130   19.6340 N.3   145  PHE145     -0.1241
     55  CA        -1.9890   -9.5640   18.5180 C.3   145  PHE145      0.1605
     56  C         -3.4400   -9.6600   18.9740 C.2   145  PHE145      0.2264
     57  O         -3.7730  -10.4370   19.8730 O.2   145  PHE145     -0.2867
     58  CB        -1.7410  -10.5450   17.3760 C.3   145  PHE145      0.0534
     59  CG        -2.0590   -9.9740   16.0380 C.ar  145  PHE145     -0.0203
     60  CD1       -1.2470   -8.9880   15.4880 C.ar  145  PHE145     -0.0042
     61  CD2       -3.1810  -10.3900   15.3340 C.ar  145  PHE145     -0.0042
     62  CE1       -1.5470   -8.4340   14.2480 C.ar  145  PHE145     -0.0003
     63  CE2       -3.4780   -9.8450   14.0920 C.ar  145  PHE145     -0.0003
     64  CZ        -2.6600   -8.8590   13.5520 C.ar  145  PHE145     -0.0000
     65  N          5.4010  -15.3200   17.0930 N.3   159  PHE159     -0.1241
     66  CA         4.2950  -15.0180   16.1900 C.3   159  PHE159      0.1605
     67  C          4.1340  -16.0310   15.0520 C.2   159  PHE159      0.2264
     68  O          3.3260  -15.7950   14.1420 O.2   159  PHE159     -0.2867
     69  CB         4.4650  -13.6080   15.6320 C.3   159  PHE159      0.0534
     70  CG         4.0810  -12.5220   16.6110 C.ar  159  PHE159     -0.0203
     71  CD1        2.7800  -12.0660   16.6730 C.ar  159  PHE159     -0.0042
     72  CD2        5.0250  -11.9630   17.4720 C.ar  159  PHE159     -0.0042
     73  CE1        2.4180  -11.0670   17.5580 C.ar  159  PHE159     -0.0003
     74  CE2        4.6630  -10.9700   18.3810 C.ar  159  PHE159     -0.0003
     75  CZ         3.3650  -10.5190   18.4170 C.ar  159  PHE159     -0.0000
     76  N          4.5260  -16.9610   12.1330 N.3   161  ILE161     -0.1231
     77  CA         4.7490  -16.6860   10.7110 C.3   161  ILE161      0.1692
     78  C          5.6050  -15.4370   10.5420 C.2   161  ILE161      0.2591
     79  O          5.5730  -14.7850    9.4910 O.2   161  ILE161     -0.2718
     80  CB         3.4190  -16.5690    9.9220 C.3   161  ILE161      0.0266
     81  CG1        2.3580  -15.7250   10.6380 C.3   161  ILE161      0.0019
     82  CG2        2.8170  -17.9630    9.6560 C.3   161  ILE161      0.0020
     83  CD1        2.6640  -14.2230   10.7720 C.3   161  ILE161      0.0001
     84  N          6.3940  -15.1100   11.5620 N.am  162  GLN162     -0.1979
     85  CA         7.2120  -13.9050   11.5810 C.3   162  GLN162      0.1601
     86  C          8.6910  -14.2350   11.7830 C.2   162  GLN162      0.2287
     87  O          9.0390  -15.2110   12.4500 O.2   162  GLN162     -0.2864
     88  CB         6.7430  -13.0090   12.7080 C.3   162  GLN162      0.0394
     89  CG         7.2510  -11.6180   12.6810 C.3   162  GLN162      0.0908
     90  CD         6.3320  -10.7600   13.4910 C.2   162  GLN162      0.2608
     91  OE1        6.5190  -10.6120   14.6940 O.2   162  GLN162     -0.2717
     92  NE2        5.2850  -10.2470   12.8530 N.am  162  GLN162     -0.0878
     93  N          0.7850  -15.7690    1.4300 N.3   436  PHE436     -0.1241
     94  CA         0.6370  -15.6990    2.8770 C.3   436  PHE436      0.1605
     95  C          0.3350  -17.1060    3.3870 C.2   436  PHE436      0.2264
     96  O         -0.8120  -17.4220    3.7330 O.2   436  PHE436     -0.2867
     97  CB        -0.4530  -14.7060    3.2760 C.3   436  PHE436      0.0534
     98  CG        -0.1120  -13.2760    2.9530 C.ar  436  PHE436     -0.0203
     99  CD1        0.6240  -12.5150    3.8450 C.ar  436  PHE436     -0.0042
    100  CD2       -0.5270  -12.6970    1.7620 C.ar  436  PHE436     -0.0042
    101  CE1        0.9430  -11.1900    3.5560 C.ar  436  PHE436     -0.0003
    102  CE2       -0.2080  -11.3740    1.4650 C.ar  436  PHE436     -0.0003
    103  CZ         0.5240  -10.6250    2.3700 C.ar  436  PHE436     -0.0000
    104  N         -2.4250  -18.8160    6.1060 N.3   439  THR439     -0.1203
    105  CA        -3.6010  -17.9490    6.1240 C.3   439  THR439      0.1994
    106  C         -4.5910  -18.3250    5.0050 C.2   439  THR439      0.2618
    107  O         -4.3050  -19.1480    4.1340 O.2   439  THR439     -0.2717
    108  CB        -3.1910  -16.4710    5.9820 C.3   439  THR439      0.1784
    109  OG1       -2.9720  -16.1670    4.5980 O.3   439  THR439     -0.2211
    110  CG2       -1.8980  -16.1520    6.7750 C.3   439  THR439      0.0376
    111  N         -5.7650  -17.6670    5.0220 N.am  440  HIS440     -0.1961
    112  CA        -6.8270  -17.8340    4.0220 C.3   440  HIS440      0.1787
    113  C         -6.4890  -17.2130    2.6710 C.2   440  HIS440      0.2620
    114  O         -7.1810  -17.4940    1.6820 O.2   440  HIS440     -0.2715
    115  CB        -8.1110  -17.1560    4.5120 C.3   440  HIS440      0.0785
    116  CG        -7.9530  -15.6770    4.6600 C.ar  440  HIS440      0.0821
    117  ND1       -7.3330  -15.1060    5.7510 N.ar  440  HIS440     -0.2267
    118  CD2       -8.2490  -14.6570    3.8180 C.ar  440  HIS440      0.1154
    119  CE1       -7.2890  -13.7940    5.5910 C.ar  440  HIS440      0.1986
    120  NE2       -7.8370  -13.4960    4.4270 N.ar  440  HIS440     -0.2212
    121  N         -5.4900  -16.3490    2.6240 N.am  441  HIS441     -0.1973
    122  CA        -5.2690  -15.4680    1.4880 C.3   441  HIS441      0.1656
    123  C         -4.9410  -16.2790    0.2430 C.2   441  HIS441      0.2291
    124  O         -4.1180  -17.1940    0.2960 O.2   441  HIS441     -0.2864
    125  CB        -4.1310  -14.5140    1.8370 C.3   441  HIS441      0.0771
    126  CG        -3.7930  -13.5300    0.7610 C.ar  441  HIS441      0.0820
    127  ND1       -4.0940  -12.1890    0.8600 N.ar  441  HIS441     -0.2267
    128  CD2       -3.1480  -13.6850   -0.4180 C.ar  441  HIS441      0.1154
    129  CE1       -3.6670  -11.5650   -0.2230 C.ar  441  HIS441      0.1986
    130  NE2       -3.0930  -12.4510   -1.0150 N.ar  441  HIS441     -0.2212
@<TRIPOS>BOND
     1   130   128   ar
     2   130   129   ar
     3   128   126   ar
     4   129   127   ar
     5   123   124    2
     6   123   122    1
     7   126   127   ar
     8   126   125    1
     9    93    94    1
    10   102   100   ar
    11   102   103   ar
    12   122   125    1
    13   122   121    1
    14   114   113    2
    15   100    98   ar
    16   103   101   ar
    17   121   113   am
    18   113   112    1
    19    94    97    1
    20    94    95    1
    21    98    97    1
    22    98    99   ar
    23    95    96    2
    24   101    99   ar
    25   118   120   ar
    26   118   116   ar
    27   112   115    1
    28   112   111    1
    29   107   106    2
    30   120   119   ar
    31   115   116    1
    32   109   108    1
    33   116   117   ar
    34   106   111   am
    35   106   105    1
    36   119   117   ar
    37   108   105    1
    38   108   110    1
    39   104   105    1
    40    23    21    1
    41    32    31    1
    42    14    13    1
    43    14    15    1
    44    14    17    1
    45    21    20    2
    46    21    22    1
    47    31    30    1
    48    20    19    1
    49    18    17    1
    50    18    19    1
    51    30    29    1
    52    15    16    2
    53    28    29    1
    54    28    25    1
    55    24    25    1
    56    25    26    1
    57    79    78    2
    58    82    80    1
    59    80    81    1
    60    80    77    1
    61    27    26    2
    62    26    33   am
    63     8     7    2
    64    78    77    1
    65    78    84   am
    66    81    83    1
    67    77    76    1
    68     4     3    2
    69     7     6    1
    70    33    34    1
    71    84    85    1
    72    85    86    1
    73    85    88    1
    74    86    87    2
    75     3     2    1
    76     3     5   am
    77     6     5    1
    78     6     9    1
    79    42    43    1
    80    42    39    1
    81    34    35    1
    82    34    37    1
    83    36    35    2
    84    89    88    1
    85    89    90    1
    86    35    38   am
    87    92    90   am
    88     2     1    1
    89    38    39    1
    90    43    44    1
    91    11     9    1
    92    46    44   am
    93    39    40    1
    94    90    91    2
    95     9    10    1
    96    64    63   ar
    97    64    62   ar
    98    44    45    2
    99    63    61   ar
   100    68    67    2
   101    62    60   ar
   102    10    12    1
   103    41    40    2
   104    40    47   am
   105    67    66    1
   106    61    59   ar
   107    60    59   ar
   108    69    66    1
   109    69    70    1
   110    47    48    1
   111    59    58    1
   112    66    65    1
   113    70    71   ar
   114    70    72   ar
   115    71    73   ar
   116    52    51    1
   117    48    49    1
   118    48    51    1
   119    58    55    1
   120    72    74   ar
   121    73    75   ar
   122    49    50    2
   123    51    53    1
   124    74    75   ar
   125    55    56    1
   126    55    54    1
   127    56    57    2
