@<TRIPOS>MOLECULE
tmp/5xj1A01.pdb
 107 104 0 0 0
SMALL
GASTEIGER

@<TRIPOS>ATOM
      1  N          4.5160    0.6150    1.5530 N.3   281  PHE281     -0.1241
      2  CA         4.0240   -0.7430    1.3680 C.3   281  PHE281      0.1605
      3  C          5.1140   -1.5870    0.7350 C.2   281  PHE281      0.2264
      4  O          5.6590   -1.2380   -0.3210 O.2   281  PHE281     -0.2867
      5  CB         2.7700   -0.8530    0.5050 C.3   281  PHE281      0.0534
      6  CG         2.3990   -2.2840    0.2490 C.ar  281  PHE281     -0.0203
      7  CD1        1.7950   -3.0410    1.2500 C.ar  281  PHE281     -0.0042
      8  CD2        2.7560   -2.9080   -0.9340 C.ar  281  PHE281     -0.0042
      9  CE1        1.4890   -4.3770    1.0380 C.ar  281  PHE281     -0.0003
     10  CE2        2.4620   -4.2470   -1.1440 C.ar  281  PHE281     -0.0003
     11  CZ         1.8260   -4.9770   -0.1640 C.ar  281  PHE281     -0.0000
     12  N          5.9390   -5.9360    0.3480 N.3   283  GLN283     -0.1245
     13  CA         5.4500   -7.2850    0.6460 C.3   283  GLN283      0.1566
     14  C          6.1790   -7.8640    1.8520 C.2   283  GLN283      0.2260
     15  O          7.4130   -7.8210    1.9330 O.2   283  GLN283     -0.2867
     16  CB         5.6190   -8.2130   -0.5660 C.3   283  GLN283      0.0367
     17  CG         4.5760   -8.0360   -1.7050 C.3   283  GLN283      0.0905
     18  CD         3.1440   -8.3570   -1.2930 C.2   283  GLN283      0.2608
     19  OE1        2.8910   -8.8910   -0.2130 O.2   283  GLN283     -0.2717
     20  NE2        2.1900   -8.0200   -2.1620 N.am  283  GLN283     -0.0878
     21  N         -0.2000    1.1910  -10.9250 N.3   312  TYR312     -0.1241
     22  CA        -0.1720    1.2840   -9.4570 C.3   312  TYR312      0.1605
     23  C          1.1640    0.7540   -8.9080 C.2   312  TYR312      0.2264
     24  O          1.2460   -0.2800   -8.2440 O.2   312  TYR312     -0.2867
     25  CB        -1.3780    0.5440   -8.8500 C.3   312  TYR312      0.0534
     26  CG        -2.6840    0.8640   -9.5420 C.ar  312  TYR312     -0.0201
     27  CD1       -3.0810    2.1730   -9.7290 C.ar  312  TYR312     -0.0009
     28  CD2       -3.5090   -0.1510  -10.0320 C.ar  312  TYR312     -0.0009
     29  CE1       -4.2620    2.4830  -10.3690 C.ar  312  TYR312      0.0417
     30  CE2       -4.6990    0.1500  -10.6850 C.ar  312  TYR312      0.0417
     31  CZ        -5.0680    1.4700  -10.8490 C.ar  312  TYR312      0.1957
     32  OH        -6.2420    1.8060  -11.4880 O.3   312  TYR312     -0.2866
     33  N          1.4530    5.8460  -10.2400 N.3   333  GLU333     -0.1245
     34  CA         1.2010    5.6550   -8.8290 C.3   333  GLU333      0.1567
     35  C          0.5100    6.9110   -8.3200 C.2   333  GLU333      0.2260
     36  O          0.8950    8.0280   -8.6730 O.2   333  GLU333     -0.2867
     37  CB         2.5210    5.3450   -8.1050 C.3   333  GLU333      0.0388
     38  CG         2.4940    5.4520   -6.6140 C.3   333  GLU333      0.1160
     39  CD         1.3870    4.6460   -5.9810 C.2   333  GLU333      0.3649
     40  OE1        1.2010    3.4540   -6.3390 O.co2 333  GLU333     -0.2457
     41  OE2        0.6940    5.2180   -5.1110 O.co2 333  GLU333     -0.2457
     42  N         -1.4950   -4.9850  -10.2030 N.3   381  ASP381     -0.1225
     43  CA        -1.7910   -5.7030   -8.9680 C.3   381  ASP381      0.1790
     44  C         -2.8640   -4.8750   -8.2730 C.2   381  ASP381      0.2440
     45  O         -2.5620   -4.0290   -7.4200 O.2   381  ASP381     -0.2733
     46  CB        -0.5380   -5.9460   -8.1190 C.3   381  ASP381      0.1423
     47  CG         0.1360   -4.6630   -7.6420 C.2   381  ASP381      0.3668
     48  OD1        0.2760   -3.7040   -8.4280 O.co2 381  ASP381     -0.2456
     49  OD2        0.5120   -4.6210   -6.4510 O.co2 381  ASP381     -0.2456
     50  N         -4.1270   -5.0750   -8.6420 N.am  382  PRO382     -0.2718
     51  CA        -5.2020   -4.2460   -8.1190 C.3   382  PRO382      0.1520
     52  C         -5.3680   -4.4550   -6.6290 C.2   382  PRO382      0.2440
     53  O         -4.9450   -5.4860   -6.0820 O.2   382  PRO382     -0.2731
     54  CB        -6.4450   -4.7540   -8.8720 C.3   382  PRO382      0.0310
     55  CG        -5.9400   -5.5960   -9.9620 C.3   382  PRO382      0.0237
     56  CD        -4.6260   -6.1130   -9.5530 C.3   382  PRO382      0.0939
     57  N         -6.0070   -3.5200   -5.9430 N.am  383  PRO383     -0.2727
     58  CA        -6.4570   -3.8130   -4.5830 C.3   383  PRO383      0.1402
     59  C         -7.5150   -4.8930   -4.6130 C.2   383  PRO383      0.2269
     60  O         -7.9450   -5.3340   -5.6830 O.2   383  PRO383     -0.2865
     61  CB        -7.0110   -2.4680   -4.0900 C.3   383  PRO383      0.0296
     62  CG        -7.4040   -1.7480   -5.3190 C.3   383  PRO383      0.0237
     63  CD        -6.4070   -2.1720   -6.3810 C.3   383  PRO383      0.0939
     64  N         -5.2040  -10.2630   -5.4990 N.3   408  CYS408     -0.1235
     65  CA        -5.3180  -10.7090   -4.1190 C.3   408  CYS408      0.1677
     66  C         -6.7560  -11.0770   -3.7810 C.2   408  CYS408      0.2270
     67  O         -7.0840  -11.2650   -2.6040 O.2   408  CYS408     -0.2867
     68  CB        -4.7750   -9.6300   -3.1690 C.3   408  CYS408      0.0956
     69  SG        -5.5040   -7.9720   -3.3450 S.3   408  CYS408     -0.0801
     70  N          1.1180  -16.6250   -1.1690 N.3   435  LEU435     -0.1231
     71  CA         1.8910  -15.4740   -0.7230 C.3   435  LEU435      0.1693
     72  C          1.8680  -15.3350    0.7940 C.2   435  LEU435      0.2592
     73  O          2.8260  -14.8270    1.3940 O.2   435  LEU435     -0.2718
     74  CB         1.3390  -14.2110   -1.3900 C.3   435  LEU435      0.0284
     75  CG         2.0570  -12.8800   -1.2160 C.3   435  LEU435      0.0019
     76  CD1        3.4810  -12.9880   -1.7120 C.3   435  LEU435      0.0001
     77  CD2        1.2810  -11.7870   -1.9720 C.3   435  LEU435      0.0001
     78  N          0.7850  -15.7690    1.4300 N.am  436  PHE436     -0.1976
     79  CA         0.6370  -15.6990    2.8770 C.3   436  PHE436      0.1639
     80  C          0.3350  -17.1060    3.3870 C.2   436  PHE436      0.2290
     81  O         -0.8120  -17.4220    3.7330 O.2   436  PHE436     -0.2864
     82  CB        -0.4530  -14.7060    3.2760 C.3   436  PHE436      0.0560
     83  CG        -0.1120  -13.2760    2.9530 C.ar  436  PHE436     -0.0200
     84  CD1        0.6240  -12.5150    3.8450 C.ar  436  PHE436     -0.0042
     85  CD2       -0.5270  -12.6970    1.7620 C.ar  436  PHE436     -0.0042
     86  CE1        0.9430  -11.1900    3.5560 C.ar  436  PHE436     -0.0003
     87  CE2       -0.2080  -11.3740    1.4650 C.ar  436  PHE436     -0.0003
     88  CZ         0.5240  -10.6250    2.3700 C.ar  436  PHE436     -0.0000
     89  N         -5.4900  -16.3490    2.6240 N.3   441  HIS441     -0.1241
     90  CA        -5.2690  -15.4680    1.4880 C.3   441  HIS441      0.1621
     91  C         -4.9410  -16.2790    0.2430 C.2   441  HIS441      0.2264
     92  O         -4.1180  -17.1940    0.2960 O.2   441  HIS441     -0.2867
     93  CB        -4.1310  -14.5140    1.8370 C.3   441  HIS441      0.0745
     94  CG        -3.7930  -13.5300    0.7610 C.ar  441  HIS441      0.0817
     95  ND1       -4.0940  -12.1890    0.8600 N.ar  441  HIS441     -0.2268
     96  CD2       -3.1480  -13.6850   -0.4180 C.ar  441  HIS441      0.1154
     97  CE1       -3.6670  -11.5650   -0.2230 C.ar  441  HIS441      0.1986
     98  NE2       -3.0930  -12.4510   -1.0150 N.ar  441  HIS441     -0.2212
     99  N         -3.5930  -15.5880   -3.5390 N.3   443  GLU443     -0.1245
    100  CA        -3.0320  -14.6760   -4.5180 C.3   443  GLU443      0.1567
    101  C         -3.0260  -15.4010   -5.8540 C.2   443  GLU443      0.2260
    102  O         -2.7930  -16.6090   -5.9010 O.2   443  GLU443     -0.2867
    103  CB        -1.6220  -14.2540   -4.1130 C.3   443  GLU443      0.0388
    104  CG        -1.0380  -13.1600   -4.9520 C.3   443  GLU443      0.1160
    105  CD        -1.4030  -11.7800   -4.4910 C.2   443  GLU443      0.3649
    106  OE1       -2.0720  -11.6310   -3.4440 O.co2 443  GLU443     -0.2457
    107  OE2       -1.0050  -10.8320   -5.1940 O.co2 443  GLU443     -0.2457
@<TRIPOS>BOND
     1    32    31    1
     2    21    22    1
     3    31    30   ar
     4    31    29   ar
     5    30    28   ar
     6    29    27   ar
     7    33    34    1
     8    42    43    1
     9    28    26   ar
    10    55    56    1
    11    55    54    1
    12    27    26   ar
    13    56    50    1
    14    26    25    1
    15    22    23    1
    16    22    25    1
    17    43    44    1
    18    43    46    1
    19    23    24    2
    20    54    51    1
    21    34    35    1
    22    34    37    1
    23    36    35    2
    24    50    44   am
    25    50    51    1
    26    48    47   ar
    27    44    45    2
    28    51    52    1
    29    46    47    1
    30    37    38    1
    31    47    49   ar
    32    52    53    2
    33    52    57   am
    34    38    39    1
    35    63    57    1
    36    63    62    1
    37    40    39   ar
    38    39    41   ar
    39    57    58    1
    40   102   101    2
    41   101   100    1
    42    60    59    2
    43    64    65    1
    44    62    61    1
    45   107   105   ar
    46   104   105    1
    47   104   103    1
    48    59    58    1
    49    58    61    1
    50   100   103    1
    51   100    99    1
    52   105   106   ar
    53    65    66    1
    54    65    68    1
    55    66    67    2
    56    69    68    1
    57    20    18   am
    58    77    75    1
    59    76    75    1
    60    17    18    1
    61    17    16    1
    62    74    75    1
    63    74    71    1
    64    18    19    2
    65    70    71    1
    66    10     8   ar
    67    10    11   ar
    68    98    96   ar
    69    98    97   ar
    70     8     6   ar
    71    71    72    1
    72    16    13    1
    73    96    94   ar
    74     4     3    2
    75    97    95   ar
    76    11     9   ar
    77    91    92    2
    78    91    90    1
    79     6     5    1
    80     6     7   ar
    81    12    13    1
    82     5     2    1
    83    13    14    1
    84     3     2    1
    85    94    95   ar
    86    94    93    1
    87    72    73    2
    88    72    78   am
    89     9     7   ar
    90     2     1    1
    91    78    79    1
    92    87    85   ar
    93    87    88   ar
    94    90    93    1
    95    90    89    1
    96    85    83   ar
    97    14    15    2
    98    88    86   ar
    99    79    82    1
   100    79    80    1
   101    83    82    1
   102    83    84   ar
   103    80    81    2
   104    86    84   ar
