@<TRIPOS>MOLECULE
tmp/5xj5A12.pdb
 103 97 0 0 0
SMALL
GASTEIGER

@<TRIPOS>ATOM
      1  N         16.9590   35.5040   24.5390 N.3    12  LEU12      -0.1245
      2  CA        16.9110   36.5000   23.4740 C.3    12  LEU12       0.1561
      3  C         18.2730   36.6550   22.8080 C.2    12  LEU12       0.2260
      4  O         18.3530   36.7820   21.5740 O.2    12  LEU12      -0.2867
      5  CB        16.4110   37.8350   24.0320 C.3    12  LEU12       0.0270
      6  CG        14.9650   37.8110   24.5430 C.3    12  LEU12       0.0019
      7  CD1       14.6150   39.1480   25.1980 C.3    12  LEU12       0.0001
      8  CD2       13.9990   37.4730   23.4260 C.3    12  LEU12       0.0001
      9  N         19.8700   35.3070   18.5720 N.3    16  ILE16      -0.1245
     10  CA        20.5890   35.9900   17.4960 C.3    16  ILE16       0.1561
     11  C         21.4240   34.9280   16.7890 C.2    16  ILE16       0.2260
     12  O         22.4940   34.5530   17.2600 O.2    16  ILE16      -0.2867
     13  CB        21.4510   37.1370   18.0170 C.3    16  ILE16       0.0252
     14  CG1       20.5790   38.1520   18.7710 C.3    16  ILE16       0.0019
     15  CG2       22.1550   37.8160   16.8210 C.3    16  ILE16       0.0019
     16  CD1       21.3710   39.2520   19.4300 C.3    16  ILE16       0.0001
     17  N         23.1520   33.5500   10.3070 N.3    20  GLU20      -0.1231
     18  CA        22.1880   34.2470    9.4610 C.3    20  GLU20       0.1699
     19  C         22.4610   35.7440    9.4250 C.2    20  GLU20       0.2592
     20  O         22.2680   36.3880    8.3850 O.2    20  GLU20      -0.2718
     21  CB        20.7680   33.9910    9.9670 C.3    20  GLU20       0.0402
     22  CG        20.2380   32.6030    9.6720 C.3    20  GLU20       0.1161
     23  CD        19.3960   32.5600    8.4170 C.2    20  GLU20       0.3649
     24  OE1       18.2200   32.9830    8.4730 O.co2  20  GLU20      -0.2457
     25  OE2       19.9060   32.0980    7.3750 O.co2  20  GLU20      -0.2457
     26  N         22.8900   36.3160   10.5570 N.am   21  VAL21      -0.1980
     27  CA        23.2290   37.7380   10.5890 C.3    21  VAL21       0.1595
     28  C         24.3230   38.0410    9.5690 C.2    21  VAL21       0.2287
     29  O         24.1870   38.9460    8.7360 O.2    21  VAL21      -0.2864
     30  CB        23.6590   38.1770   11.9990 C.3    21  VAL21       0.0276
     31  CG1       24.1470   39.6270   11.9660 C.3    21  VAL21       0.0022
     32  CG2       22.5220   38.0200   13.0140 C.3    21  VAL21       0.0022
     33  N         23.2110   37.3180    5.8950 N.3    24  LYS24      -0.1245
     34  CA        22.2800   38.3370    5.4120 C.3    24  LYS24       0.1561
     35  C         22.9970   39.6470    5.1090 C.2    24  LYS24       0.2260
     36  O         22.6700   40.3220    4.1220 O.2    24  LYS24      -0.2867
     37  CB        21.1670   38.5720    6.4310 C.3    24  LYS24       0.0271
     38  CG        20.0820   37.5360    6.4180 C.3    24  LYS24       0.0035
     39  CD        19.1070   37.7980    7.5560 C.3    24  LYS24       0.0206
     40  CE        18.0980   36.6860    7.6450 C.3    24  LYS24       0.1093
     41  NZ        17.0780   36.7700    6.5620 N.3    24  LYS24      -0.1314
     42  N         21.3870   33.6720    1.5820 N.3    29  ASP29      -0.1239
     43  CA        20.3970   32.9340    2.3660 C.3    29  ASP29       0.1674
     44  C         21.0550   31.6280    2.7920 C.2    29  ASP29       0.2266
     45  O         21.1440   30.6760    2.0120 O.2    29  ASP29      -0.2867
     46  CB        19.1600   32.6730    1.5140 C.3    29  ASP29       0.1410
     47  CG        18.0820   31.9000    2.2590 C.2    29  ASP29       0.3668
     48  OD1       18.2710   31.5930    3.4530 O.co2  29  ASP29      -0.2456
     49  OD2       17.0350   31.6160    1.6420 O.co2  29  ASP29      -0.2456
     50  N         20.1030   29.2260    4.5490 N.3    31  ARG31      -0.1231
     51  CA        19.2430   28.0480    4.4620 C.3    31  ARG31       0.1694
     52  C         19.1790   27.4380    3.0690 C.2    31  ARG31       0.2592
     53  O         18.6370   26.3350    2.9130 O.2    31  ARG31      -0.2718
     54  CB        17.8150   28.3860    4.9180 C.3    31  ARG31       0.0321
     55  CG        17.7680   29.0450    6.2740 C.3    31  ARG31       0.0489
     56  CD        16.3210   29.3240    6.6900 C.3    31  ARG31       0.2205
     57  NE        16.2100   30.1560    7.8850 N.pl3  31  ARG31      -0.0865
     58  CZ        16.4500   29.7230    9.1200 C.cat  31  ARG31       0.5346
     59  NH1       16.8240   28.4650    9.3110 N.pl3  31  ARG31       0.1354
     60  NH2       16.3140   30.5440   10.1600 N.pl3  31  ARG31       0.1354
     61  N         19.6930   28.1230    2.0520 N.am   32  ASN32      -0.1974
     62  CA        19.6230   27.5950    0.6960 C.3    32  ASN32       0.1688
     63  C         20.9880   27.4990    0.0280 C.2    32  ASN32       0.2292
     64  O         21.0660   27.3810   -1.1980 O.2    32  ASN32      -0.2864
     65  CB        18.5850   28.3380   -0.1360 C.3    32  ASN32       0.1181
     66  CG        17.1760   27.9800    0.2890 C.2    32  ASN32       0.2629
     67  OD1       16.6860   26.8960   -0.0250 O.2    32  ASN32      -0.2716
     68  ND2       16.5310   28.8700    1.0170 N.am   32  ASN32      -0.0877
     69  N         14.0040   35.4000   16.7080 N.3    97  PHE97      -0.1227
     70  CA        14.2750   36.3790   15.6570 C.3    97  PHE97       0.1736
     71  C         14.4120   35.7660   14.2700 C.2    97  PHE97       0.2595
     72  O         14.3970   36.5160   13.2820 O.2    97  PHE97      -0.2718
     73  CB        15.5460   37.1640   16.0070 C.3    97  PHE97       0.0547
     74  CG        15.4470   37.9400   17.3010 C.ar   97  PHE97      -0.0202
     75  CD1       14.4620   38.8930   17.4760 C.ar   97  PHE97      -0.0042
     76  CD2       16.3490   37.7200   18.3340 C.ar   97  PHE97      -0.0042
     77  CE1       14.3620   39.6080   18.6640 C.ar   97  PHE97      -0.0003
     78  CE2       16.2610   38.4310   19.5250 C.ar   97  PHE97      -0.0003
     79  CZ        15.2620   39.3770   19.6900 C.ar   97  PHE97      -0.0000
     80  N         14.5380   34.4430   14.1590 N.am   98  PHE98      -0.1962
     81  CA        14.8020   33.7690   12.8890 C.3    98  PHE98       0.1771
     82  C         13.8700   32.5760   12.7050 C.2    98  PHE98       0.2620
     83  O         14.2850   31.4730   12.3440 O.2    98  PHE98      -0.2715
     84  CB        16.2900   33.4260   12.7560 C.3    98  PHE98       0.0574
     85  CG        17.1660   34.6360   12.6760 C.ar   98  PHE98      -0.0200
     86  CD1       17.4230   35.2370   11.4550 C.ar   98  PHE98      -0.0042
     87  CD2       17.7060   35.2010   13.8150 C.ar   98  PHE98      -0.0042
     88  CE1       18.2080   36.3650   11.3850 C.ar   98  PHE98      -0.0003
     89  CE2       18.4980   36.3270   13.7460 C.ar   98  PHE98      -0.0003
     90  CZ        18.7490   36.9100   12.5160 C.ar   98  PHE98      -0.0000
     91  N         12.5700   32.7990   12.9440 N.am   99  GLY99      -0.1954
     92  CA        11.5490   31.8060   12.6610 C.3    99  GLY99       0.1869
     93  C         11.6380   30.5390   13.4650 C.2    99  GLY99       0.2309
     94  O         11.0980   29.5140   13.0510 O.2    99  GLY99      -0.2863
     95  N         14.0180   28.6290   13.6640 N.3   101  LYS101     -0.1245
     96  CA        14.7980   27.6580   12.8970 C.3   101  LYS101      0.1561
     97  C         16.2790   28.0000   13.0870 C.2   101  LYS101      0.2260
     98  O         16.8520   28.8260   12.3690 O.2   101  LYS101     -0.2867
     99  CB        14.4020   27.6870   11.4460 C.3   101  LYS101      0.0271
    100  CG        12.9140   27.4550   11.2750 C.3   101  LYS101      0.0035
    101  CD        12.5370   27.4760    9.8110 C.3   101  LYS101      0.0206
    102  CE        12.0530   28.8390    9.3730 C.3   101  LYS101      0.1093
    103  NZ        10.7790   29.2380   10.0470 N.3   101  LYS101     -0.1314
@<TRIPOS>BOND
     1    64    63    2
     2    65    66    1
     3    65    62    1
     4    67    66    2
     5    63    62    1
     6    66    68   am
     7    62    61    1
     8    46    47    1
     9    46    43    1
    10    42    43    1
    11    49    47   ar
    12    45    44    2
    13    61    52   am
    14    47    48   ar
    15    43    44    1
    16    53    52    2
    17    52    51    1
    18    36    35    2
    19    51    50    1
    20    51    54    1
    21    54    55    1
    22    35    34    1
    23    34    33    1
    24    34    37    1
    25    55    56    1
    26    38    37    1
    27    38    39    1
    28    41    40    1
    29    56    57    1
    30    25    23   ar
    31    39    40    1
    32    57    58    2
    33    20    19    2
    34    23    24   ar
    35    23    22    1
    36    29    28    2
    37    58    59    1
    38    58    60    1
    39   102   101    1
    40   102   103    1
    41    19    18    1
    42    19    26   am
    43    18    21    1
    44    18    17    1
    45    28    27    1
    46    22    21    1
    47   101   100    1
    48    26    27    1
    49    27    30    1
    50   100    99    1
    51    88    86   ar
    52    88    90   ar
    53    99    96    1
    54    86    85   ar
    55    31    30    1
    56    30    32    1
    57    83    82    2
    58    98    97    2
    59    90    89   ar
    60    92    91    1
    61    92    93    1
    62    85    84    1
    63    85    87   ar
    64    82    81    1
    65    82    91   am
    66    84    81    1
    67    81    80    1
    68    96    97    1
    69    96    95    1
    70    94    93    2
    71    72    71    2
    72    89    87   ar
    73    80    71   am
    74    71    70    1
    75    70    73    1
    76    70    69    1
    77    73    74    1
    78    11    12    2
    79    11    10    1
    80    15    13    1
    81    74    75   ar
    82    74    76   ar
    83    75    77   ar
    84    10    13    1
    85    10     9    1
    86    13    14    1
    87    76    78   ar
    88    77    79   ar
    89    14    16    1
    90    78    79   ar
    91     4     3    2
    92     3     2    1
    93     8     6    1
    94     2     5    1
    95     2     1    1
    96     5     6    1
    97     6     7    1
