@<TRIPOS>MOLECULE
tmp/5xj5A03.pdb
 92 87 0 0 0
SMALL
GASTEIGER

@<TRIPOS>ATOM
      1  N         31.4260   31.3680   14.7110 N.3    56  PHE56      -0.1241
      2  CA        31.6630   30.5030   15.8630 C.3    56  PHE56       0.1605
      3  C         31.9080   31.3210   17.1240 C.2    56  PHE56       0.2264
      4  O         31.3300   31.0440   18.1840 O.2    56  PHE56      -0.2867
      5  CB        32.8190   29.5350   15.6160 C.3    56  PHE56       0.0534
      6  CG        32.9100   28.4710   16.6770 C.ar   56  PHE56      -0.0203
      7  CD1       33.6460   28.6800   17.8250 C.ar   56  PHE56      -0.0042
      8  CD2       32.1900   27.2970   16.5580 C.ar   56  PHE56      -0.0042
      9  CE1       33.6990   27.7150   18.8240 C.ar   56  PHE56      -0.0003
     10  CE2       32.2380   26.3290   17.5460 C.ar   56  PHE56      -0.0003
     11  CZ        33.0010   26.5390   18.6780 C.ar   56  PHE56      -0.0000
     12  N         29.5180   31.3730   20.3150 N.3    60  PHE60      -0.1241
     13  CA        30.1150   30.9820   21.5950 C.3    60  PHE60       0.1605
     14  C         29.8550   32.0450   22.6600 C.2    60  PHE60       0.2264
     15  O         29.4800   31.7280   23.7970 O.2    60  PHE60      -0.2867
     16  CB        31.6200   30.7550   21.3720 C.3    60  PHE60       0.0534
     17  CG        32.4400   30.6240   22.6400 C.ar   60  PHE60      -0.0203
     18  CD1       32.8690   31.7540   23.3300 C.ar   60  PHE60      -0.0042
     19  CD2       32.8370   29.3740   23.1050 C.ar   60  PHE60      -0.0042
     20  CE1       33.6430   31.6370   24.4820 C.ar   60  PHE60      -0.0003
     21  CE2       33.6140   29.2540   24.2570 C.ar   60  PHE60      -0.0003
     22  CZ        34.0160   30.3820   24.9400 C.ar   60  PHE60      -0.0000
     23  N         29.3860   25.2120   24.0830 N.3   110  LEU110     -0.1245
     24  CA        30.7760   25.3470   24.5190 C.3   110  LEU110      0.1561
     25  C         30.9760   26.6250   25.3210 C.2   110  LEU110      0.2260
     26  O         31.7160   26.6310   26.3180 O.2   110  LEU110     -0.2867
     27  CB        31.7090   25.3300   23.3030 C.3   110  LEU110      0.0270
     28  CG        33.1980   25.3730   23.6660 C.3   110  LEU110      0.0019
     29  CD1       33.6110   24.0830   24.3590 C.3   110  LEU110      0.0001
     30  CD2       34.0320   25.6060   22.4160 C.3   110  LEU110      0.0001
     31  N         32.3650   26.8580   29.0450 N.3   114  PHE114     -0.1241
     32  CA        33.5580   27.6520   29.3520 C.3   114  PHE114      0.1605
     33  C         33.3310   28.5530   30.5610 C.2   114  PHE114      0.2264
     34  O         34.2330   28.7310   31.3920 O.2   114  PHE114     -0.2867
     35  CB        33.9680   28.4600   28.1120 C.3   114  PHE114      0.0534
     36  CG        35.3210   29.1100   28.2230 C.ar  114  PHE114     -0.0203
     37  CD1       35.4550   30.3580   28.8080 C.ar  114  PHE114     -0.0042
     38  CD2       36.4480   28.4790   27.7250 C.ar  114  PHE114     -0.0042
     39  CE1       36.7010   30.9630   28.9160 C.ar  114  PHE114     -0.0003
     40  CE2       37.6990   29.0830   27.8280 C.ar  114  PHE114     -0.0003
     41  CZ        37.8140   30.3240   28.4240 C.ar  114  PHE114     -0.0000
     42  N         35.9200   22.9660   29.1040 N.3   121  ALA121     -0.1231
     43  CA        35.7010   23.4290   27.7290 C.3   121  ALA121      0.1694
     44  C         36.9040   23.0990   26.8500 C.2   121  ALA121      0.2591
     45  O         36.7600   22.6070   25.7250 O.2   121  ALA121     -0.2718
     46  CB        35.4320   24.9340   27.7250 C.3   121  ALA121      0.0304
     47  N         38.1130   23.3510   27.3540 N.am  122  LEU122     -0.1980
     48  CA        39.3080   23.0340   26.5810 C.3   122  LEU122      0.1596
     49  C         39.3990   21.5380   26.2810 C.2   122  LEU122      0.2287
     50  O         39.6910   21.1430   25.1460 O.2   122  LEU122     -0.2864
     51  CB        40.5480   23.5290   27.3420 C.3   122  LEU122      0.0297
     52  CG        41.8740   23.0120   26.7720 C.3   122  LEU122      0.0022
     53  CD1       42.1190   23.5940   25.4000 C.3   122  LEU122      0.0001
     54  CD2       43.0470   23.3380   27.7110 C.3   122  LEU122      0.0001
     55  N         36.9360   20.6420   23.6040 N.3   125  PHE125     -0.1241
     56  CA        37.4510   21.0680   22.3100 C.3   125  PHE125      0.1605
     57  C         38.5440   20.1290   21.8070 C.2   125  PHE125      0.2264
     58  O         38.6120   19.8380   20.6080 O.2   125  PHE125     -0.2867
     59  CB        37.9850   22.4980   22.3830 C.3   125  PHE125      0.0534
     60  CG        38.6830   22.9230   21.1280 C.ar  125  PHE125     -0.0203
     61  CD1       37.9480   23.2170   19.9930 C.ar  125  PHE125     -0.0042
     62  CD2       40.0660   22.9780   21.0580 C.ar  125  PHE125     -0.0042
     63  CE1       38.5750   23.5910   18.8170 C.ar  125  PHE125     -0.0003
     64  CE2       40.6940   23.3490   19.8840 C.ar  125  PHE125     -0.0003
     65  CZ        39.9480   23.6530   18.7670 C.ar  125  PHE125     -0.0000
     66  N         38.5440   18.2990   18.2300 N.3   129  LEU129     -0.1245
     67  CA        39.5530   18.4560   17.1920 C.3   129  LEU129      0.1561
     68  C         40.1970   17.1200   16.8520 C.2   129  LEU129      0.2260
     69  O         40.4690   16.8340   15.6780 O.2   129  LEU129     -0.2867
     70  CB        40.5970   19.4630   17.6630 C.3   129  LEU129      0.0270
     71  CG        41.7040   19.8090   16.6720 C.3   129  LEU129      0.0019
     72  CD1       41.0880   20.4300   15.4190 C.3   129  LEU129      0.0001
     73  CD2       42.7120   20.7430   17.2970 C.3   129  LEU129      0.0001
     74  N         39.9830   15.6100   13.1540 N.3   133  LEU133     -0.1245
     75  CA        41.1520   15.3330   12.3240 C.3   133  LEU133      0.1561
     76  C         41.2820   13.8420   12.0200 C.2   133  LEU133      0.2260
     77  O         41.8400   13.4670   10.9790 O.2   133  LEU133     -0.2867
     78  CB        42.4170   15.8890   12.9850 C.3   133  LEU133      0.0270
     79  CG        42.5130   17.4140   13.0830 C.3   133  LEU133      0.0019
     80  CD1       43.7810   17.8150   13.8420 C.3   133  LEU133      0.0001
     81  CD2       42.4870   18.0670   11.7110 C.3   133  LEU133      0.0001
     82  N         37.3980   13.4510    9.7740 N.3   136  ARG136     -0.1245
     83  CA        36.8950   14.5890    9.0050 C.3   136  ARG136      0.1563
     84  C         35.3730   14.6670    8.9300 C.2   136  ARG136      0.2260
     85  O         34.8370   15.3340    8.0330 O.2   136  ARG136     -0.2867
     86  CB        37.5660   14.7270    7.6290 C.3   136  ARG136      0.0307
     87  CG        39.0750   15.0290    7.7490 C.3   136  ARG136      0.0489
     88  CD        39.6520   15.7430    6.5160 C.3   136  ARG136      0.2205
     89  NE        39.0840   17.0760    6.2990 N.pl3 136  ARG136     -0.0865
     90  CZ        39.5870   18.2060    6.7910 C.cat 136  ARG136      0.5346
     91  NH1       40.6770   18.1850    7.5480 N.pl3 136  ARG136      0.1354
     92  NH2       38.9930   19.3650    6.5260 N.pl3 136  ARG136      0.1354
@<TRIPOS>BOND
     1    89    88    1
     2    89    90    2
     3    88    87    1
     4    92    90    1
     5    90    91    1
     6    86    87    1
     7    86    83    1
     8    85    84    2
     9    84    83    1
    10    83    82    1
    11    77    76    2
    12    81    79    1
    13    76    75    1
    14    75    78    1
    15    75    74    1
    16    78    79    1
    17    79    80    1
    18     1     2    1
    19    72    71    1
    20     5     2    1
    21     5     6    1
    22    69    68    2
    23     2     3    1
    24     8     6   ar
    25     8    10   ar
    26    71    73    1
    27    71    70    1
    28     6     7   ar
    29    68    67    1
    30     3     4    2
    31    67    70    1
    32    67    66    1
    33    10    11   ar
    34     7     9   ar
    35    11     9   ar
    36    65    63   ar
    37    65    64   ar
    38    63    61   ar
    39    64    62   ar
    40    61    60   ar
    41    12    13    1
    42    58    57    2
    43    62    60   ar
    44    60    59    1
    45    16    13    1
    46    16    17    1
    47    13    14    1
    48    57    56    1
    49    56    59    1
    50    56    55    1
    51    30    28    1
    52    17    19   ar
    53    17    18   ar
    54    14    15    2
    55    19    21   ar
    56    27    28    1
    57    27    24    1
    58    18    20   ar
    59    28    29    1
    60    23    24    1
    61    21    22   ar
    62    20    22   ar
    63    24    25    1
    64    50    49    2
    65    25    26    2
    66    53    52    1
    67    45    44    2
    68    49    48    1
    69    48    51    1
    70    48    47    1
    71    52    51    1
    72    52    54    1
    73    44    47   am
    74    44    43    1
    75    46    43    1
    76    38    40   ar
    77    38    36   ar
    78    43    42    1
    79    40    41   ar
    80    35    36    1
    81    35    32    1
    82    36    37   ar
    83    41    39   ar
    84    37    39   ar
    85    31    32    1
    86    32    33    1
    87    33    34    2
