@<TRIPOS>MOLECULE
tmp/5xj5A14.pdb
 92 92 0 0 0
SMALL
GASTEIGER

@<TRIPOS>ATOM
      1  N         15.6270   35.2270   30.5860 N.3     8  ILE8       -0.1245
      2  CA        15.0110   35.7890   29.3880 C.3     8  ILE8        0.1561
      3  C         16.0720   36.4200   28.4960 C.2     8  ILE8        0.2260
      4  O         16.0580   36.2410   27.2720 O.2     8  ILE8       -0.2867
      5  CB        13.9110   36.7970   29.7700 C.3     8  ILE8        0.0252
      6  CG1       12.7520   36.0860   30.4680 C.3     8  ILE8        0.0019
      7  CG2       13.4130   37.5410   28.5250 C.3     8  ILE8        0.0019
      8  CD1       11.7310   37.0480   31.0630 C.3     8  ILE8        0.0001
      9  N         17.8990   33.7340   26.5440 N.3    11  TYR11      -0.1227
     10  CA        17.1380   33.2280   25.4050 C.3    11  TYR11       0.1736
     11  C         17.1560   34.2200   24.2440 C.2    11  TYR11       0.2595
     12  O         17.3470   33.8350   23.0800 O.2    11  TYR11      -0.2718
     13  CB        15.6870   32.9070   25.8040 C.3    11  TYR11       0.0548
     14  CG        14.8940   32.5400   24.5830 C.ar   11  TYR11      -0.0200
     15  CD1       15.0270   31.2830   24.0050 C.ar   11  TYR11      -0.0009
     16  CD2       14.0520   33.4690   23.9650 C.ar   11  TYR11      -0.0009
     17  CE1       14.3440   30.9570   22.8470 C.ar   11  TYR11       0.0417
     18  CE2       13.3610   33.1480   22.8210 C.ar   11  TYR11       0.0417
     19  CZ        13.5060   31.8950   22.2650 C.ar   11  TYR11       0.1957
     20  OH        12.8500   31.5760   21.1040 O.3    11  TYR11      -0.2866
     21  N         16.9590   35.5040   24.5390 N.am   12  LEU12      -0.1980
     22  CA        16.9110   36.5000   23.4740 C.3    12  LEU12       0.1596
     23  C         18.2730   36.6550   22.8080 C.2    12  LEU12       0.2287
     24  O         18.3530   36.7820   21.5740 O.2    12  LEU12      -0.2864
     25  CB        16.4110   37.8350   24.0320 C.3    12  LEU12       0.0297
     26  CG        14.9650   37.8110   24.5430 C.3    12  LEU12       0.0022
     27  CD1       14.6150   39.1480   25.1980 C.3    12  LEU12       0.0001
     28  CD2       13.9990   37.4730   23.4260 C.3    12  LEU12       0.0001
     29  N         20.1030   29.2260    4.5490 N.3    31  ARG31      -0.1245
     30  CA        19.2430   28.0480    4.4620 C.3    31  ARG31       0.1563
     31  C         19.1790   27.4380    3.0690 C.2    31  ARG31       0.2260
     32  O         18.6370   26.3350    2.9130 O.2    31  ARG31      -0.2867
     33  CB        17.8150   28.3860    4.9180 C.3    31  ARG31       0.0307
     34  CG        17.7680   29.0450    6.2740 C.3    31  ARG31       0.0489
     35  CD        16.3210   29.3240    6.6900 C.3    31  ARG31       0.2205
     36  NE        16.2100   30.1560    7.8850 N.pl3  31  ARG31      -0.0865
     37  CZ        16.4500   29.7230    9.1200 C.cat  31  ARG31       0.5346
     38  NH1       16.8240   28.4650    9.3110 N.pl3  31  ARG31       0.1354
     39  NH2       16.3140   30.5440   10.1600 N.pl3  31  ARG31       0.1354
     40  N         13.8520   33.1970   18.3670 N.3    96  VAL96      -0.1231
     41  CA        12.6260   33.9630   18.1360 C.3    96  VAL96       0.1692
     42  C         12.7800   34.9360   16.9690 C.2    96  VAL96       0.2592
     43  O         11.8000   35.2510   16.2800 O.2    96  VAL96      -0.2718
     44  CB        12.1650   34.6540   19.4350 C.3    96  VAL96       0.0266
     45  CG1       13.1300   35.7420   19.8550 C.3    96  VAL96       0.0020
     46  CG2       10.7520   35.2250   19.2570 C.3    96  VAL96       0.0020
     47  N         14.0040   35.4000   16.7080 N.am   97  PHE97      -0.1962
     48  CA        14.2750   36.3790   15.6570 C.3    97  PHE97       0.1771
     49  C         14.4120   35.7660   14.2700 C.2    97  PHE97       0.2620
     50  O         14.3970   36.5160   13.2820 O.2    97  PHE97      -0.2715
     51  CB        15.5460   37.1640   16.0070 C.3    97  PHE97       0.0574
     52  CG        15.4470   37.9400   17.3010 C.ar   97  PHE97      -0.0200
     53  CD1       14.4620   38.8930   17.4760 C.ar   97  PHE97      -0.0042
     54  CD2       16.3490   37.7200   18.3340 C.ar   97  PHE97      -0.0042
     55  CE1       14.3620   39.6080   18.6640 C.ar   97  PHE97      -0.0003
     56  CE2       16.2610   38.4310   19.5250 C.ar   97  PHE97      -0.0003
     57  CZ        15.2620   39.3770   19.6900 C.ar   97  PHE97      -0.0000
     58  N         14.5380   34.4430   14.1590 N.am   98  PHE98      -0.1960
     59  CA        14.8020   33.7690   12.8890 C.3    98  PHE98       0.1771
     60  C         13.8700   32.5760   12.7050 C.2    98  PHE98       0.2620
     61  O         14.2850   31.4730   12.3440 O.2    98  PHE98      -0.2715
     62  CB        16.2900   33.4260   12.7560 C.3    98  PHE98       0.0574
     63  CG        17.1660   34.6360   12.6760 C.ar   98  PHE98      -0.0200
     64  CD1       17.4230   35.2370   11.4550 C.ar   98  PHE98      -0.0042
     65  CD2       17.7060   35.2010   13.8150 C.ar   98  PHE98      -0.0042
     66  CE1       18.2080   36.3650   11.3850 C.ar   98  PHE98      -0.0003
     67  CE2       18.4980   36.3270   13.7460 C.ar   98  PHE98      -0.0003
     68  CZ        18.7490   36.9100   12.5160 C.ar   98  PHE98      -0.0000
     69  N         12.5700   32.7990   12.9440 N.am   99  GLY99      -0.1940
     70  CA        11.5490   31.8060   12.6610 C.3    99  GLY99       0.2014
     71  C         11.6380   30.5390   13.4650 C.2    99  GLY99       0.2639
     72  O         11.0980   29.5140   13.0510 O.2    99  GLY99      -0.2714
     73  N         12.3240   30.5810   14.6040 N.am  100  PHE100     -0.1959
     74  CA        12.5360   29.4140   15.4480 C.3   100  PHE100      0.1771
     75  C         13.2950   28.2990   14.7360 C.2   100  PHE100      0.2619
     76  O         13.2130   27.1340   15.1360 O.2   100  PHE100     -0.2715
     77  CB        11.2220   28.9100   16.0730 C.3   100  PHE100      0.0574
     78  CG        10.5110   29.9600   16.8740 C.ar  100  PHE100     -0.0200
     79  CD1       10.9010   30.2290   18.1790 C.ar  100  PHE100     -0.0042
     80  CD2        9.4810   30.7030   16.3180 C.ar  100  PHE100     -0.0042
     81  CE1       10.2700   31.2020   18.9250 C.ar  100  PHE100     -0.0003
     82  CE2        8.8490   31.6870   17.0640 C.ar  100  PHE100     -0.0003
     83  CZ         9.2400   31.9320   18.3630 C.ar  100  PHE100     -0.0000
     84  N         14.0180   28.6290   13.6640 N.am  101  LYS101     -0.1977
     85  CA        14.7980   27.6580   12.8970 C.3   101  LYS101      0.1596
     86  C         16.2790   28.0000   13.0870 C.2   101  LYS101      0.2287
     87  O         16.8520   28.8260   12.3690 O.2   101  LYS101     -0.2864
     88  CB        14.4020   27.6870   11.4460 C.3   101  LYS101      0.0298
     89  CG        12.9140   27.4550   11.2750 C.3   101  LYS101      0.0038
     90  CD        12.5370   27.4760    9.8110 C.3   101  LYS101      0.0206
     91  CE        12.0530   28.8390    9.3730 C.3   101  LYS101      0.1093
     92  NZ        10.7790   29.2380   10.0470 N.3   101  LYS101     -0.1314
@<TRIPOS>BOND
     1    32    31    2
     2    31    30    1
     3    30    29    1
     4    30    33    1
     5    33    34    1
     6    34    35    1
     7    35    36    1
     8    36    37    2
     9    37    38    1
    10    37    39    1
    11    91    90    1
    12    91    92    1
    13    90    89    1
    14    89    88    1
    15    66    64   ar
    16    66    68   ar
    17    88    85    1
    18    64    63   ar
    19    61    60    2
    20    87    86    2
    21    68    67   ar
    22    70    69    1
    23    70    71    1
    24    63    62    1
    25    63    65   ar
    26    60    59    1
    27    60    69   am
    28    62    59    1
    29    59    58    1
    30    85    86    1
    31    85    84    1
    32    72    71    2
    33    50    49    2
    34    71    73   am
    35    84    75   am
    36    67    65   ar
    37    58    49   am
    38    49    48    1
    39    73    74    1
    40    75    76    2
    41    75    74    1
    42    74    77    1
    43    48    51    1
    44    48    47    1
    45    51    52    1
    46    77    78    1
    47    43    42    2
    48    80    78   ar
    49    80    82   ar
    50    47    42   am
    51    78    79   ar
    52    42    41    1
    53    82    83   ar
    54    52    53   ar
    55    52    54   ar
    56    53    55   ar
    57    41    40    1
    58    41    44    1
    59    79    81   ar
    60    54    56   ar
    61    83    81   ar
    62    55    57   ar
    63    46    44    1
    64    44    45    1
    65    56    57   ar
    66    20    19    1
    67    24    23    2
    68    19    18   ar
    69    19    17   ar
    70    23    22    1
    71    18    16   ar
    72    17    15   ar
    73    12    11    2
    74    28    26    1
    75    22    25    1
    76    22    21    1
    77    16    14   ar
    78    15    14   ar
    79    25    26    1
    80    11    21   am
    81    11    10    1
    82    26    27    1
    83    14    13    1
    84    10    13    1
    85    10     9    1
    86     4     3    2
    87     3     2    1
    88     7     5    1
    89     2     5    1
    90     2     1    1
    91     5     6    1
    92     6     8    1
