@<TRIPOS>MOLECULE
tmp/5xj5A04.pdb
 104 99 0 0 0
SMALL
GASTEIGER

@<TRIPOS>ATOM
      1  N         28.1980   27.7740   12.3430 N.3    40  ALA40      -0.1231
      2  CA        29.5190   28.1460   11.8360 C.3    40  ALA40       0.1694
      3  C         30.0210   27.1820   10.7620 C.2    40  ALA40       0.2592
      4  O         30.7480   27.6000    9.8470 O.2    40  ALA40      -0.2718
      5  CB        30.5090   28.2240   12.9980 C.3    40  ALA40       0.0304
      6  N         29.6550   25.8980   10.8460 N.am   41  THR41      -0.1953
      7  CA        30.1220   24.9370    9.8460 C.3    41  THR41       0.1897
      8  C         29.6410   25.3150    8.4550 C.2    41  THR41       0.2313
      9  O         30.4250   25.3180    7.4950 O.2    41  THR41      -0.2863
     10  CB        29.6490   23.5270   10.1870 C.3    41  THR41       0.1794
     11  OG1       30.1990   23.1470   11.4550 O.3    41  THR41      -0.2208
     12  CG2       30.1060   22.5360    9.1020 C.3    41  THR41       0.0378
     13  N         31.3470   28.4260    7.1580 N.3    44  THR44      -0.1218
     14  CA        32.6550   28.0710    6.6070 C.3    44  THR44       0.1862
     15  C         32.5110   27.4460    5.2280 C.2    44  THR44       0.2287
     16  O         33.2440   27.7890    4.2910 O.2    44  THR44      -0.2866
     17  CB        33.3550   27.1020    7.5570 C.3    44  THR44       0.1770
     18  OG1       33.6350   27.7750    8.7850 O.3    44  THR44      -0.2211
     19  CG2       34.6750   26.5870    6.9560 C.3    44  THR44       0.0375
     20  N         36.3930   30.1110    5.7000 N.3    49  LYS49      -0.1245
     21  CA        36.8040   29.8400    7.0750 C.3    49  LYS49       0.1561
     22  C         36.8290   31.1060    7.9210 C.2    49  LYS49       0.2260
     23  O         36.4740   31.0690    9.1070 O.2    49  LYS49      -0.2867
     24  CB        38.1650   29.1420    7.0900 C.3    49  LYS49       0.0271
     25  CG        38.5600   28.5410    8.4440 C.3    49  LYS49       0.0035
     26  CD        37.5790   27.4480    8.8640 C.3    49  LYS49       0.0206
     27  CE        38.2400   26.3790    9.7240 C.3    49  LYS49       0.1093
     28  NZ        38.2860   26.7750   11.1560 N.3    49  LYS49      -0.1314
     29  N         33.4180   31.8240    9.0520 N.3    52  GLY52      -0.1210
     30  CA        32.9840   30.7930    9.9830 C.3    52  GLY52       0.1956
     31  C         33.5960   30.9420   11.3630 C.2    52  GLY52       0.2611
     32  O         32.9250   30.7040   12.3760 O.2    52  GLY52      -0.2717
     33  N         34.8690   31.3510   11.4300 N.am   53  VAL53      -0.1979
     34  CA        35.4940   31.6040   12.7310 C.3    53  VAL53       0.1595
     35  C         34.7820   32.7350   13.4600 C.2    53  VAL53       0.2287
     36  O         34.5520   32.6600   14.6780 O.2    53  VAL53      -0.2864
     37  CB        37.0030   31.8810   12.5800 C.3    53  VAL53       0.0276
     38  CG1       37.6040   32.2780   13.9360 C.3    53  VAL53       0.0022
     39  CG2       37.7120   30.6660   12.0410 C.3    53  VAL53       0.0022
     40  N         31.4260   31.3680   14.7110 N.3    56  PHE56      -0.1241
     41  CA        31.6630   30.5030   15.8630 C.3    56  PHE56       0.1605
     42  C         31.9080   31.3210   17.1240 C.2    56  PHE56       0.2264
     43  O         31.3300   31.0440   18.1840 O.2    56  PHE56      -0.2867
     44  CB        32.8190   29.5350   15.6160 C.3    56  PHE56       0.0534
     45  CG        32.9100   28.4710   16.6770 C.ar   56  PHE56      -0.0203
     46  CD1       33.6460   28.6800   17.8250 C.ar   56  PHE56      -0.0042
     47  CD2       32.1900   27.2970   16.5580 C.ar   56  PHE56      -0.0042
     48  CE1       33.6990   27.7150   18.8240 C.ar   56  PHE56      -0.0003
     49  CE2       32.2380   26.3290   17.5460 C.ar   56  PHE56      -0.0003
     50  CZ        33.0010   26.5390   18.6780 C.ar   56  PHE56      -0.0000
     51  N         36.9910   17.1820   20.3660 N.3   128  TRP128     -0.1241
     52  CA        36.3940   17.5410   19.0790 C.3   128  TRP128      0.1605
     53  C         37.4470   17.5850   17.9820 C.2   128  TRP128      0.2264
     54  O         37.2760   17.0000   16.9010 O.2   128  TRP128     -0.2867
     55  CB        35.6880   18.8970   19.1950 C.3   128  TRP128      0.0550
     56  CG        34.8600   19.2220   17.9560 C.ar  128  TRP128      0.0003
     57  CD1       33.5190   19.0140   17.8010 C.ar  128  TRP128      0.0946
     58  CD2       35.3310   19.7840   16.7160 C.ar  128  TRP128      0.0152
     59  NE1       33.1310   19.3990   16.5310 N.ar  128  TRP128     -0.2442
     60  CE2       34.2180   19.8910   15.8600 C.ar  128  TRP128      0.0810
     61  CE3       36.5820   20.2200   16.2550 C.ar  128  TRP128      0.0012
     62  CZ2       34.3220   20.3950   14.5590 C.ar  128  TRP128      0.0191
     63  CZ3       36.6870   20.7180   14.9730 C.ar  128  TRP128      0.0001
     64  CH2       35.5590   20.8100   14.1410 C.ar  128  TRP128      0.0015
     65  N         37.6950   15.1470   14.8340 N.3   132  PHE132     -0.1241
     66  CA        37.5620   15.7520   13.5110 C.3   132  PHE132      0.1605
     67  C         38.7700   15.4430   12.6260 C.2   132  PHE132      0.2264
     68  O         38.6210   15.0820   11.4510 O.2   132  PHE132     -0.2867
     69  CB        37.3590   17.2590   13.6030 C.3   132  PHE132      0.0534
     70  CG        37.2890   17.8920   12.2510 C.ar  132  PHE132     -0.0203
     71  CD1       36.1770   17.6870   11.4580 C.ar  132  PHE132     -0.0042
     72  CD2       38.3580   18.6010   11.7470 C.ar  132  PHE132     -0.0042
     73  CE1       36.1250   18.2160   10.1760 C.ar  132  PHE132     -0.0003
     74  CE2       38.3100   19.1420   10.4620 C.ar  132  PHE132     -0.0003
     75  CZ        37.1930   18.9490    9.6850 C.ar  132  PHE132     -0.0000
     76  N         37.3980   13.4510    9.7740 N.3   136  ARG136     -0.1245
     77  CA        36.8950   14.5890    9.0050 C.3   136  ARG136      0.1563
     78  C         35.3730   14.6670    8.9300 C.2   136  ARG136      0.2260
     79  O         34.8370   15.3340    8.0330 O.2   136  ARG136     -0.2867
     80  CB        37.5660   14.7270    7.6290 C.3   136  ARG136      0.0307
     81  CG        39.0750   15.0290    7.7490 C.3   136  ARG136      0.0489
     82  CD        39.6520   15.7430    6.5160 C.3   136  ARG136      0.2205
     83  NE        39.0840   17.0760    6.2990 N.pl3 136  ARG136     -0.0865
     84  CZ        39.5870   18.2060    6.7910 C.cat 136  ARG136      0.5346
     85  NH1       40.6770   18.1850    7.5480 N.pl3 136  ARG136      0.1354
     86  NH2       38.9930   19.3650    6.5260 N.pl3 136  ARG136      0.1354
     87  N         32.4520   16.3890   10.7570 N.3   138  VAL138     -0.1245
     88  CA        32.0880   17.3840   11.7610 C.3   138  VAL138      0.1561
     89  C         31.1000   16.8070   12.7640 C.2   138  VAL138      0.2260
     90  O         31.2440   16.9930   13.9780 O.2   138  VAL138     -0.2867
     91  CB        31.5270   18.6510   11.0890 C.3   138  VAL138      0.0252
     92  CG1       30.9800   19.6130   12.1560 C.3   138  VAL138      0.0019
     93  CG2       32.6100   19.3390   10.2560 C.3   138  VAL138      0.0019
     94  N         34.2560   16.7060    5.5850 N.3   192  PHE192     -0.1241
     95  CA        34.2650   18.1460    5.3800 C.3   192  PHE192      0.1605
     96  C         35.5020   18.6110    4.6220 C.2   192  PHE192      0.2264
     97  O         36.6240   18.1960    4.9240 O.2   192  PHE192     -0.2867
     98  CB        34.2030   18.8760    6.7260 C.3   192  PHE192      0.0534
     99  CG        33.9490   20.3450    6.5880 C.ar  192  PHE192     -0.0203
    100  CD1       34.9930   21.2370    6.4200 C.ar  192  PHE192     -0.0042
    101  CD2       32.6560   20.8250    6.5700 C.ar  192  PHE192     -0.0042
    102  CE1       34.7530   22.5870    6.2670 C.ar  192  PHE192     -0.0003
    103  CE2       32.4020   22.1790    6.4080 C.ar  192  PHE192     -0.0003
    104  CZ        33.4500   23.0600    6.2570 C.ar  192  PHE192     -0.0000
@<TRIPOS>BOND
     1    16    15    2
     2    96    97    2
     3    96    95    1
     4    15    14    1
     5    95    94    1
     6    95    98    1
     7    20    21    1
     8   104   102   ar
     9   104   103   ar
    10   102   100   ar
    11    83    82    1
    12    83    84    2
    13   103   101   ar
    14   100    99   ar
    15    82    81    1
    16    86    84    1
    17   101    99   ar
    18    99    98    1
    19    14    13    1
    20    14    17    1
    21    84    85    1
    22    19    17    1
    23    21    24    1
    24    21    22    1
    25    24    25    1
    26     9     8    2
    27    17    18    1
    28    80    81    1
    29    80    77    1
    30    22    23    2
    31    79    78    2
    32    25    26    1
    33     8     7    1
    34    26    27    1
    35    78    77    1
    36    77    76    1
    37    29    30    1
    38    12    10    1
    39    75    73   ar
    40    75    74   ar
    41    27    28    1
    42     7    10    1
    43     7     6    1
    44     4     3    2
    45    30    31    1
    46    73    71   ar
    47    10    11    1
    48    93    91    1
    49    74    72   ar
    50    87    88    1
    51     3     6   am
    52     3     2    1
    53    91    88    1
    54    91    92    1
    55    31    33   am
    56    31    32    2
    57    33    34    1
    58    68    67    2
    59    71    70   ar
    60    72    70   ar
    61    88    89    1
    62     2     1    1
    63     2     5    1
    64    39    37    1
    65    70    69    1
    66    37    34    1
    67    37    38    1
    68    67    66    1
    69    34    35    1
    70    89    90    2
    71    35    36    2
    72    66    69    1
    73    66    65    1
    74    64    62   ar
    75    64    63   ar
    76    62    60   ar
    77    40    41    1
    78    63    61   ar
    79    44    41    1
    80    44    45    1
    81    60    59   ar
    82    60    58   ar
    83    41    42    1
    84    61    58   ar
    85    59    57   ar
    86    47    45   ar
    87    47    49   ar
    88    45    46   ar
    89    58    56   ar
    90    54    53    2
    91    42    43    2
    92    49    50   ar
    93    57    56   ar
    94    46    48   ar
    95    56    55    1
    96    53    52    1
    97    50    48   ar
    98    52    55    1
    99    52    51    1
