@<TRIPOS>MOLECULE
tmp/5xj6A02.pdb
 100 95 0 0 0
SMALL
GASTEIGER

@<TRIPOS>ATOM
      1  N         60.9440   25.1680  122.9390 N.3     3  ALA3       -0.1231
      2  CA        59.6610   25.0240  122.2540 C.3     3  ALA3        0.1694
      3  C         59.6260   25.8490  120.9720 C.2     3  ALA3        0.2591
      4  O         59.4040   25.3170  119.8750 O.2     3  ALA3       -0.2718
      5  CB        58.5190   25.4260  123.1900 C.3     3  ALA3        0.0304
      6  N         59.8460   27.1600  121.0960 N.am    4  LEU4       -0.1980
      7  CA        59.8360   28.0350  119.9270 C.3     4  LEU4        0.1596
      8  C         60.8800   27.6040  118.9060 C.2     4  LEU4        0.2287
      9  O         60.6220   27.6160  117.6940 O.2     4  LEU4       -0.2864
     10  CB        60.0710   29.4790  120.3660 C.3     4  LEU4        0.0297
     11  CG        60.1280   30.5280  119.2590 C.3     4  LEU4        0.0022
     12  CD1       58.7490   30.7280  118.6540 C.3     4  LEU4        0.0001
     13  CD2       60.6790   31.8330  119.8030 C.3     4  LEU4        0.0001
     14  N         59.4070   24.6270  117.0120 N.3     7  VAL7       -0.1245
     15  CA        58.3890   25.0340  116.0460 C.3     7  VAL7        0.1561
     16  C         59.0500   25.6300  114.8060 C.2     7  VAL7        0.2260
     17  O         58.7170   25.2750  113.6670 O.2     7  VAL7       -0.2867
     18  CB        57.3970   26.0180  116.6910 C.3     7  VAL7        0.0252
     19  CG1       56.3060   26.4110  115.7060 C.3     7  VAL7        0.0019
     20  CG2       56.7900   25.4040  117.9380 C.3     7  VAL7        0.0019
     21  N         50.8070   18.6300  125.0690 N.3    78  SER78      -0.1202
     22  CA        51.4240   19.9440  124.9570 C.3    78  SER78       0.2020
     23  C         51.0100   20.6380  123.6630 C.2    78  SER78       0.2619
     24  O         50.8700   20.0020  122.6160 O.2    78  SER78      -0.2717
     25  CB        52.9460   19.8140  125.0140 C.3    78  SER78       0.2103
     26  OG        53.5750   21.0740  124.8720 O.3    78  SER78      -0.2182
     27  N         50.8170   21.9580  123.7440 N.am   79  TRP79      -0.1961
     28  CA        50.5250   22.7560  122.5580 C.3    79  TRP79       0.1771
     29  C         51.7610   22.9730  121.6940 C.2    79  TRP79       0.2619
     30  O         51.6340   23.3980  120.5360 O.2    79  TRP79      -0.2715
     31  CB        49.9150   24.0980  122.9690 C.3    79  TRP79       0.0590
     32  CG        48.4700   23.9710  123.3340 C.ar   79  TRP79       0.0006
     33  CD1       47.9570   23.6670  124.5610 C.ar   79  TRP79       0.0946
     34  CD2       47.3480   24.1260  122.4570 C.ar   79  TRP79       0.0152
     35  NE1       46.5840   23.6260  124.5030 N.ar   79  TRP79      -0.2442
     36  CE2       46.1860   23.9050  123.2220 C.ar   79  TRP79       0.0810
     37  CE3       47.2140   24.4360  121.1010 C.ar   79  TRP79       0.0012
     38  CZ2       44.9070   23.9840  122.6770 C.ar   79  TRP79       0.0191
     39  CZ3       45.9430   24.5140  120.5610 C.ar   79  TRP79       0.0001
     40  CH2       44.8070   24.2860  121.3470 C.ar   79  TRP79       0.0015
     41  N         52.9490   22.6850  122.2330 N.am   80  VAL80      -0.1977
     42  CA        54.1590   22.6420  121.4180 C.3    80  VAL80       0.1596
     43  C         54.0320   21.5810  120.3350 C.2    80  VAL80       0.2287
     44  O         54.5690   21.7370  119.2320 O.2    80  VAL80      -0.2864
     45  CB        55.3890   22.3890  122.3110 C.3    80  VAL80       0.0276
     46  CG1       56.6700   22.4330  121.4910 C.3    80  VAL80       0.0022
     47  CG2       55.4340   23.3950  123.4540 C.3    80  VAL80       0.0022
     48  N         51.6130   23.0770  117.5910 N.3    83  PHE83      -0.1241
     49  CA        52.2880   24.0430  116.7320 C.3    83  PHE83       0.1605
     50  C         53.4370   23.4120  115.9550 C.2    83  PHE83       0.2264
     51  O         53.8030   23.9110  114.8870 O.2    83  PHE83      -0.2867
     52  CB        52.7800   25.2210  117.5700 C.3    83  PHE83       0.0534
     53  CG        51.6730   25.9820  118.2370 C.ar   83  PHE83      -0.0203
     54  CD1       50.5460   26.3570  117.5230 C.ar   83  PHE83      -0.0042
     55  CD2       51.7500   26.3100  119.5760 C.ar   83  PHE83      -0.0042
     56  CE1       49.5220   27.0550  118.1330 C.ar   83  PHE83      -0.0003
     57  CE2       50.7310   27.0080  120.1920 C.ar   83  PHE83      -0.0003
     58  CZ        49.6150   27.3810  119.4690 C.ar   83  PHE83      -0.0000
     59  N         51.6090   21.5620  113.0330 N.3    86  LEU86      -0.1245
     60  CA        51.1410   22.6170  112.1390 C.3    86  LEU86       0.1561
     61  C         52.3010   23.2620  111.3940 C.2    86  LEU86       0.2260
     62  O         52.1850   23.5760  110.2060 O.2    86  LEU86      -0.2867
     63  CB        50.3670   23.6760  112.9230 C.3    86  LEU86       0.0270
     64  CG        49.0230   23.2710  113.5230 C.3    86  LEU86       0.0019
     65  CD1       48.3780   24.4610  114.2180 C.3    86  LEU86       0.0001
     66  CD2       48.1130   22.7250  112.4420 C.3    86  LEU86       0.0001
     67  N         52.4400   23.3150  107.3930 N.3    90  LEU90      -0.1245
     68  CA        52.4500   24.6190  106.7300 C.3    90  LEU90       0.1561
     69  C         53.7620   24.8580  105.9960 C.2    90  LEU90       0.2260
     70  O         53.7790   25.4740  104.9250 O.2    90  LEU90      -0.2867
     71  CB        52.2140   25.7370  107.7440 C.3    90  LEU90       0.0270
     72  CG        50.7800   25.9880  108.2080 C.3    90  LEU90       0.0019
     73  CD1       50.7850   26.7480  109.5270 C.3    90  LEU90       0.0001
     74  CD2       49.9790   26.7280  107.1480 C.3    90  LEU90       0.0001
     75  N         42.6090   19.7210  117.9810 N.3   164  PHE164     -0.1241
     76  CA        42.7020   20.9720  117.2420 C.3   164  PHE164      0.1605
     77  C         43.7480   20.8740  116.1400 C.2   164  PHE164      0.2264
     78  O         43.5090   21.3070  115.0050 O.2   164  PHE164     -0.2867
     79  CB        43.0180   22.1360  118.1750 C.3   164  PHE164      0.0534
     80  CG        43.1350   23.4420  117.4560 C.ar  164  PHE164     -0.0203
     81  CD1       41.9990   24.1460  117.0950 C.ar  164  PHE164     -0.0042
     82  CD2       44.3750   23.9520  117.1140 C.ar  164  PHE164     -0.0042
     83  CE1       42.0960   25.3410  116.4140 C.ar  164  PHE164     -0.0003
     84  CE2       44.4800   25.1480  116.4380 C.ar  164  PHE164     -0.0003
     85  CZ        43.3380   25.8420  116.0840 C.ar  164  PHE164     -0.0000
     86  N         42.8600   21.4550  112.1400 N.3   168  VAL168     -0.1245
     87  CA        43.4880   22.4830  111.3150 C.3   168  VAL168      0.1561
     88  C         44.2690   21.8570  110.1700 C.2   168  VAL168      0.2260
     89  O         44.2110   22.3340  109.0300 O.2   168  VAL168     -0.2867
     90  CB        44.3810   23.3950  112.1720 C.3   168  VAL168      0.0252
     91  CG1       45.0510   24.4340  111.2950 C.3   168  VAL168      0.0019
     92  CG2       43.5530   24.0640  113.2350 C.3   168  VAL168      0.0019
     93  N         43.3700   22.3810  106.2460 N.3   172  LEU172     -0.1245
     94  CA        44.4540   22.7540  105.3410 C.3   172  LEU172      0.1561
     95  C         44.5250   21.8170  104.1410 C.2   172  LEU172      0.2260
     96  O         44.6100   22.2630  102.9920 O.2   172  LEU172     -0.2867
     97  CB        45.7870   22.7400  106.0910 C.3   172  LEU172      0.0270
     98  CG        46.3990   24.0150  106.6700 C.3   172  LEU172      0.0019
     99  CD1       45.3710   24.8550  107.3920 C.3   172  LEU172      0.0001
    100  CD2       47.5430   23.6480  107.6000 C.3   172  LEU172      0.0001
@<TRIPOS>BOND
     1    96    95    2
     2    95    94    1
     3    70    69    2
     4    94    97    1
     5    94    93    1
     6    69    68    1
     7    97    98    1
     8    98    99    1
     9    98   100    1
    10    68    67    1
    11    68    71    1
    12    74    72    1
    13    71    72    1
    14    72    73    1
    15    89    88    2
    16    88    87    1
    17    62    61    2
    18    91    90    1
    19    87    86    1
    20    87    90    1
    21    61    60    1
    22    60    63    1
    23    60    59    1
    24    90    92    1
    25    66    64    1
    26    63    64    1
    27    64    65    1
    28    17    16    2
    29    16    15    1
    30    51    50    2
    31    78    77    2
    32    19    18    1
    33    50    49    1
    34    15    18    1
    35    15    14    1
    36    85    83   ar
    37    85    84   ar
    38    77    76    1
    39    83    81   ar
    40    84    82   ar
    41    18    20    1
    42    49    52    1
    43    49    48    1
    44    81    80   ar
    45    82    80   ar
    46    76    75    1
    47    76    79    1
    48    80    79    1
    49    54    56   ar
    50    54    53   ar
    51    52    53    1
    52     9     8    2
    53    56    58   ar
    54    53    55   ar
    55    12    11    1
    56     8     7    1
    57    44    43    2
    58    11    13    1
    59    11    10    1
    60    58    57   ar
    61    55    57   ar
    62     4     3    2
    63     7    10    1
    64     7     6    1
    65    43    42    1
    66    30    29    2
    67    39    37   ar
    68    39    40   ar
    69     3     6   am
    70     3     2    1
    71    37    34   ar
    72    40    38   ar
    73    42    41    1
    74    42    45    1
    75    46    45    1
    76    29    41   am
    77    29    28    1
    78     2     1    1
    79     2     5    1
    80    45    47    1
    81    34    36   ar
    82    34    32   ar
    83    28    31    1
    84    28    27    1
    85    24    23    2
    86    38    36   ar
    87    31    32    1
    88    36    35   ar
    89    32    33   ar
    90    23    27   am
    91    23    22    1
    92    35    33   ar
    93    26    25    1
    94    22    25    1
    95    22    21    1
