@<TRIPOS>MOLECULE
tmp/5xj6A00.pdb
 122 111 0 0 0
SMALL
GASTEIGER

@<TRIPOS>ATOM
      1  N         49.7010   17.1800   87.9000 N.3    35  SER35      -0.1217
      2  CA        48.8360   18.1290   88.5910 C.3    35  SER35       0.1889
      3  C         49.5480   19.4210   88.9700 C.2    35  SER35       0.2288
      4  O         48.9210   20.2980   89.5730 O.2    35  SER35      -0.2866
      5  CB        48.2520   17.4840   89.8520 C.3    35  SER35       0.2089
      6  OG        49.2790   17.0220   90.7130 O.3    35  SER35      -0.2183
      7  N         51.6880   19.5350   91.2470 N.3    37  ASN37      -0.1240
      8  CA        52.0670   19.3610   92.6390 C.3    37  ASN37       0.1653
      9  C         53.5070   18.8670   92.7490 C.2    37  ASN37       0.2266
     10  O         54.0970   18.3590   91.7920 O.2    37  ASN37      -0.2867
     11  CB        51.1210   18.3820   93.3360 C.3    37  ASN37       0.1155
     12  CG        51.1260   18.5420   94.8440 C.2    37  ASN37       0.2627
     13  OD1       51.0300   19.6540   95.3590 O.2    37  ASN37      -0.2716
     14  ND2       51.2430   17.4290   95.5590 N.am   37  ASN37      -0.0877
     15  N         54.4290   16.7240   95.3040 N.3    39  GLY39      -0.1210
     16  CA        54.4010   15.5700   96.1750 C.3    39  GLY39       0.1956
     17  C         54.6760   14.2610   95.4620 C.2    39  GLY39       0.2612
     18  O         54.9850   14.2100   94.2670 O.2    39  GLY39      -0.2717
     19  N         54.5330   13.1740   96.2240 N.am   40  ALA40      -0.1965
     20  CA        54.9200   11.8520   95.7460 C.3    40  ALA40       0.1728
     21  C         54.1280   11.4210   94.5200 C.2    40  ALA40       0.2617
     22  O         54.6640   10.7140   93.6600 O.2    40  ALA40      -0.2715
     23  CB        54.7530   10.8220   96.8630 C.3    40  ALA40       0.0334
     24  N         52.8560   11.8100   94.4250 N.am   41  THR41      -0.1937
     25  CA        52.0450   11.3870   93.2870 C.3    41  THR41       0.2028
     26  C         52.5510   12.0180   91.9950 C.2    41  THR41       0.2642
     27  O         52.8050   11.3210   91.0040 O.2    41  THR41      -0.2714
     28  CB        50.5750   11.7410   93.5240 C.3    41  THR41       0.1808
     29  OG1       50.1800   11.3180   94.8350 O.3    41  THR41      -0.2208
     30  CG2       49.6910   11.0640   92.4910 C.3    41  THR41       0.0379
     31  N         52.7160   13.3410   91.9920 N.am   42  ASN42      -0.1971
     32  CA        53.2100   14.0190   90.8010 C.3    42  ASN42       0.1688
     33  C         54.6580   13.6450   90.5050 C.2    42  ASN42       0.2292
     34  O         55.0370   13.5220   89.3340 O.2    42  ASN42      -0.2864
     35  CB        53.0680   15.5290   90.9680 C.3    42  ASN42       0.1181
     36  CG        52.8440   16.2410   89.6520 C.2    42  ASN42       0.2629
     37  OD1       52.0120   15.8260   88.8450 O.2    42  ASN42      -0.2716
     38  ND2       53.5850   17.3200   89.4270 N.am   42  ASN42      -0.0877
     39  N         54.3790   10.5430   88.6300 N.3    45  ARG45      -0.1245
     40  CA        54.0380   10.8200   87.2370 C.3    45  ARG45       0.1563
     41  C         55.2600   11.2770   86.4470 C.2    45  ARG45       0.2260
     42  O         55.4190   10.9190   85.2740 O.2    45  ARG45      -0.2867
     43  CB        52.9420   11.8850   87.1550 C.3    45  ARG45       0.0307
     44  CG        51.5770   11.4870   87.6920 C.3    45  ARG45       0.0489
     45  CD        50.5660   12.5950   87.4170 C.3    45  ARG45       0.2205
     46  NE        49.2730   12.3590   88.0530 N.pl3  45  ARG45      -0.0865
     47  CZ        48.9000   12.9000   89.2100 C.cat  45  ARG45       0.5346
     48  NH1       49.7220   13.7120   89.8630 N.pl3  45  ARG45       0.1354
     49  NH2       47.7040   12.6300   89.7150 N.pl3  45  ARG45       0.1354
     50  N         50.4230   19.5810   99.2170 N.3   104  LYS104     -0.1245
     51  CA        49.1150   19.5280   99.8550 C.3   104  LYS104      0.1561
     52  C         49.1500   18.8580  101.2230 C.2   104  LYS104      0.2260
     53  O         48.1090   18.7820  101.8830 O.2   104  LYS104     -0.2867
     54  CB        48.1180   18.8110   98.9330 C.3   104  LYS104      0.0271
     55  CG        48.3840   19.0850   97.4530 C.3   104  LYS104      0.0035
     56  CD        47.2480   18.6660   96.5310 C.3   104  LYS104      0.0206
     57  CE        47.5010   19.2020   95.1240 C.3   104  LYS104      0.1093
     58  NZ        46.5230   18.7170   94.1110 N.3   104  LYS104     -0.1314
     59  N         49.8710   15.7080  102.6720 N.3   106  VAL106     -0.1245
     60  CA        49.3100   14.4370  103.1290 C.3   106  VAL106      0.1561
     61  C         50.3780   13.5720  103.7930 C.2   106  VAL106      0.2260
     62  O         50.1560   13.0020  104.8690 O.2   106  VAL106     -0.2867
     63  CB        48.6400   13.6960  101.9590 C.3   106  VAL106      0.0252
     64  CG1       47.8250   12.5170  102.4760 C.3   106  VAL106      0.0019
     65  CG2       47.7740   14.6530  101.1620 C.3   106  VAL106      0.0019
     66  N         43.7660    9.1120   93.7930 N.3   138  VAL138     -0.1231
     67  CA        44.6510    9.3770   94.9250 C.3   138  VAL138      0.1692
     68  C         44.0610   10.4560   95.8270 C.2   138  VAL138      0.2592
     69  O         44.0580   10.3260   97.0580 O.2   138  VAL138     -0.2718
     70  CB        46.0560    9.7640   94.4300 C.3   138  VAL138      0.0266
     71  CG1       46.8680   10.3560   95.5640 C.3   138  VAL138      0.0020
     72  CG2       46.7710    8.5620   93.8500 C.3   138  VAL138      0.0020
     73  N         43.5380   11.5270   95.2270 N.am  139  SER139     -0.1952
     74  CA        43.0470   12.6580   96.0080 C.3   139  SER139      0.1924
     75  C         41.8460   12.2740   96.8650 C.2   139  SER139      0.2314
     76  O         41.7770   12.6410   98.0430 O.2   139  SER139     -0.2863
     77  CB        42.7010   13.8150   95.0720 C.3   139  SER139      0.2116
     78  OG        41.6180   13.4730   94.2220 O.3   139  SER139     -0.2180
     79  N         43.0440   10.4490   99.7980 N.3   142  SER142     -0.1217
     80  CA        43.7400   11.3160  100.7420 C.3   142  SER142      0.1889
     81  C         42.7570   12.1460  101.5710 C.2   142  SER142      0.2288
     82  O         42.9480   12.3190  102.7770 O.2   142  SER142     -0.2866
     83  CB        44.7100   12.2230   99.9910 C.3   142  SER142      0.2089
     84  OG        44.9800   13.3940  100.7360 O.3   142  SER142     -0.2183
     85  N         43.2910   20.6990   98.4560 N.3   177  HIS177     -0.1241
     86  CA        42.7560   19.7670   97.4720 C.3   177  HIS177      0.1621
     87  C         41.5760   20.3210   96.6810 C.2   177  HIS177      0.2264
     88  O         41.0340   19.5980   95.8440 O.2   177  HIS177     -0.2867
     89  CB        42.3340   18.4610   98.1540 C.3   177  HIS177      0.0745
     90  CG        43.4650   17.5120   98.3890 C.ar  177  HIS177      0.0817
     91  ND1       44.4600   17.7580   99.3090 N.ar  177  HIS177     -0.2268
     92  CD2       43.7740   16.3300   97.8060 C.ar  177  HIS177      0.1154
     93  CE1       45.3260   16.7600   99.2950 C.ar  177  HIS177      0.1986
     94  NE2       44.9330   15.8810   98.3910 N.ar  177  HIS177     -0.2212
     95  N         41.5680   19.5150   93.0150 N.3   180  ASN180     -0.1240
     96  CA        41.2990   18.0880   92.8530 C.3   180  ASN180      0.1653
     97  C         39.8240   17.7850   93.0660 C.2   180  ASN180      0.2266
     98  O         39.2710   16.8890   92.4200 O.2   180  ASN180     -0.2867
     99  CB        42.1310   17.2610   93.8370 C.3   180  ASN180      0.1155
    100  CG        43.6060   17.5890   93.7870 C.2   180  ASN180      0.2627
    101  OD1       44.0700   18.5020   94.4670 O.2   180  ASN180     -0.2716
    102  ND2       44.3610   16.8150   93.0140 N.am  180  ASN180     -0.0877
    103  N         37.8550   18.9110   90.0510 N.3   183  ARG183     -0.1245
    104  CA        38.1830   17.9300   89.0180 C.3   183  ARG183      0.1563
    105  C         37.4290   16.6220   89.2330 C.2   183  ARG183      0.2260
    106  O         37.0210   15.9660   88.2670 O.2   183  ARG183     -0.2867
    107  CB        39.6900   17.6740   88.9790 C.3   183  ARG183      0.0307
    108  CG        40.4920   18.7700   88.2910 C.3   183  ARG183      0.0489
    109  CD        41.8230   18.2440   87.7690 C.3   183  ARG183      0.2205
    110  NE        42.7220   17.8350   88.8470 N.pl3 183  ARG183     -0.0865
    111  CZ        43.6150   18.6350   89.4220 C.cat 183  ARG183      0.5346
    112  NH1       43.7270   19.9000   89.0340 N.pl3 183  ARG183      0.1354
    113  NH2       44.3930   18.1740   90.3930 N.pl3 183  ARG183      0.1354
    114  N         39.3350   14.3640   86.9530 N.3   189  GLU189     -0.1245
    115  CA        40.4060   14.0200   87.8720 C.3   189  GLU189      0.1567
    116  C         41.1140   12.7650   87.3860 C.2   189  GLU189      0.2260
    117  O         40.4750   11.8070   86.9450 O.2   189  GLU189     -0.2867
    118  CB        39.8570   13.8100   89.2860 C.3   189  GLU189      0.0388
    119  CG        40.8220   13.1410   90.2690 C.3   189  GLU189      0.1160
    120  CD        41.9170   14.0700   90.7810 C.2   189  GLU189      0.3649
    121  OE1       42.3690   14.9660   90.0330 O.co2 189  GLU189     -0.2457
    122  OE2       42.3230   13.9040   91.9520 O.co2 189  GLU189     -0.2457
@<TRIPOS>BOND
     1    42    41    2
     2    41    40    1
     3   117   116    2
     4   114   115    1
     5    43    40    1
     6    43    44    1
     7    40    39    1
     8   116   115    1
     9    45    44    1
    10    45    46    1
    11   109   108    1
    12   109   110    1
    13   115   118    1
    14     1     2    1
    15    46    47    2
    16   106   105    2
    17   108   107    1
    18     2     3    1
    19     2     5    1
    20    37    36    2
    21   110   111    2
    22     3     4    2
    23   107   104    1
    24   104   105    1
    25   104   103    1
    26   112   111    1
    27    47    49    1
    28    47    48    1
    29   118   119    1
    30    34    33    2
    31   111   113    1
    32    38    36   am
    33    36    35    1
    34     5     6    1
    35   121   120   ar
    36   119   120    1
    37    33    32    1
    38   120   122   ar
    39    32    35    1
    40    32    31    1
    41    27    26    2
    42     7     8    1
    43    10     9    2
    44    31    26   am
    45    26    25    1
    46    98    97    2
    47    30    28    1
    48     8     9    1
    49     8    11    1
    50    96    95    1
    51    96    97    1
    52    96    99    1
    53   102   100   am
    54    25    28    1
    55    25    24    1
    56    11    12    1
    57    28    29    1
    58    22    21    2
    59   100    99    1
    60   100   101    2
    61    66    67    1
    62    72    70    1
    63    58    57    1
    64    78    77    1
    65    18    17    2
    66    24    21   am
    67    70    67    1
    68    70    71    1
    69    21    20    1
    70    12    13    2
    71    12    14   am
    72    67    68    1
    73    77    74    1
    74    57    56    1
    75    73    68   am
    76    73    74    1
    77    15    16    1
    78    17    16    1
    79    17    19   am
    80    20    19    1
    81    20    23    1
    82    68    69    2
    83    88    87    2
    84    74    75    1
    85    56    55    1
    86    87    86    1
    87    75    76    2
    88    55    54    1
    89    86    89    1
    90    86    85    1
    91    92    90   ar
    92    92    94   ar
    93    89    90    1
    94    90    91   ar
    95    94    93   ar
    96    54    51    1
    97    50    51    1
    98    93    91   ar
    99    79    80    1
   100    51    52    1
   101    83    84    1
   102    83    80    1
   103    80    81    1
   104    65    63    1
   105    52    53    2
   106    81    82    2
   107    63    64    1
   108    63    60    1
   109    59    60    1
   110    60    61    1
   111    61    62    2
