@<TRIPOS>MOLECULE
tmp/5xj7A06.pdb
 176 165 0 0 0
SMALL
GASTEIGER

@<TRIPOS>ATOM
      1  N        -26.5050    7.9100   -6.2680 N.3    39  GLY39      -0.1210
      2  CA       -26.3250    6.7810   -7.1570 C.3    39  GLY39       0.1956
      3  C        -27.1900    5.5730   -6.8120 C.2    39  GLY39       0.2612
      4  O        -27.9200    5.5360   -5.8230 O.2    39  GLY39      -0.2717
      5  N        -27.0920    4.5540   -7.6680 N.am   40  ALA40      -0.1965
      6  CA       -27.9160    3.3600   -7.5010 C.3    40  ALA40       0.1728
      7  C        -27.7080    2.7070   -6.1380 C.2    40  ALA40       0.2616
      8  O        -28.6380    2.0980   -5.5920 O.2    40  ALA40      -0.2715
      9  CB       -27.6130    2.3620   -8.6190 C.3    40  ALA40       0.0334
     10  N        -26.5100    2.8420   -5.5700 N.am   41  THR41      -0.1951
     11  CA       -26.1940    2.1770   -4.3070 C.3    41  THR41       0.1897
     12  C        -27.0300    2.7450   -3.1620 C.2    41  THR41       0.2313
     13  O        -27.6220    1.9970   -2.3730 O.2    41  THR41      -0.2863
     14  CB       -24.6970    2.3250   -4.0150 C.3    41  THR41       0.1794
     15  OG1      -23.9430    1.6330   -5.0200 O.3    41  THR41      -0.2208
     16  CG2      -24.3400    1.7730   -2.6270 C.3    41  THR41       0.0378
     17  N        -29.8110    2.2590  -11.6730 N.3    56  PHE56      -0.1241
     18  CA       -28.6070    1.7890  -12.3520 C.3    56  PHE56       0.1605
     19  C        -28.8050    1.7500  -13.8600 C.2    56  PHE56       0.2264
     20  O        -27.9530    2.2270  -14.6220 O.2    56  PHE56      -0.2867
     21  CB       -28.2140    0.4010  -11.8460 C.3    56  PHE56       0.0534
     22  CG       -27.2660   -0.3320  -12.7710 C.ar   56  PHE56      -0.0203
     23  CD1      -25.9120   -0.0300  -12.7750 C.ar   56  PHE56      -0.0042
     24  CD2      -27.7300   -1.3190  -13.6270 C.ar   56  PHE56      -0.0042
     25  CE1      -25.0360   -0.6930  -13.6180 C.ar   56  PHE56      -0.0003
     26  CE2      -26.8580   -1.9910  -14.4830 C.ar   56  PHE56      -0.0003
     27  CZ       -25.5100   -1.6870  -14.4700 C.ar   56  PHE56      -0.0000
     28  N        -29.1160    5.4040  -15.2500 N.3    59  ASP59      -0.1239
     29  CA       -27.8200    6.0700  -15.2770 C.3    59  ASP59       0.1674
     30  C        -26.8740    5.3920  -16.2730 C.2    59  ASP59       0.2266
     31  O        -26.0490    6.0640  -16.9020 O.2    59  ASP59      -0.2867
     32  CB       -27.2330    6.1140  -13.8630 C.3    59  ASP59       0.1410
     33  CG       -27.8970    7.1700  -12.9700 C.2    59  ASP59       0.3668
     34  OD1      -28.5210    8.1230  -13.4880 O.co2  59  ASP59      -0.2456
     35  OD2      -27.7780    7.0570  -11.7320 O.co2  59  ASP59      -0.2456
     36  N        -22.8630   13.3720  -15.0210 N.3    92  HIS92      -0.1241
     37  CA       -23.2680   12.6580  -13.8110 C.3    92  HIS92       0.1621
     38  C        -22.5160   13.1670  -12.5890 C.2    92  HIS92       0.2264
     39  O        -23.0930   13.3060  -11.5020 O.2    92  HIS92      -0.2867
     40  CB       -23.0350   11.1550  -13.9920 C.3    92  HIS92       0.0745
     41  CG       -23.5510   10.3400  -12.8520 C.ar   92  HIS92       0.0817
     42  ND1      -24.8260    9.8190  -12.8350 N.ar   92  HIS92      -0.2268
     43  CD2      -22.9790    9.9780  -11.6800 C.ar   92  HIS92       0.1154
     44  CE1      -25.0110    9.1520  -11.7100 C.ar   92  HIS92       0.1986
     45  NE2      -23.9090    9.2400  -10.9880 N.ar   92  HIS92      -0.2212
     46  N        -22.9950   12.2880   -8.7330 N.3   103  GLY103     -0.1210
     47  CA       -22.6370   10.9760   -8.2580 C.3   103  GLY103      0.1956
     48  C        -21.1990   10.6360   -8.5800 C.2   103  GLY103      0.2612
     49  O        -20.3630   11.5120   -8.8390 O.2   103  GLY103     -0.2717
     50  N        -20.9020    9.3380   -8.5820 N.am  104  LYS104     -0.1965
     51  CA       -19.5350    8.9020   -8.8180 C.3   104  LYS104      0.1728
     52  C        -19.2850    8.4370  -10.2450 C.2   104  LYS104      0.2617
     53  O        -18.1220    8.2530  -10.6160 O.2   104  LYS104     -0.2715
     54  CB       -19.1700    7.7920   -7.8220 C.3   104  LYS104      0.0311
     55  CG       -19.2010    8.3050   -6.3620 C.3   104  LYS104      0.0038
     56  CD       -18.8850    7.2010   -5.3680 C.3   104  LYS104      0.0206
     57  CE       -19.1920    7.6390   -3.9330 C.3   104  LYS104      0.1093
     58  NZ       -18.7200    6.6120   -2.9810 N.3   104  LYS104     -0.1314
     59  N        -20.3280    8.2670  -11.0500 N.am  105  GLY105     -0.1940
     60  CA       -20.1580    8.0640  -12.4790 C.3   105  GLY105      0.2014
     61  C        -19.9490    6.6320  -12.9230 C.2   105  GLY105      0.2639
     62  O        -19.6390    6.4040  -14.1030 O.2   105  GLY105     -0.2714
     63  N        -20.1310    5.6600  -12.0340 N.am  106  VAL106     -0.1963
     64  CA       -19.7540    4.2840  -12.3630 C.3   106  VAL106      0.1727
     65  C        -20.7580    3.6520  -13.3250 C.2   106  VAL106      0.2616
     66  O        -20.3700    3.0040  -14.3000 O.2   106  VAL106     -0.2715
     67  CB       -19.6010    3.4470  -11.0820 C.3   106  VAL106      0.0290
     68  CG1      -19.2890    1.9920  -11.4560 C.3   106  VAL106      0.0023
     69  CG2      -18.5050    4.0310  -10.1860 C.3   106  VAL106      0.0023
     70  N        -22.0610    3.7950  -13.0520 N.am  107  ALA107     -0.1977
     71  CA       -23.0530    3.2030  -13.9530 C.3   107  ALA107      0.1597
     72  C        -23.0010    3.8540  -15.3290 C.2   107  ALA107      0.2287
     73  O        -23.0950    3.1740  -16.3600 O.2   107  ALA107     -0.2864
     74  CB       -24.4580    3.3430  -13.3690 C.3   107  ALA107      0.0319
     75  N        -20.4120    5.3370  -16.7260 N.3   109  ALA109     -0.1231
     76  CA       -19.1770    4.9170  -17.3770 C.3   109  ALA109      0.1694
     77  C        -19.2990    3.5130  -17.9580 C.2   109  ALA109      0.2591
     78  O        -18.7750    3.2380  -19.0410 O.2   109  ALA109     -0.2718
     79  CB       -18.0140    4.9870  -16.3870 C.3   109  ALA109      0.0304
     80  N        -19.9640    2.6030  -17.2400 N.am  110  LEU110     -0.1980
     81  CA       -20.2030    1.2760  -17.8050 C.3   110  LEU110      0.1596
     82  C        -21.0030    1.3830  -19.0950 C.2   110  LEU110      0.2287
     83  O        -20.7440    0.6520  -20.0640 O.2   110  LEU110     -0.2864
     84  CB       -20.9300    0.3890  -16.7860 C.3   110  LEU110      0.0297
     85  CG       -21.2430   -1.0330  -17.2740 C.3   110  LEU110      0.0022
     86  CD1      -19.9470   -1.7940  -17.4490 C.3   110  LEU110      0.0001
     87  CD2      -22.1440   -1.7470  -16.2880 C.3   110  LEU110      0.0001
     88  N        -18.6840    2.2660  -21.9270 N.3   113  VAL113     -0.1245
     89  CA       -17.8790    1.1130  -22.3420 C.3   113  VAL113      0.1561
     90  C        -18.7240    0.1250  -23.1430 C.2   113  VAL113      0.2260
     91  O        -18.2760   -0.4120  -24.1640 O.2   113  VAL113     -0.2867
     92  CB       -17.2290    0.4410  -21.1170 C.3   113  VAL113      0.0252
     93  CG1      -16.4510   -0.8060  -21.5400 C.3   113  VAL113      0.0019
     94  CG2      -16.3020    1.4260  -20.4050 C.3   113  VAL113      0.0019
     95  N        -15.8670   -6.3340  -17.4410 N.3   124  SER124     -0.1202
     96  CA       -15.6580   -5.3830  -16.3520 C.3   124  SER124      0.2020
     97  C        -16.7300   -5.5230  -15.2840 C.2   124  SER124      0.2618
     98  O        -16.4380   -5.4110  -14.0870 O.2   124  SER124     -0.2717
     99  CB       -15.6390   -3.9540  -16.8960 C.3   124  SER124      0.2103
    100  OG       -14.6380   -3.8430  -17.8900 O.3   124  SER124     -0.2182
    101  N        -17.9770   -5.7590  -15.6940 N.am  125  PHE125     -0.1975
    102  CA       -19.0330   -5.9680  -14.7160 C.3   125  PHE125      0.1639
    103  C        -18.8410   -7.2700  -13.9420 C.2   125  PHE125      0.2290
    104  O        -19.1980   -7.3370  -12.7600 O.2   125  PHE125     -0.2864
    105  CB       -20.4050   -5.9450  -15.3910 C.3   125  PHE125      0.0560
    106  CG       -21.5480   -6.1030  -14.4210 C.ar  125  PHE125     -0.0200
    107  CD1      -21.9760   -5.0250  -13.6540 C.ar  125  PHE125     -0.0042
    108  CD2      -22.1710   -7.3320  -14.2500 C.ar  125  PHE125     -0.0042
    109  CE1      -23.0120   -5.1670  -12.7490 C.ar  125  PHE125     -0.0003
    110  CE2      -23.2100   -7.4830  -13.3450 C.ar  125  PHE125     -0.0003
    111  CZ       -23.6340   -6.4040  -12.5970 C.ar  125  PHE125     -0.0000
    112  N        -16.4270   -6.4080  -11.2540 N.3   128  TRP128     -0.1241
    113  CA       -17.1760   -5.7220  -10.2020 C.3   128  TRP128      0.1605
    114  C        -17.9390   -6.7110   -9.3280 C.2   128  TRP128      0.2264
    115  O        -17.8470   -6.6750   -8.0940 O.2   128  TRP128     -0.2867
    116  CB       -18.1480   -4.7070  -10.8130 C.3   128  TRP128      0.0550
    117  CG       -18.7940   -3.8230   -9.7750 C.ar  128  TRP128      0.0003
    118  CD1      -18.3530   -2.6060   -9.3490 C.ar  128  TRP128      0.0946
    119  CD2      -19.9890   -4.0990   -9.0260 C.ar  128  TRP128      0.0152
    120  NE1      -19.1930   -2.1060   -8.3780 N.ar  128  TRP128     -0.2442
    121  CE2      -20.2050   -3.0020   -8.1640 C.ar  128  TRP128      0.0810
    122  CE3      -20.8950   -5.1630   -9.0010 C.ar  128  TRP128      0.0012
    123  CZ2      -21.2880   -2.9430   -7.2840 C.ar  128  TRP128      0.0191
    124  CZ3      -21.9680   -5.1000   -8.1240 C.ar  128  TRP128      0.0001
    125  CH2      -22.1550   -3.9960   -7.2830 C.ar  128  TRP128      0.0015
    126  N        -19.0490   -1.8970   -2.0650 N.3   138  VAL138     -0.1245
    127  CA       -19.3400   -1.3780   -3.4090 C.3   138  VAL138      0.1561
    128  C        -18.1540   -0.5860   -3.9530 C.2   138  VAL138      0.2260
    129  O        -17.7660   -0.7390   -5.1260 O.2   138  VAL138     -0.2867
    130  CB       -20.6270   -0.5360   -3.3890 C.3   138  VAL138      0.0252
    131  CG1      -20.8210    0.1830   -4.7230 C.3   138  VAL138      0.0019
    132  CG2      -21.8200   -1.4190   -3.0690 C.3   138  VAL138      0.0019
    133  N        -16.1430   -1.0850   -7.4440 N.3   142  SER142     -0.1217
    134  CA       -16.1520   -0.0730   -8.5040 C.3   142  SER142      0.1889
    135  C        -14.7400    0.3610   -8.8760 C.2   142  SER142      0.2288
    136  O        -14.4250    0.5460  -10.0600 O.2   142  SER142     -0.2866
    137  CB       -16.9780    1.1410   -8.0710 C.3   142  SER142      0.2089
    138  OG       -18.3310    0.7930   -7.8230 O.3   142  SER142     -0.2183
    139  N        -12.9540   -2.6220  -10.7440 N.3   145  ALA145     -0.1231
    140  CA       -13.5120   -2.8780  -12.0680 C.3   145  ALA145      0.1694
    141  C        -13.2510   -1.7250  -13.0210 C.2   145  ALA145      0.2592
    142  O        -13.1490   -1.9340  -14.2410 O.2   145  ALA145     -0.2718
    143  CB       -15.0130   -3.1500  -11.9530 C.3   145  ALA145      0.0304
    144  N        -13.1450   -0.5040  -12.4870 N.am  146  THR146     -0.1953
    145  CA       -12.7940    0.6440  -13.3150 C.3   146  THR146      0.1897
    146  C        -11.3840    0.4890  -13.8720 C.2   146  THR146      0.2313
    147  O        -11.1460    0.6980  -15.0690 O.2   146  THR146     -0.2863
    148  CB       -12.9440    1.9210  -12.4840 C.3   146  THR146      0.1794
    149  OG1      -14.3360    2.1400  -12.2320 O.3   146  THR146     -0.2208
    150  CG2      -12.3700    3.1490  -13.1990 C.3   146  THR146      0.0378
    151  N        -11.4220   -2.3180  -16.5410 N.3   149  ALA149     -0.1245
    152  CA       -11.9610   -1.9430  -17.8460 C.3   149  ALA149      0.1562
    153  C        -10.8790   -1.3480  -18.7380 C.2   149  ALA149      0.2260
    154  O        -10.8200   -1.6480  -19.9410 O.2   149  ALA149     -0.2867
    155  CB       -13.1200   -0.9570  -17.6820 C.3   149  ALA149      0.0290
    156  N        -10.8260    6.1120  -21.4250 N.3   166  ALA166     -0.1245
    157  CA       -10.9440    5.2300  -20.2670 C.3   166  ALA166      0.1562
    158  C        -10.0530    5.6880  -19.1150 C.2   166  ALA166      0.2260
    159  O        -10.4520    5.6010  -17.9450 O.2   166  ALA166     -0.2867
    160  CB       -10.6080    3.7890  -20.6700 C.3   166  ALA166      0.0290
    161  N        -11.6890    8.9890  -17.6140 N.3   169  ILE169     -0.1245
    162  CA       -12.8930    8.6200  -16.8670 C.3   169  ILE169      0.1561
    163  C        -12.5230    7.8510  -15.6040 C.2   169  ILE169      0.2260
    164  O        -13.0720    8.0980  -14.5250 O.2   169  ILE169     -0.2867
    165  CB       -13.8560    7.8100  -17.7520 C.3   169  ILE169      0.0252
    166  CG1      -14.5350    8.7220  -18.7760 C.3   169  ILE169      0.0019
    167  CG2      -14.8910    7.0700  -16.8860 C.3   169  ILE169      0.0019
    168  CD1      -15.3430    7.9460  -19.8040 C.3   169  ILE169      0.0001
    169  N        -13.3710    8.8230  -11.7440 N.3   173  ILE173     -0.1245
    170  CA       -14.1210    7.9300  -10.8630 C.3   173  ILE173      0.1561
    171  C        -13.3460    7.6750   -9.5780 C.2   173  ILE173      0.2260
    172  O        -13.9060    7.6860   -8.4790 O.2   173  ILE173     -0.2867
    173  CB       -14.4290    6.5990  -11.5850 C.3   173  ILE173      0.0252
    174  CG1      -15.4390    6.8040  -12.7040 C.3   173  ILE173      0.0019
    175  CG2      -14.9500    5.5650  -10.5760 C.3   173  ILE173      0.0019
    176  CD1      -15.6450    5.5080  -13.5430 C.3   173  ILE173      0.0001
@<TRIPOS>BOND
     1    91    90    2
     2    90    89    1
     3    89    88    1
     4    89    92    1
     5    93    92    1
     6   156   157    1
     7    92    94    1
     8   160   157    1
     9   157   158    1
    10    83    82    2
    11   154   153    2
    12   168   166    1
    13   158   159    2
    14    82    81    1
    15    78    77    2
    16   166   165    1
    17   153   152    1
    18    77    76    1
    19    77    80   am
    20   100    99    1
    21   152   155    1
    22   152   151    1
    23    81    80    1
    24    81    84    1
    25   165   167    1
    26   165   162    1
    27   161   162    1
    28    86    85    1
    29    95    96    1
    30    76    75    1
    31    76    79    1
    32    85    84    1
    33    85    87    1
    34    31    30    2
    35    99    96    1
    36   162   163    1
    37    73    72    2
    38    96    97    1
    39    30    29    1
    40   101    97   am
    41   101   102    1
    42   163   164    2
    43   105   102    1
    44   105   106    1
    45    72    71    1
    46    97    98    2
    47    29    28    1
    48    29    32    1
    49   147   146    2
    50    36    37    1
    51   102   103    1
    52    20    19    2
    53    26    27   ar
    54    26    24   ar
    55    27    25   ar
    56   106   108   ar
    57   106   107   ar
    58    66    65    2
    59   108   110   ar
    60   142   141    2
    61    62    61    2
    62    40    37    1
    63    40    41    1
    64    71    74    1
    65    71    70    1
    66   103   104    2
    67   146   145    1
    68    32    33    1
    69    19    18    1
    70    37    38    1
    71   107   109   ar
    72    24    22   ar
    73    25    23   ar
    74   176   174    1
    75    34    33   ar
    76   110   111   ar
    77    65    70   am
    78    65    64    1
    79   145   144    1
    80   145   148    1
    81   150   148    1
    82   141   144   am
    83   141   140    1
    84    33    35   ar
    85    61    60    1
    86    61    63   am
    87    41    42   ar
    88    41    43   ar
    89    42    44   ar
    90    23    22   ar
    91    22    21    1
    92   109   111   ar
    93   174   173    1
    94    38    39    2
    95   148   149    1
    96    60    59    1
    97    64    63    1
    98    64    67    1
    99    18    21    1
   100    18    17    1
   101   140   143    1
   102   140   139    1
   103   169   170    1
   104    44    45   ar
   105    43    45   ar
   106   173   170    1
   107   173   175    1
   108    68    67    1
   109   112   113    1
   110    67    69    1
   111    59    52   am
   112   170   171    1
   113   116   113    1
   114   116   117    1
   115    53    52    2
   116    52    51    1
   117   113   114    1
   118   136   135    2
   119   117   118   ar
   120   117   119   ar
   121   171   172    2
   122   118   120   ar
   123   114   115    2
   124   119   122   ar
   125   119   121   ar
   126   122   124   ar
   127   135   134    1
   128    49    48    2
   129    51    50    1
   130    51    54    1
   131    46    47    1
   132     9     6    1
   133    50    48   am
   134    48    47    1
   135   134   137    1
   136   134   133    1
   137   120   121   ar
   138   121   123   ar
   139   124   125   ar
   140   137   138    1
   141    54    55    1
   142     5     6    1
   143     5     3   am
   144     6     7    1
   145   123   125   ar
   146     2     3    1
   147     2     1    1
   148     3     4    2
   149    55    56    1
   150     7     8    2
   151     7    10   am
   152    10    11    1
   153    56    57    1
   154   129   128    2
   155    15    14    1
   156   131   130    1
   157    11    14    1
   158    11    12    1
   159    14    16    1
   160   128   127    1
   161    57    58    1
   162   127   130    1
   163   127   126    1
   164   130   132    1
   165    12    13    2
