@<TRIPOS>MOLECULE
tmp/5xj7A05.pdb
 99 96 0 0 0
SMALL
GASTEIGER

@<TRIPOS>ATOM
      1  N        -17.7740   -1.7630  -26.6300 N.3   117  SER117     -0.1203
      2  CA       -17.5870   -3.2130  -26.6940 C.3   117  SER117      0.2005
      3  C        -18.4100   -3.8500  -25.5920 C.2   117  SER117      0.2461
      4  O        -18.0370   -3.7840  -24.4090 O.2   117  SER117     -0.2732
      5  CB       -16.1210   -3.6060  -26.5460 C.3   117  SER117      0.2103
      6  OG       -16.0240   -4.9990  -26.2640 O.3   117  SER117     -0.2182
      7  N        -19.5550   -4.4460  -25.9200 N.am  118  PRO118     -0.2717
      8  CA       -20.3060   -5.1940  -24.8970 C.3   118  PRO118      0.1536
      9  C        -19.4690   -6.2420  -24.1900 C.2   118  PRO118      0.2599
     10  O        -19.6730   -6.4740  -22.9880 O.2   118  PRO118     -0.2715
     11  CB       -21.4510   -5.8180  -25.7060 C.3   118  PRO118      0.0310
     12  CG       -21.6900   -4.7970  -26.8060 C.3   118  PRO118      0.0237
     13  CD       -20.3070   -4.3170  -27.1800 C.3   118  PRO118      0.0939
     14  N        -18.5290   -6.8890  -24.8960 N.am  119  SER119     -0.1936
     15  CA       -17.7300   -7.9280  -24.2550 C.3   119  SER119      0.2055
     16  C        -16.8380   -7.3390  -23.1680 C.2   119  SER119      0.2642
     17  O        -16.7480   -7.8940  -22.0710 O.2   119  SER119     -0.2714
     18  CB       -16.8970   -8.6840  -25.2920 C.3   119  SER119      0.2130
     19  OG       -15.7990   -7.9210  -25.7500 O.3   119  SER119     -0.2179
     20  N        -16.1730   -6.2170  -23.4570 N.am  120  VAL120     -0.1977
     21  CA       -15.3390   -5.5740  -22.4480 C.3   120  VAL120      0.1596
     22  C        -16.1930   -5.1170  -21.2770 C.2   120  VAL120      0.2287
     23  O        -15.8020   -5.2650  -20.1140 O.2   120  VAL120     -0.2864
     24  CB       -14.5450   -4.4040  -23.0640 C.3   120  VAL120      0.0276
     25  CG1      -13.8550   -3.6160  -21.9610 C.3   120  VAL120      0.0022
     26  CG2      -13.5140   -4.9300  -24.0430 C.3   120  VAL120      0.0022
     27  N        -17.1850   -8.1470  -19.1430 N.3   123  PHE123     -0.1241
     28  CA       -16.0490   -8.6020  -18.3490 C.3   123  PHE123      0.1605
     29  C        -15.7530   -7.6460  -17.2000 C.2   123  PHE123      0.2264
     30  O        -15.3990   -8.0850  -16.0980 O.2   123  PHE123     -0.2867
     31  CB       -14.8200   -8.7670  -19.2350 C.3   123  PHE123      0.0534
     32  CG       -14.7220  -10.1310  -19.8780 C.ar  123  PHE123     -0.0203
     33  CD1      -14.2840  -11.2220  -19.1480 C.ar  123  PHE123     -0.0042
     34  CD2      -15.0640  -10.3150  -21.2030 C.ar  123  PHE123     -0.0042
     35  CE1      -14.1880  -12.4720  -19.7290 C.ar  123  PHE123     -0.0003
     36  CE2      -14.9740  -11.5840  -21.7950 C.ar  123  PHE123     -0.0003
     37  CZ       -14.5340  -12.6470  -21.0560 C.ar  123  PHE123     -0.0000
     38  N        -18.2830   -8.3080  -14.5790 N.3   126  LEU126     -0.1231
     39  CA       -17.9710   -9.5370  -13.8470 C.3   126  LEU126      0.1693
     40  C        -16.8960   -9.2870  -12.8010 C.2   126  LEU126      0.2591
     41  O        -16.9570   -9.8340  -11.6900 O.2   126  LEU126     -0.2718
     42  CB       -17.5110  -10.6390  -14.8150 C.3   126  LEU126      0.0284
     43  CG       -18.3430  -11.8500  -15.2310 C.3   126  LEU126      0.0019
     44  CD1      -17.4010  -12.9530  -15.7260 C.3   126  LEU126      0.0001
     45  CD2      -19.2300  -12.3710  -14.1220 C.3   126  LEU126      0.0001
     46  N        -15.8950   -8.4660  -13.1320 N.am  127  VAL127     -0.1980
     47  CA       -14.9050   -8.0980  -12.1250 C.3   127  VAL127      0.1595
     48  C        -15.5910   -7.4080  -10.9540 C.2   127  VAL127      0.2287
     49  O        -15.3880   -7.7740   -9.7840 O.2   127  VAL127     -0.2864
     50  CB       -13.8020   -7.2110  -12.7370 C.3   127  VAL127      0.0276
     51  CG1      -12.9350   -6.5700  -11.6210 C.3   127  VAL127      0.0022
     52  CG2      -12.9510   -8.0260  -13.6890 C.3   127  VAL127      0.0022
     53  N        -17.6040   -9.9870   -8.9210 N.3   130  GLY130     -0.1210
     54  CA       -16.7260  -10.8550   -8.1500 C.3   130  GLY130      0.1956
     55  C        -16.1530  -10.1590   -6.9280 C.2   130  GLY130      0.2611
     56  O        -16.1510  -10.7080   -5.8180 O.2   130  GLY130     -0.2717
     57  N        -15.6610   -8.9360   -7.1150 N.am  131  ILE131     -0.1979
     58  CA       -15.0740   -8.1990   -6.0000 C.3   131  ILE131      0.1595
     59  C        -16.1420   -7.8570   -4.9750 C.2   131  ILE131      0.2287
     60  O        -15.9090   -7.9330   -3.7600 O.2   131  ILE131     -0.2864
     61  CB       -14.3580   -6.9370   -6.5190 C.3   131  ILE131      0.0276
     62  CG1      -13.2180   -7.3230   -7.4600 C.3   131  ILE131      0.0022
     63  CG2      -13.8270   -6.1070   -5.3540 C.3   131  ILE131      0.0022
     64  CD1      -12.0800   -8.0430   -6.7620 C.3   131  ILE131      0.0001
     65  N         -8.7240   -4.2470  -19.9380 N.3   152  PHE152     -0.1241
     66  CA        -9.4250   -5.0560  -20.9310 C.3   152  PHE152      0.1605
     67  C         -9.4770   -4.3440  -22.2810 C.2   152  PHE152      0.2264
     68  O         -9.3160   -4.9790  -23.3300 O.2   152  PHE152     -0.2867
     69  CB       -10.8450   -5.3740  -20.4550 C.3   152  PHE152      0.0534
     70  CG       -10.9030   -6.2790  -19.2580 C.ar  152  PHE152     -0.0203
     71  CD1       -9.9080   -7.2190  -19.0340 C.ar  152  PHE152     -0.0042
     72  CD2      -11.9540   -6.1930  -18.3610 C.ar  152  PHE152     -0.0042
     73  CE1       -9.9590   -8.0480  -17.9270 C.ar  152  PHE152     -0.0003
     74  CE2      -12.0110   -7.0280  -17.2560 C.ar  152  PHE152     -0.0003
     75  CZ       -11.0110   -7.9510  -17.0410 C.ar  152  PHE152     -0.0000
     76  N         -5.8520   -4.7080  -23.7930 N.3   155  VAL155     -0.1231
     77  CA        -5.5200   -6.0220  -24.3510 C.3   155  VAL155      0.1692
     78  C         -6.4340   -6.3660  -25.5180 C.2   155  VAL155      0.2591
     79  O         -6.0560   -7.1520  -26.3990 O.2   155  VAL155     -0.2718
     80  CB        -5.5590   -7.1280  -23.2760 C.3   155  VAL155      0.0266
     81  CG1       -4.5790   -6.8250  -22.1560 C.3   155  VAL155      0.0020
     82  CG2       -6.9680   -7.3100  -22.7330 C.3   155  VAL155      0.0020
     83  N         -7.6380   -5.7990  -25.5600 N.am  156  ALA156     -0.1980
     84  CA        -8.5230   -6.0580  -26.6860 C.3   156  ALA156      0.1597
     85  C         -8.1590   -5.2440  -27.9230 C.2   156  ALA156      0.2287
     86  O         -8.8440   -5.3760  -28.9400 O.2   156  ALA156     -0.2864
     87  CB        -9.9800   -5.7790  -26.3140 C.3   156  ALA156      0.0319
     88  N         -8.1290   -1.8450  -28.4370 N.3   158  TYR158     -0.1241
     89  CA        -8.8360   -0.6150  -28.7600 C.3   158  TYR158      0.1605
     90  C         -7.8570    0.5670  -28.7980 C.2   158  TYR158      0.2264
     91  O         -6.8270    0.5560  -28.1170 O.2   158  TYR158     -0.2867
     92  CB        -9.9910   -0.3940  -27.7730 C.3   158  TYR158      0.0534
     93  CG       -11.1470   -1.2940  -28.1670 C.ar  158  TYR158     -0.0201
     94  CD1      -11.9890   -0.9470  -29.2200 C.ar  158  TYR158     -0.0009
     95  CD2      -11.3430   -2.5360  -27.5510 C.ar  158  TYR158     -0.0009
     96  CE1      -13.0230   -1.7850  -29.6260 C.ar  158  TYR158      0.0417
     97  CE2      -12.3840   -3.3820  -27.9470 C.ar  158  TYR158      0.0417
     98  CZ       -13.2140   -2.9990  -28.9880 C.ar  158  TYR158      0.1957
     99  OH       -14.2440   -3.8220  -29.4050 O.3   158  TYR158     -0.2866
@<TRIPOS>BOND
     1    96    94   ar
     2    96    98   ar
     3    99    98    1
     4    94    93   ar
     5    98    97   ar
     6    86    85    2
     7    90    89    1
     8    90    91    2
     9    89    88    1
    10    89    92    1
    11    93    92    1
    12    93    95   ar
    13    97    95   ar
    14    85    84    1
    15    13    12    1
    16    13     7    1
    17    12    11    1
    18     2     1    1
    19     2     5    1
    20     2     3    1
    21    84    87    1
    22    84    83    1
    23     5     6    1
    24    79    78    2
    25     7     3   am
    26     7     8    1
    27    19    18    1
    28    11     8    1
    29     3     4    2
    30    83    78   am
    31    78    77    1
    32    18    15    1
    33     8     9    1
    34    14    15    1
    35    14     9   am
    36    77    76    1
    37    77    80    1
    38    15    16    1
    39     9    10    2
    40    26    24    1
    41    20    16   am
    42    20    21    1
    43    68    67    2
    44    80    82    1
    45    80    81    1
    46    16    17    2
    47    24    21    1
    48    24    25    1
    49    21    22    1
    50    67    66    1
    51    36    34   ar
    52    36    37   ar
    53    22    23    2
    54    34    32   ar
    55    37    35   ar
    56    66    69    1
    57    66    65    1
    58    69    70    1
    59    32    31    1
    60    32    33   ar
    61    35    33   ar
    62    70    71   ar
    63    70    72   ar
    64    31    28    1
    65    27    28    1
    66    71    73   ar
    67    72    74   ar
    68    28    29    1
    69    73    75   ar
    70    74    75   ar
    71    29    30    2
    72    44    43    1
    73    43    42    1
    74    43    45    1
    75    42    39    1
    76    38    39    1
    77    39    40    1
    78    52    50    1
    79    46    40   am
    80    46    47    1
    81    40    41    2
    82    50    47    1
    83    50    51    1
    84    47    48    1
    85    48    49    2
    86    53    54    1
    87    54    55    1
    88    62    64    1
    89    62    61    1
    90    57    55   am
    91    57    58    1
    92    55    56    2
    93    61    58    1
    94    61    63    1
    95    58    59    1
    96    59    60    2
