@<TRIPOS>MOLECULE
tmp/5xj9A02.pdb
 142 138 0 0 0
SMALL
GASTEIGER

@<TRIPOS>ATOM
      1  N         17.5280   10.7310  -11.8180 N.3    40  ALA40      -0.1231
      2  CA        16.3050    9.9590  -12.0610 C.3    40  ALA40       0.1694
      3  C         15.5170   10.4560  -13.2750 C.2    40  ALA40       0.2592
      4  O         14.8840    9.6570  -13.9730 O.2    40  ALA40      -0.2718
      5  CB        15.4140    9.9680  -10.8170 C.3    40  ALA40       0.0304
      6  N         15.4860   11.7660  -13.5160 N.am   41  THR41      -0.1953
      7  CA        14.7010   12.2500  -14.6480 C.3    41  THR41       0.1897
      8  C         15.2510   11.7230  -15.9610 C.2    41  THR41       0.2313
      9  O         14.5000   11.2180  -16.8060 O.2    41  THR41      -0.2863
     10  CB        14.6690   13.7680  -14.6730 C.3    41  THR41       0.1794
     11  OG1       14.0880   14.2270  -13.4580 O.3    41  THR41      -0.2208
     12  CG2       13.8290   14.2360  -15.8710 C.3    41  THR41       0.0378
     13  N         14.6140    7.9960  -16.4410 N.3    44  THR44      -0.1218
     14  CA        13.2810    7.6930  -16.9580 C.3    44  THR44       0.1862
     15  C         13.2510    7.7580  -18.4780 C.2    44  THR44       0.2287
     16  O         12.6830    6.8700  -19.1260 O.2    44  THR44      -0.2866
     17  CB        12.2480    8.6540  -16.3720 C.3    44  THR44       0.1770
     18  OG1       12.0820    8.3800  -14.9780 O.3    44  THR44      -0.2211
     19  CG2       10.9060    8.4990  -17.0730 C.3    44  THR44       0.0375
     20  N          9.9090    4.5380  -16.7510 N.3    49  LYS49      -0.1245
     21  CA         9.5010    5.1090  -15.4720 C.3    49  LYS49       0.1561
     22  C          9.9010    4.2010  -14.3210 C.2    49  LYS49       0.2260
     23  O         10.2940    4.6820  -13.2520 O.2    49  LYS49      -0.2867
     24  CB         7.9890    5.3400  -15.4690 C.3    49  LYS49       0.0271
     25  CG         7.4720    6.2070  -14.3340 C.3    49  LYS49       0.0035
     26  CD         7.9680    7.6740  -14.3800 C.3    49  LYS49       0.0206
     27  CE         7.0190    8.5850  -13.5870 C.3    49  LYS49       0.1093
     28  NZ         7.6190    9.9240  -13.6370 N.3    49  LYS49      -0.1314
     29  N         13.4460    4.9360  -13.4510 N.3    52  GLY52      -0.1210
     30  CA        13.5880    6.2870  -12.9320 C.3    52  GLY52       0.1956
     31  C         13.1180    6.4060  -11.4900 C.2    52  GLY52       0.2611
     32  O         13.7620    7.0640  -10.6650 O.2    52  GLY52      -0.2717
     33  N         11.9770    5.7940  -11.1710 N.am   53  VAL53      -0.1979
     34  CA        11.4970    5.8240   -9.7960 C.3    53  VAL53       0.1595
     35  C         12.4620    5.0780   -8.8820 C.2    53  VAL53       0.2287
     36  O         12.7240    5.5090   -7.7510 O.2    53  VAL53      -0.2864
     37  CB        10.0670    5.2520   -9.7150 C.3    53  VAL53       0.0276
     38  CG1        9.6400    5.1240   -8.2660 C.3    53  VAL53       0.0022
     39  CG2        9.0800    6.1470  -10.5000 C.3    53  VAL53       0.0022
     40  N         15.2920    7.3890   -8.3490 N.3    56  PHE56      -0.1227
     41  CA        14.8550    8.4380   -7.4410 C.3    56  PHE56       0.1736
     42  C         14.9690    7.9720   -5.9960 C.2    56  PHE56       0.2595
     43  O         15.4810    8.6900   -5.1370 O.2    56  PHE56      -0.2718
     44  CB        13.4210    8.8690   -7.7100 C.3    56  PHE56       0.0547
     45  CG        12.9080    9.8310   -6.6670 C.ar   56  PHE56      -0.0202
     46  CD1       13.1330   11.1860   -6.7990 C.ar   56  PHE56      -0.0042
     47  CD2       12.2730    9.3750   -5.5270 C.ar   56  PHE56      -0.0042
     48  CE1       12.6980   12.0720   -5.8330 C.ar   56  PHE56      -0.0003
     49  CE2       11.8500   10.2540   -4.5490 C.ar   56  PHE56      -0.0003
     50  CZ        12.0630   11.6010   -4.6980 C.ar   56  PHE56      -0.0000
     51  N         14.4780    6.7720   -5.7080 N.am   57  PHE57      -0.1976
     52  CA        14.4450    6.3510   -4.3170 C.3    57  PHE57       0.1639
     53  C         15.8440    6.0440   -3.7980 C.2    57  PHE57       0.2290
     54  O         16.1430    6.3140   -2.6310 O.2    57  PHE57      -0.2864
     55  CB        13.4880    5.1720   -4.1650 C.3    57  PHE57       0.0560
     56  CG        12.0510    5.6020   -3.9860 C.ar   57  PHE57      -0.0200
     57  CD1       11.7000    6.4480   -2.9420 C.ar   57  PHE57      -0.0042
     58  CD2       11.0630    5.1970   -4.8720 C.ar   57  PHE57      -0.0042
     59  CE1       10.3870    6.8650   -2.7720 C.ar   57  PHE57      -0.0003
     60  CE2        9.7460    5.6080   -4.7040 C.ar   57  PHE57      -0.0003
     61  CZ         9.4070    6.4370   -3.6590 C.ar   57  PHE57      -0.0000
     62  N         17.4450    9.3670   -3.2280 N.3    60  PHE60      -0.1241
     63  CA        16.8360    9.9080   -2.0210 C.3    60  PHE60       0.1605
     64  C         17.4620    9.2840   -0.7730 C.2    60  PHE60       0.2264
     65  O         17.8140    9.9900    0.1770 O.2    60  PHE60      -0.2867
     66  CB        15.3190    9.6760   -2.0590 C.3    60  PHE60       0.0534
     67  CG        14.5880   10.0930   -0.7970 C.ar   60  PHE60      -0.0203
     68  CD1       14.4630    9.2280    0.2750 C.ar   60  PHE60      -0.0042
     69  CD2       13.9730   11.3420   -0.7140 C.ar   60  PHE60      -0.0042
     70  CE1       13.7640    9.6030    1.4140 C.ar   60  PHE60      -0.0003
     71  CE2       13.2800   11.7230    0.4080 C.ar   60  PHE60      -0.0003
     72  CZ        13.1720   10.8580    1.4830 C.ar   60  PHE60      -0.0000
     73  N         16.5690   16.3470   -1.1160 N.3   110  LEU110     -0.1245
     74  CA        15.2570   16.1030   -0.5240 C.3   110  LEU110      0.1561
     75  C         15.3570   15.0780    0.5960 C.2   110  LEU110      0.2260
     76  O         14.7660   15.2600    1.6620 O.2   110  LEU110     -0.2867
     77  CB        14.2690   15.6390   -1.5780 C.3   110  LEU110      0.0270
     78  CG        12.8400   15.3800   -1.0820 C.3   110  LEU110      0.0019
     79  CD1       12.1440   16.6910   -0.7030 C.3   110  LEU110      0.0001
     80  CD2       12.0290   14.5930   -2.1260 C.3   110  LEU110      0.0001
     81  N         14.1880   15.6680    4.3580 N.3   114  PHE114     -0.1241
     82  CA        13.1770   14.8130    4.9650 C.3   114  PHE114      0.1605
     83  C         13.6330   14.2890    6.3260 C.2   114  PHE114      0.2264
     84  O         12.8220   14.1490    7.2510 O.2   114  PHE114     -0.2867
     85  CB        12.8520   13.6430    4.0350 C.3   114  PHE114      0.0534
     86  CG        11.6250   12.8660    4.4480 C.ar  114  PHE114     -0.0203
     87  CD1       10.3610   13.2820    4.0430 C.ar  114  PHE114     -0.0042
     88  CD2       11.7300   11.7230    5.2380 C.ar  114  PHE114     -0.0042
     89  CE1        9.2360   12.5870    4.4170 C.ar  114  PHE114     -0.0003
     90  CE2       10.5970   11.0110    5.6080 C.ar  114  PHE114     -0.0003
     91  CZ         9.3530   11.4430    5.2020 C.ar  114  PHE114     -0.0000
     92  N         10.2120   16.1990    7.8900 N.3   118  PRO118     -0.2102
     93  CA         9.2610   15.7100    6.8730 C.3   118  PRO118      0.1504
     94  C          8.2870   16.7810    6.3970 C.2   118  PRO118      0.2576
     95  O          7.9360   16.7920    5.2100 O.2   118  PRO118     -0.2718
     96  CB         8.5490   14.5540    7.5910 C.3   118  PRO118      0.0282
     97  CG         9.5690   14.0990    8.6440 C.3   118  PRO118      0.0208
     98  CD        10.2190   15.3630    9.1070 C.3   118  PRO118      0.0893
     99  N          7.8710   17.7020    7.2720 N.am  119  SER119     -0.1953
    100  CA         6.9530   18.7570    6.8460 C.3   119  SER119      0.1924
    101  C          7.6150   19.6950    5.8380 C.2   119  SER119      0.2314
    102  O          7.0280   20.0020    4.7990 O.2   119  SER119     -0.2863
    103  CB         6.4220   19.5390    8.0540 C.3   119  SER119      0.2116
    104  OG         7.4620   20.1720    8.7760 O.3   119  SER119     -0.2180
    105  N         10.0860   18.9860    3.9140 N.3   121  ALA121     -0.1231
    106  CA        10.2330   18.1960    2.6930 C.3   121  ALA121      0.1694
    107  C          8.9290   18.1630    1.9160 C.2   121  ALA121      0.2591
    108  O          8.9250   18.3370    0.6890 O.2   121  ALA121     -0.2718
    109  CB        10.6970   16.7710    3.0270 C.3   121  ALA121      0.0304
    110  N          7.8100   17.9610    2.6210 N.am  122  LEU122     -0.1980
    111  CA         6.4990   17.9330    1.9750 C.3   122  LEU122      0.1596
    112  C          6.1640   19.2780    1.3510 C.2   122  LEU122      0.2287
    113  O          5.7120   19.3350    0.2010 O.2   122  LEU122     -0.2864
    114  CB         5.4080   17.5250    2.9750 C.3   122  LEU122      0.0297
    115  CG         3.9510   17.9810    2.7230 C.3   122  LEU122      0.0022
    116  CD1        3.3000   17.2120    1.5670 C.3   122  LEU122      0.0001
    117  CD2        3.0710   17.9040    3.9940 C.3   122  LEU122      0.0001
    118  N          8.1860   19.8070   -1.7620 N.3   125  PHE125     -0.1241
    119  CA         7.6560   18.9760   -2.8300 C.3   125  PHE125      0.1605
    120  C          6.3240   19.5070   -3.3520 C.2   125  PHE125      0.2264
    121  O          6.0210   19.3550   -4.5480 O.2   125  PHE125     -0.2867
    122  CB         7.5140   17.5510   -2.3220 C.3   125  PHE125      0.0534
    123  CG         6.9920   16.5980   -3.3370 C.ar  125  PHE125     -0.0203
    124  CD1        7.5920   16.4870   -4.5790 C.ar  125  PHE125     -0.0042
    125  CD2        5.8960   15.8080   -3.0490 C.ar  125  PHE125     -0.0042
    126  CE1        7.1120   15.6010   -5.5160 C.ar  125  PHE125     -0.0003
    127  CE2        5.4100   14.9110   -3.9820 C.ar  125  PHE125     -0.0003
    128  CZ         6.0150   14.8140   -5.2190 C.ar  125  PHE125     -0.0000
    129  N          7.2360   22.1400   -5.6960 N.3   128  TRP128     -0.1241
    130  CA         7.6850   21.4650   -6.9100 C.3   128  TRP128      0.1605
    131  C          6.4940   21.0290   -7.7650 C.2   128  TRP128      0.2264
    132  O          6.4610   21.2860   -8.9730 O.2   128  TRP128     -0.2867
    133  CB         8.5560   20.2590   -6.5340 C.3   128  TRP128      0.0550
    134  CG         9.2750   19.6620   -7.7180 C.ar  128  TRP128      0.0003
    135  CD1       10.5360   19.9460   -8.1310 C.ar  128  TRP128      0.0946
    136  CD2        8.7470   18.7160   -8.6510 C.ar  128  TRP128      0.0152
    137  NE1       10.8400   19.2070   -9.2650 N.ar  128  TRP128     -0.2442
    138  CE2        9.7520   18.4530   -9.6020 C.ar  128  TRP128      0.0810
    139  CE3        7.5220   18.0550   -8.7680 C.ar  128  TRP128      0.0012
    140  CZ2        9.5680   17.5550  -10.6610 C.ar  128  TRP128      0.0191
    141  CZ3        7.3410   17.1770   -9.8130 C.ar  128  TRP128      0.0001
    142  CH2        8.3580   16.9380  -10.7500 C.ar  128  TRP128      0.0015
@<TRIPOS>BOND
     1    16    15    2
     2    15    14    1
     3    19    17    1
     4    14    13    1
     5    14    17    1
     6     9     8    2
     7    20    21    1
     8    17    18    1
     9     8     7    1
    10    12    10    1
    11    21    24    1
    12    21    22    1
    13    24    25    1
    14    10     7    1
    15    10    11    1
    16     7     6    1
    17    26    25    1
    18    26    27    1
    19    22    23    2
    20     4     3    2
    21    28    27    1
    22     6     3   am
    23    29    30    1
    24     3     2    1
    25    30    31    1
    26     2     1    1
    27     2     5    1
    28    31    33   am
    29    31    32    2
    30    33    34    1
    31   142   140   ar
    32   142   141   ar
    33   140   138   ar
    34    39    37    1
    35   141   139   ar
    36    34    37    1
    37    34    35    1
    38    37    38    1
    39   138   137   ar
    40   138   136   ar
    41   137   135   ar
    42   132   131    2
    43    35    36    2
    44   139   136   ar
    45   136   134   ar
    46    40    41    1
    47   135   134   ar
    48   131   130    1
    49   134   133    1
    50    44    41    1
    51    44    45    1
    52    41    42    1
    53   130   133    1
    54   130   129    1
    55    46    45   ar
    56    46    48   ar
    57    45    47   ar
    58    42    51   am
    59    42    43    2
    60    48    50   ar
    61    51    52    1
    62    47    49   ar
    63   126   128   ar
    64   126   124   ar
    65   128   127   ar
    66    58    60   ar
    67    58    56   ar
    68    60    61   ar
    69    50    49   ar
    70   124   123   ar
    71   121   120    2
    72    52    55    1
    73    52    53    1
    74    55    56    1
    75    56    57   ar
    76   127   125   ar
    77    53    54    2
    78    61    59   ar
    79   120   119    1
    80   123   125   ar
    81   123   122    1
    82    62    63    1
    83    57    59   ar
    84   119   122    1
    85   119   118    1
    86    80    78    1
    87    66    63    1
    88    66    67    1
    89    63    64    1
    90    77    78    1
    91    77    74    1
    92    73    74    1
    93    78    79    1
    94    67    69   ar
    95    67    68   ar
    96    64    65    2
    97    69    71   ar
    98    74    75    1
    99   113   112    2
   100    68    70   ar
   101    71    72   ar
   102    75    76    2
   103   108   107    2
   104   112   111    1
   105    70    72   ar
   106   116   115    1
   107   107   110   am
   108   107   106    1
   109   111   110    1
   110   111   114    1
   111   106   109    1
   112   106   105    1
   113   115   114    1
   114   115   117    1
   115    85    86    1
   116    85    82    1
   117    87    89   ar
   118    87    86   ar
   119    81    82    1
   120    89    91   ar
   121    86    88   ar
   122   102   101    2
   123    82    83    1
   124    91    90   ar
   125    95    94    2
   126    88    90   ar
   127   101   100    1
   128    83    84    2
   129    94    93    1
   130    94    99   am
   131   100    99    1
   132   100   103    1
   133    93    96    1
   134    93    92    1
   135    96    97    1
   136    92    98    1
   137   103   104    1
   138    97    98    1
