@<TRIPOS>MOLECULE
tmp/5xj9A01.pdb
 100 96 0 0 0
SMALL
GASTEIGER

@<TRIPOS>ATOM
      1  N         15.4860   11.7660  -13.5160 N.3    41  THR41      -0.1218
      2  CA        14.7010   12.2500  -14.6480 C.3    41  THR41       0.1862
      3  C         15.2510   11.7230  -15.9610 C.2    41  THR41       0.2287
      4  O         14.5000   11.2180  -16.8060 O.2    41  THR41      -0.2866
      5  CB        14.6690   13.7680  -14.6730 C.3    41  THR41       0.1770
      6  OG1       14.0880   14.2270  -13.4580 O.3    41  THR41      -0.2211
      7  CG2       13.8290   14.2360  -15.8710 C.3    41  THR41       0.0375
      8  N         14.6140    7.9960  -16.4410 N.3    44  THR44      -0.1218
      9  CA        13.2810    7.6930  -16.9580 C.3    44  THR44       0.1862
     10  C         13.2510    7.7580  -18.4780 C.2    44  THR44       0.2287
     11  O         12.6830    6.8700  -19.1260 O.2    44  THR44      -0.2866
     12  CB        12.2480    8.6540  -16.3720 C.3    44  THR44       0.1770
     13  OG1       12.0820    8.3800  -14.9780 O.3    44  THR44      -0.2211
     14  CG2       10.9060    8.4990  -17.0730 C.3    44  THR44       0.0375
     15  N          9.9090    4.5380  -16.7510 N.3    49  LYS49      -0.1245
     16  CA         9.5010    5.1090  -15.4720 C.3    49  LYS49       0.1561
     17  C          9.9010    4.2010  -14.3210 C.2    49  LYS49       0.2260
     18  O         10.2940    4.6820  -13.2520 O.2    49  LYS49      -0.2867
     19  CB         7.9890    5.3400  -15.4690 C.3    49  LYS49       0.0271
     20  CG         7.4720    6.2070  -14.3340 C.3    49  LYS49       0.0035
     21  CD         7.9680    7.6740  -14.3800 C.3    49  LYS49       0.0206
     22  CE         7.0190    8.5850  -13.5870 C.3    49  LYS49       0.1093
     23  NZ         7.6190    9.9240  -13.6370 N.3    49  LYS49      -0.1314
     24  N         11.9770    5.7940  -11.1710 N.3    53  VAL53      -0.1245
     25  CA        11.4970    5.8240   -9.7960 C.3    53  VAL53       0.1561
     26  C         12.4620    5.0780   -8.8820 C.2    53  VAL53       0.2260
     27  O         12.7240    5.5090   -7.7510 O.2    53  VAL53      -0.2867
     28  CB        10.0670    5.2520   -9.7150 C.3    53  VAL53       0.0252
     29  CG1        9.6400    5.1240   -8.2660 C.3    53  VAL53       0.0019
     30  CG2        9.0800    6.1470  -10.5000 C.3    53  VAL53       0.0019
     31  N          8.1860   19.8070   -1.7620 N.3   125  PHE125     -0.1241
     32  CA         7.6560   18.9760   -2.8300 C.3   125  PHE125      0.1605
     33  C          6.3240   19.5070   -3.3520 C.2   125  PHE125      0.2264
     34  O          6.0210   19.3550   -4.5480 O.2   125  PHE125     -0.2867
     35  CB         7.5140   17.5510   -2.3220 C.3   125  PHE125      0.0534
     36  CG         6.9920   16.5980   -3.3370 C.ar  125  PHE125     -0.0203
     37  CD1        7.5920   16.4870   -4.5790 C.ar  125  PHE125     -0.0042
     38  CD2        5.8960   15.8080   -3.0490 C.ar  125  PHE125     -0.0042
     39  CE1        7.1120   15.6010   -5.5160 C.ar  125  PHE125     -0.0003
     40  CE2        5.4100   14.9110   -3.9820 C.ar  125  PHE125     -0.0003
     41  CZ         6.0150   14.8140   -5.2190 C.ar  125  PHE125     -0.0000
     42  N          7.2360   22.1400   -5.6960 N.3   128  TRP128     -0.1227
     43  CA         7.6850   21.4650   -6.9100 C.3   128  TRP128      0.1737
     44  C          6.4940   21.0290   -7.7650 C.2   128  TRP128      0.2595
     45  O          6.4610   21.2860   -8.9730 O.2   128  TRP128     -0.2718
     46  CB         8.5560   20.2590   -6.5340 C.3   128  TRP128      0.0564
     47  CG         9.2750   19.6620   -7.7180 C.ar  128  TRP128      0.0003
     48  CD1       10.5360   19.9460   -8.1310 C.ar  128  TRP128      0.0946
     49  CD2        8.7470   18.7160   -8.6510 C.ar  128  TRP128      0.0152
     50  NE1       10.8400   19.2070   -9.2650 N.ar  128  TRP128     -0.2442
     51  CE2        9.7520   18.4530   -9.6020 C.ar  128  TRP128      0.0810
     52  CE3        7.5220   18.0550   -8.7680 C.ar  128  TRP128      0.0012
     53  CZ2        9.5680   17.5550  -10.6610 C.ar  128  TRP128      0.0191
     54  CZ3        7.3410   17.1770   -9.8130 C.ar  128  TRP128      0.0001
     55  CH2        8.3580   16.9380  -10.7500 C.ar  128  TRP128      0.0015
     56  N          5.5060   20.3600   -7.1490 N.am  129  LEU129     -0.1980
     57  CA         4.3230   19.9010   -7.8790 C.3   129  LEU129      0.1596
     58  C          3.6350   21.0360   -8.6160 C.2   129  LEU129      0.2287
     59  O          3.2880   20.9110   -9.7990 O.2   129  LEU129     -0.2864
     60  CB         3.3140   19.2740   -6.9250 C.3   129  LEU129      0.0297
     61  CG         3.1760   17.7640   -6.7750 C.3   129  LEU129      0.0022
     62  CD1        3.7560   16.9800   -7.9510 C.3   129  LEU129      0.0001
     63  CD2        3.7620   17.3540   -5.4600 C.3   129  LEU129      0.0001
     64  N          5.7810   22.3000  -11.4630 N.3   132  PHE132     -0.1227
     65  CA         5.8810   21.3370  -12.5570 C.3   132  PHE132      0.1736
     66  C          4.5550   21.2130  -13.3020 C.2   132  PHE132      0.2595
     67  O          4.5440   21.1540  -14.5310 O.2   132  PHE132     -0.2718
     68  CB         6.3470   19.9660  -12.0510 C.3   132  PHE132      0.0547
     69  CG         6.5150   18.9340  -13.1570 C.ar  132  PHE132     -0.0202
     70  CD1        7.4890   19.1020  -14.1470 C.ar  132  PHE132     -0.0042
     71  CD2        5.6940   17.8170  -13.2200 C.ar  132  PHE132     -0.0042
     72  CE1        7.6310   18.1750  -15.1780 C.ar  132  PHE132     -0.0003
     73  CE2        5.8510   16.8860  -14.2210 C.ar  132  PHE132     -0.0003
     74  CZ         6.8200   17.0780  -15.2220 C.ar  132  PHE132     -0.0000
     75  N          3.4270   21.1450  -12.5800 N.am  133  LEU133     -0.1980
     76  CA         2.1430   21.0050  -13.2690 C.3   133  LEU133      0.1596
     77  C          1.8180   22.2480  -14.0800 C.2   133  LEU133      0.2287
     78  O          1.1840   22.1460  -15.1340 O.2   133  LEU133     -0.2864
     79  CB         1.0210   20.7140  -12.2730 C.3   133  LEU133      0.0297
     80  CG         1.1530   19.3750  -11.5430 C.3   133  LEU133      0.0022
     81  CD1        0.1780   19.3020  -10.3760 C.3   133  LEU133      0.0001
     82  CD2        0.9810   18.2020  -12.4960 C.3   133  LEU133      0.0001
     83  N         10.8980   20.0450  -15.3570 N.3   138  VAL138     -0.1245
     84  CA        11.4830   19.5340  -14.1160 C.3   138  VAL138      0.1561
     85  C         12.4610   20.5430  -13.5360 C.2   138  VAL138      0.2260
     86  O         12.3880   20.8850  -12.3570 O.2   138  VAL138     -0.2867
     87  CB        12.1630   18.1730  -14.3590 C.3   138  VAL138      0.0252
     88  CG1       12.9750   17.7710  -13.1400 C.3   138  VAL138      0.0019
     89  CG2       11.1260   17.1160  -14.6960 C.3   138  VAL138      0.0019
     90  N          7.5600   18.4500  -20.7180 N.3   192  PHE192     -0.1241
     91  CA         6.7240   17.2570  -20.6510 C.3   192  PHE192      0.1605
     92  C          5.3010   17.5330  -21.1460 C.2   192  PHE192      0.2264
     93  O          4.7380   18.5980  -20.8800 O.2   192  PHE192     -0.2867
     94  CB         6.6480   16.7350  -19.2130 C.3   192  PHE192      0.0534
     95  CG         7.9100   16.0700  -18.7500 C.ar  192  PHE192     -0.0203
     96  CD1        9.0060   16.8230  -18.3610 C.ar  192  PHE192     -0.0042
     97  CD2        8.0140   14.6880  -18.7320 C.ar  192  PHE192     -0.0042
     98  CE1       10.1740   16.2150  -17.9490 C.ar  192  PHE192     -0.0003
     99  CE2        9.1920   14.0730  -18.3160 C.ar  192  PHE192     -0.0003
    100  CZ        10.2680   14.8440  -17.9290 C.ar  192  PHE192     -0.0000
@<TRIPOS>BOND
     1    92    93    2
     2    92    91    1
     3    90    91    1
     4    91    94    1
     5    94    95    1
     6    11    10    2
     7    95    97   ar
     8    95    96   ar
     9    97    99   ar
    10    10     9    1
    11    96    98   ar
    12    99   100   ar
    13    98   100   ar
    14    14    12    1
    15     9     8    1
    16     9    12    1
    17     4     3    2
    18    15    16    1
    19    12    13    1
    20     3     2    1
    21     7     5    1
    22    16    19    1
    23    16    17    1
    24    19    20    1
    25    83    84    1
    26    74    72   ar
    27    74    73   ar
    28    72    70   ar
    29    78    77    2
    30    89    87    1
    31     5     2    1
    32     5     6    1
    33     2     1    1
    34    67    66    2
    35    21    20    1
    36    21    22    1
    37    87    84    1
    38    87    88    1
    39    17    18    2
    40    73    71   ar
    41    70    69   ar
    42    84    85    1
    43    77    76    1
    44    23    22    1
    45    85    86    2
    46    66    75   am
    47    66    65    1
    48    76    75    1
    49    76    79    1
    50    71    69   ar
    51    69    68    1
    52    65    68    1
    53    65    64    1
    54    82    80    1
    55    79    80    1
    56    80    81    1
    57    24    25    1
    58    55    53   ar
    59    55    54   ar
    60    53    51   ar
    61    30    28    1
    62    54    52   ar
    63    59    58    2
    64    25    28    1
    65    25    26    1
    66    28    29    1
    67    51    50   ar
    68    51    49   ar
    69    50    48   ar
    70    45    44    2
    71    26    27    2
    72    52    49   ar
    73    49    47   ar
    74    58    57    1
    75    48    47   ar
    76    62    61    1
    77    57    56    1
    78    57    60    1
    79    44    56   am
    80    44    43    1
    81    47    46    1
    82    60    61    1
    83    43    46    1
    84    43    42    1
    85    61    63    1
    86    39    41   ar
    87    39    37   ar
    88    41    40   ar
    89    37    36   ar
    90    34    33    2
    91    40    38   ar
    92    33    32    1
    93    36    38   ar
    94    36    35    1
    95    32    35    1
    96    32    31    1
