@<TRIPOS>MOLECULE
tmp/5xj9A03.pdb
 117 110 0 0 0
SMALL
GASTEIGER

@<TRIPOS>ATOM
      1  N          4.7850   24.0030   -9.5240 N.3   131  ILE131     -0.1245
      2  CA         5.5740   24.5800  -10.6080 C.3   131  ILE131      0.1561
      3  C          5.6810   23.5970  -11.7630 C.2   131  ILE131      0.2260
      4  O          5.6540   23.9910  -12.9340 O.2   131  ILE131     -0.2867
      5  CB         6.9610   25.0230  -10.1030 C.3   131  ILE131      0.0252
      6  CG1        6.8130   26.0110   -8.9360 C.3   131  ILE131      0.0019
      7  CG2        7.7500   25.6470  -11.2310 C.3   131  ILE131      0.0019
      8  CD1        6.1220   27.3380   -9.3180 C.3   131  ILE131      0.0001
      9  N          2.2810   23.4100  -13.6180 N.3   134  TRP134     -0.1227
     10  CA         2.0990   24.6720  -14.3250 C.3   134  TRP134      0.1737
     11  C          2.8900   24.7080  -15.6360 C.2   134  TRP134      0.2595
     12  O          2.3190   24.8980  -16.7170 O.2   134  TRP134     -0.2718
     13  CB         2.5250   25.8300  -13.4080 C.3   134  TRP134      0.0564
     14  CG         2.6530   27.1730  -14.1010 C.ar  134  TRP134      0.0003
     15  CD1        1.8490   27.6760  -15.0940 C.ar  134  TRP134      0.0946
     16  CD2        3.6490   28.1720  -13.8500 C.ar  134  TRP134      0.0152
     17  NE1        2.2820   28.9280  -15.4670 N.ar  134  TRP134     -0.2442
     18  CE2        3.3920   29.2520  -14.7310 C.ar  134  TRP134      0.0810
     19  CE3        4.7490   28.2520  -12.9840 C.ar  134  TRP134      0.0012
     20  CZ2        4.1870   30.4030  -14.7570 C.ar  134  TRP134      0.0191
     21  CZ3        5.5440   29.4090  -13.0050 C.ar  134  TRP134      0.0001
     22  CH2        5.2560   30.4650  -13.8900 C.ar  134  TRP134      0.0015
     23  N          4.2180   24.5650  -15.5540 N.am  135  LYS135     -0.1980
     24  CA         5.1000   24.8330  -16.6830 C.3   135  LYS135      0.1596
     25  C          5.6830   23.5900  -17.3340 C.2   135  LYS135      0.2287
     26  O          6.2330   23.7040  -18.4300 O.2   135  LYS135     -0.2864
     27  CB         6.2710   25.7340  -16.2560 C.3   135  LYS135      0.0298
     28  CG         5.9730   27.2280  -16.2770 C.3   135  LYS135      0.0038
     29  CD         5.5980   27.6920  -17.6660 C.3   135  LYS135      0.0206
     30  CE         5.4360   29.1890  -17.7100 C.3   135  LYS135      0.1093
     31  NZ         5.1410   29.6680  -19.0850 N.3   135  LYS135     -0.1314
     32  N          8.2970   21.7930  -16.7190 N.3   137  TYR137     -0.1241
     33  CA         9.7570   21.6990  -16.7200 C.3   137  TYR137      0.1605
     34  C         10.2160   21.1930  -15.3630 C.2   137  TYR137      0.2264
     35  O          9.9810   21.8550  -14.3420 O.2   137  TYR137     -0.2867
     36  CB        10.4120   23.0540  -16.9990 C.3   137  TYR137      0.0534
     37  CG        10.1910   23.5630  -18.4070 C.ar  137  TYR137     -0.0201
     38  CD1       10.6950   22.8710  -19.5200 C.ar  137  TYR137     -0.0009
     39  CD2        9.4880   24.7360  -18.6210 C.ar  137  TYR137     -0.0009
     40  CE1       10.5000   23.3510  -20.8160 C.ar  137  TYR137      0.0417
     41  CE2        9.2800   25.2210  -19.8990 C.ar  137  TYR137      0.0417
     42  CZ         9.7750   24.5260  -20.9920 C.ar  137  TYR137      0.1957
     43  OH         9.5460   25.0560  -22.2400 O.3   137  TYR137     -0.2866
     44  N         12.8420   23.8780  -13.8750 N.3   140  LEU140     -0.1245
     45  CA        12.2440   25.0660  -13.2740 C.3   140  LEU140      0.1561
     46  C         11.5980   24.7410  -11.9330 C.2   140  LEU140      0.2260
     47  O         11.7030   25.5150  -10.9710 O.2   140  LEU140     -0.2867
     48  CB        11.2140   25.6650  -14.2320 C.3   140  LEU140      0.0270
     49  CG        10.6000   26.9900  -13.7860 C.3   140  LEU140      0.0019
     50  CD1       11.6330   28.1240  -13.7250 C.3   140  LEU140      0.0001
     51  CD2        9.4550   27.3240  -14.7380 C.3   140  LEU140      0.0001
     52  N         14.3860   24.1390   -9.1980 N.3   143  ILE143     -0.1231
     53  CA        15.0330   25.3890   -8.7910 C.3   143  ILE143      0.1692
     54  C         14.1290   26.1620   -7.8360 C.2   143  ILE143      0.2592
     55  O         14.5680   26.6400   -6.7870 O.2   143  ILE143     -0.2718
     56  CB        15.3770   26.2310  -10.0330 C.3   143  ILE143      0.0266
     57  CG1       16.4310   25.5230  -10.8880 C.3   143  ILE143      0.0019
     58  CG2       15.8260   27.6510   -9.6390 C.3   143  ILE143      0.0020
     59  CD1       16.5870   26.1270  -12.2520 C.3   143  ILE143      0.0001
     60  N         12.8550   26.3170   -8.2070 N.am  144  THR144     -0.1953
     61  CA        11.9010   27.0150   -7.3450 C.3   144  THR144      0.1897
     62  C         11.7270   26.2860   -6.0230 C.2   144  THR144      0.2313
     63  O         11.7210   26.9090   -4.9600 O.2   144  THR144     -0.2863
     64  CB        10.5480   27.1510   -8.0470 C.3   144  THR144      0.1794
     65  OG1       10.7500   27.6930   -9.3540 O.3   144  THR144     -0.2208
     66  CG2        9.6100   28.0820   -7.2630 C.3   144  THR144      0.0378
     67  N         14.8540   26.8870   -3.7160 N.3   147  ILE147     -0.1245
     68  CA        14.7610   28.1810   -3.0560 C.3   147  ILE147      0.1561
     69  C         13.7310   28.1390   -1.9340 C.2   147  ILE147      0.2260
     70  O         13.9770   28.6440   -0.8310 O.2   147  ILE147     -0.2867
     71  CB        14.4300   29.2750   -4.0870 C.3   147  ILE147      0.0252
     72  CG1       15.5900   29.4400   -5.0630 C.3   147  ILE147      0.0019
     73  CG2       14.1510   30.5850   -3.3720 C.3   147  ILE147      0.0019
     74  CD1       15.2640   30.3410   -6.2480 C.3   147  ILE147      0.0001
     75  N         21.3570   24.8120   -7.6340 N.3   174  ILE174     -0.1245
     76  CA        21.0250   25.7730   -8.6810 C.3   174  ILE174      0.1561
     77  C         22.1670   25.9120   -9.6770 C.2   174  ILE174      0.2260
     78  O         21.9490   25.9540  -10.9000 O.2   174  ILE174     -0.2867
     79  CB        20.6600   27.1180   -8.0470 C.3   174  ILE174      0.0252
     80  CG1       19.4760   26.9070   -7.1040 C.3   174  ILE174      0.0019
     81  CG2       20.3460   28.1420   -9.1500 C.3   174  ILE174      0.0019
     82  CD1       19.0800   28.1670   -6.3350 C.3   174  ILE174      0.0001
     83  N         19.1210   26.1100  -17.1210 N.3   181  ILE181     -0.1245
     84  CA        18.6850   27.4970  -17.1080 C.3   181  ILE181      0.1561
     85  C         18.9930   28.1420  -18.4490 C.2   181  ILE181      0.2260
     86  O         18.1860   28.9160  -18.9830 O.2   181  ILE181     -0.2867
     87  CB        19.3500   28.2640  -15.9410 C.3   181  ILE181      0.0252
     88  CG1       18.7920   27.8210  -14.5770 C.3   181  ILE181      0.0019
     89  CG2       19.1830   29.7790  -16.1380 C.3   181  ILE181      0.0019
     90  CD1       19.6440   28.2720  -13.3430 C.3   181  ILE181      0.0001
     91  N         16.3180   26.8160  -20.6860 N.3   184  LEU184     -0.1231
     92  CA        15.0680   27.5150  -20.3830 C.3   184  LEU184      0.1693
     93  C         15.0610   28.9070  -21.0140 C.2   184  LEU184      0.2591
     94  O         14.1070   29.2910  -21.6970 O.2   184  LEU184     -0.2718
     95  CB        14.8590   27.5890  -18.8650 C.3   184  LEU184      0.0284
     96  CG        14.3360   26.3050  -18.1970 C.3   184  LEU184      0.0019
     97  CD1       14.3380   26.4090  -16.6640 C.3   184  LEU184      0.0001
     98  CD2       12.9340   25.9580  -18.6910 C.3   184  LEU184      0.0001
     99  N         16.1510   29.6490  -20.8530 N.am  185  LEU185     -0.1980
    100  CA        16.2050   31.0150  -21.3590 C.3   185  LEU185      0.1596
    101  C         16.2450   31.0850  -22.8830 C.2   185  LEU185      0.2287
    102  O         15.9480   32.1430  -23.4430 O.2   185  LEU185     -0.2864
    103  CB        17.4240   31.7250  -20.7930 C.3   185  LEU185      0.0297
    104  CG        17.4210   32.0670  -19.3080 C.3   185  LEU185      0.0022
    105  CD1       18.8410   32.4460  -18.9190 C.3   185  LEU185      0.0001
    106  CD2       16.4580   33.2000  -19.0220 C.3   185  LEU185      0.0001
    107  N         10.4220   19.7370  -22.3940 N.3   191  ARG191     -0.1245
    108  CA         9.1490   19.9890  -21.7370 C.3   191  ARG191      0.1563
    109  C          8.2830   18.7330  -21.7960 C.2   191  ARG191      0.2260
    110  O          8.2650   18.0310  -22.8090 O.2   191  ARG191     -0.2867
    111  CB         8.4340   21.1620  -22.4190 C.3   191  ARG191      0.0307
    112  CG         7.1320   21.5210  -21.7590 C.3   191  ARG191      0.0489
    113  CD         6.5540   22.7880  -22.3370 C.3   191  ARG191      0.2205
    114  NE         6.2180   23.7170  -21.2710 N.pl3 191  ARG191     -0.0865
    115  CZ         5.7420   24.9360  -21.4770 C.cat 191  ARG191      0.5346
    116  NH1        5.4630   25.7230  -20.4450 N.pl3 191  ARG191      0.1354
    117  NH2        5.5300   25.3540  -22.7190 N.pl3 191  ARG191      0.1354
@<TRIPOS>BOND
     1   102   101    2
     2   101   100    1
     3   110   109    2
     4   117   115    1
     5   111   112    1
     6   111   108    1
     7   107   108    1
     8   113   112    1
     9   113   114    1
    10    43    42    1
    11   109   108    1
    12    94    93    2
    13   115   114    2
    14   115   116    1
    15   100    99    1
    16   100   103    1
    17    93    99   am
    18    93    92    1
    19    42    40   ar
    20    42    41   ar
    21    40    38   ar
    22   103   104    1
    23    91    92    1
    24    92    95    1
    25    41    39   ar
    26    38    37   ar
    27   104   106    1
    28   104   105    1
    29    31    30    1
    30    86    85    2
    31    95    96    1
    32    98    96    1
    33    39    37   ar
    34    85    84    1
    35    26    25    2
    36    37    36    1
    37    96    97    1
    38    30    29    1
    39    29    28    1
    40    25    24    1
    41    83    84    1
    42    84    87    1
    43    36    33    1
    44    33    32    1
    45    33    34    1
    46    12    11    2
    47    24    27    1
    48    24    23    1
    49    28    27    1
    50    89    87    1
    51    87    88    1
    52    11    23   am
    53    11    10    1
    54    17    15   ar
    55    17    18   ar
    56    34    35    2
    57    15    14   ar
    58    20    18   ar
    59    20    22   ar
    60    51    49    1
    61    18    16   ar
    62    88    90    1
    63    10     9    1
    64    10    13    1
    65    48    49    1
    66    48    45    1
    67    14    16   ar
    68    14    13    1
    69    22    21   ar
    70    44    45    1
    71    16    19   ar
    72    49    50    1
    73    45    46    1
    74    21    19   ar
    75     4     3    2
    76    59    57    1
    77    46    47    2
    78     3     2    1
    79     7     5    1
    80    78    77    2
    81    57    56    1
    82     2     5    1
    83     2     1    1
    84     5     6    1
    85    56    58    1
    86    56    53    1
    87    77    76    1
    88    65    64    1
    89     8     6    1
    90    52    53    1
    91    81    79    1
    92    53    54    1
    93    76    79    1
    94    76    75    1
    95    60    54   am
    96    60    61    1
    97    64    61    1
    98    64    66    1
    99    79    80    1
   100    54    55    2
   101    61    62    1
   102    80    82    1
   103    74    72    1
   104    62    63    2
   105    72    71    1
   106    71    73    1
   107    71    68    1
   108    67    68    1
   109    68    69    1
   110    69    70    2
