@<TRIPOS>MOLECULE
tmp/5xj9A07.pdb
 98 94 0 0 0
SMALL
GASTEIGER

@<TRIPOS>ATOM
      1  N         30.5510   11.0460    8.2510 N.3     7  VAL7       -0.1245
      2  CA        30.6700   12.0040    7.1680 C.3     7  VAL7        0.1561
      3  C         31.3580   11.3670    5.9700 C.2     7  VAL7        0.2260
      4  O         30.8990   11.5020    4.8310 O.2     7  VAL7       -0.2867
      5  CB        31.3940   13.2610    7.6640 C.3     7  VAL7        0.0252
      6  CG1       31.7370   14.1760    6.4900 C.3     7  VAL7        0.0019
      7  CG2       30.4930   13.9670    8.6860 C.3     7  VAL7        0.0019
      8  N         29.8140   10.7230    2.2210 N.3    11  TYR11      -0.1241
      9  CA        30.4010   11.1140    0.9420 C.3    11  TYR11       0.1605
     10  C         30.6000    9.9100    0.0280 C.2    11  TYR11       0.2264
     11  O         30.3750    9.9990   -1.1850 O.2    11  TYR11      -0.2867
     12  CB        31.7380   11.8280    1.1470 C.3    11  TYR11       0.0534
     13  CG        32.4030   12.0950   -0.1710 C.ar   11  TYR11      -0.0201
     14  CD1       32.0040   13.1630   -0.9640 C.ar   11  TYR11      -0.0009
     15  CD2       33.3950   11.2510   -0.6580 C.ar   11  TYR11      -0.0009
     16  CE1       32.5940   13.4000   -2.1930 C.ar   11  TYR11       0.0417
     17  CE2       33.9790   11.4730   -1.8750 C.ar   11  TYR11       0.0417
     18  CZ        33.5790   12.5470   -2.6430 C.ar   11  TYR11       0.1957
     19  OH        34.1770   12.7660   -3.8590 O.3    11  TYR11      -0.2866
     20  N         27.4850   18.5260    8.1540 N.3    83  PHE83      -0.1241
     21  CA        28.5450   17.9510    7.3310 C.3    83  PHE83       0.1605
     22  C         28.1200   16.6510    6.6760 C.2    83  PHE83       0.2264
     23  O         28.5980   16.3350    5.5800 O.2    83  PHE83      -0.2867
     24  CB        29.7980   17.7110    8.1720 C.3    83  PHE83       0.0534
     25  CG        30.3320   18.9510    8.8050 C.ar   83  PHE83      -0.0203
     26  CD1       30.2610   20.1530    8.1390 C.ar   83  PHE83      -0.0042
     27  CD2       30.9060   18.9200   10.0630 C.ar   83  PHE83      -0.0042
     28  CE1       30.7520   21.3130    8.7100 C.ar   83  PHE83      -0.0003
     29  CE2       31.4060   20.0860   10.6410 C.ar   83  PHE83      -0.0003
     30  CZ        31.3180   21.2800    9.9620 C.ar   83  PHE83      -0.0000
     31  N         25.8330   17.7670    3.7560 N.3    86  LEU86      -0.1231
     32  CA        26.7120   18.2610    2.7030 C.3    86  LEU86       0.1693
     33  C         27.4910   17.1260    2.0410 C.2    86  LEU86       0.2591
     34  O         27.6120   17.0840    0.8150 O.2    86  LEU86      -0.2718
     35  CB        27.6750   19.3120    3.2650 C.3    86  LEU86       0.0284
     36  CG        27.0230   20.6880    3.3140 C.3    86  LEU86       0.0019
     37  CD1       27.8470   21.6200    4.2140 C.3    86  LEU86       0.0001
     38  CD2       26.8400   21.2570    1.9220 C.3    86  LEU86       0.0001
     39  N         28.0500   16.2090    2.8370 N.am   87  ALA87      -0.1980
     40  CA        28.8460   15.1300    2.2540 C.3    87  ALA87       0.1597
     41  C         28.0100   14.2810    1.3080 C.2    87  ALA87       0.2287
     42  O         28.4970   13.8520    0.2590 O.2    87  ALA87      -0.2864
     43  CB        29.4600   14.2570    3.3490 C.3    87  ALA87       0.0319
     44  N         27.4110   16.3980   -1.8580 N.3    90  LEU90      -0.1245
     45  CA        28.6860   16.6110   -2.5350 C.3    90  LEU90       0.1561
     46  C         29.1840   15.3230   -3.1750 C.2    90  LEU90       0.2260
     47  O         29.6880   15.3420   -4.3080 O.2    90  LEU90      -0.2867
     48  CB        29.7020   17.1740   -1.5440 C.3    90  LEU90       0.0270
     49  CG        29.4100   18.6460   -1.2240 C.3    90  LEU90       0.0019
     50  CD1       30.2940   19.2080   -0.1120 C.3    90  LEU90       0.0001
     51  CD2       29.5450   19.4820   -2.4870 C.3    90  LEU90       0.0001
     52  N         29.7880   15.1890   -7.0220 N.3    94  TYR94      -0.1241
     53  CA        31.2020   15.0020   -7.3440 C.3    94  TYR94       0.1605
     54  C         31.6470   13.6220   -6.8610 C.2    94  TYR94       0.2264
     55  O         32.3940   13.4940   -5.8830 O.2    94  TYR94      -0.2867
     56  CB        32.0410   16.1220   -6.7240 C.3    94  TYR94       0.0534
     57  CG        31.5330   17.4910   -7.1120 C.ar   94  TYR94      -0.0201
     58  CD1       31.6360   17.9440   -8.4220 C.ar   94  TYR94      -0.0009
     59  CD2       30.9150   18.3160   -6.1800 C.ar   94  TYR94      -0.0009
     60  CE1       31.1540   19.1930   -8.7880 C.ar   94  TYR94       0.0417
     61  CE2       30.4380   19.5610   -6.5320 C.ar   94  TYR94       0.0417
     62  CZ        30.5550   19.9950   -7.8400 C.ar   94  TYR94       0.1957
     63  OH        30.0730   21.2370   -8.1830 O.3    94  TYR94      -0.2866
     64  N         34.6680    9.7330  -11.6760 N.3    99  GLY99      -0.1210
     65  CA        35.3880   10.8730  -12.2230 C.3    99  GLY99       0.1956
     66  C         34.9380   12.2220  -11.7120 C.2    99  GLY99       0.2612
     67  O         35.1970   13.2310  -12.3640 O.2    99  GLY99      -0.2717
     68  N         34.2570   12.2630  -10.5640 N.am  100  PHE100     -0.1962
     69  CA        33.6910   13.4820   -9.9830 C.3   100  PHE100      0.1771
     70  C         32.6390   14.1260  -10.8800 C.2   100  PHE100      0.2619
     71  O         32.3850   15.3320  -10.7670 O.2   100  PHE100     -0.2715
     72  CB        34.7800   14.5110   -9.6470 C.3   100  PHE100      0.0574
     73  CG        35.8180   14.0080   -8.6870 C.ar  100  PHE100     -0.0200
     74  CD1       35.5330   13.8660   -7.3420 C.ar  100  PHE100     -0.0042
     75  CD2       37.0860   13.6740   -9.1340 C.ar  100  PHE100     -0.0042
     76  CE1       36.4960   13.3800   -6.4610 C.ar  100  PHE100     -0.0003
     77  CE2       38.0490   13.1970   -8.2530 C.ar  100  PHE100     -0.0003
     78  CZ        37.7540   13.0450   -6.9230 C.ar  100  PHE100     -0.0000
     79  N         32.0230   13.3540  -11.7720 N.am  101  LYS101     -0.1977
     80  CA        30.9560   13.8390  -12.6480 C.3   101  LYS101      0.1596
     81  C         29.6410   13.2040  -12.2110 C.2   101  LYS101      0.2287
     82  O         29.3290   12.0730  -12.5980 O.2   101  LYS101     -0.2864
     83  CB        31.2640   13.5210  -14.1110 C.3   101  LYS101      0.0298
     84  CG        32.7090   13.7950  -14.4850 C.3   101  LYS101      0.0038
     85  CD        32.9830   15.2980  -14.4880 C.3   101  LYS101      0.0206
     86  CE        32.2860   15.9930  -15.6260 C.3   101  LYS101      0.1093
     87  NZ        32.0930   15.1050  -16.8150 N.3   101  LYS101     -0.1314
     88  N         24.3760   23.6420  -10.4150 N.3   176  ARG176     -0.1245
     89  CA        24.3590   22.4330  -11.2220 C.3   176  ARG176      0.1563
     90  C         23.2380   22.4410  -12.2570 C.2   176  ARG176      0.2260
     91  O         23.2490   21.6050  -13.1650 O.2   176  ARG176     -0.2867
     92  CB        24.2180   21.2080  -10.3290 C.3   176  ARG176      0.0307
     93  CG        25.2750   21.0770   -9.2460 C.3   176  ARG176      0.0489
     94  CD        26.5810   20.5870   -9.7770 C.3   176  ARG176      0.2205
     95  NE        26.4940   19.2300  -10.2900 N.pl3 176  ARG176     -0.0865
     96  CZ        27.5410   18.5510  -10.7460 C.cat 176  ARG176      0.5346
     97  NH1       28.7460   19.1160  -10.7410 N.pl3 176  ARG176      0.1354
     98  NH2       27.3830   17.3140  -11.2140 N.pl3 176  ARG176      0.1354
@<TRIPOS>BOND
     1    87    86    1
     2    86    85    1
     3    85    84    1
     4    84    83    1
     5    83    80    1
     6    91    90    2
     7    80    81    1
     8    80    79    1
     9    82    81    2
    10    67    66    2
    11    90    89    1
    12    65    66    1
    13    65    64    1
    14    79    70   am
    15    66    68   am
    16    89    88    1
    17    89    92    1
    18    98    96    1
    19    70    71    2
    20    70    69    1
    21    96    97    1
    22    96    95    2
    23    68    69    1
    24    92    93    1
    25    95    94    1
    26    69    72    1
    27    94    93    1
    28    72    73    1
    29    75    73   ar
    30    75    77   ar
    31    60    58   ar
    32    60    62   ar
    33    73    74   ar
    34    58    57   ar
    35    77    78   ar
    36    63    62    1
    37    62    61   ar
    38    53    52    1
    39    53    54    1
    40    53    56    1
    41    74    76   ar
    42    57    56    1
    43    57    59   ar
    44    78    76   ar
    45    54    55    2
    46    61    59   ar
    47    47    46    2
    48    19    18    1
    49    46    45    1
    50    18    16   ar
    51    18    17   ar
    52    45    44    1
    53    45    48    1
    54    51    49    1
    55    16    14   ar
    56    17    15   ar
    57    48    49    1
    58    49    50    1
    59    11    10    2
    60    14    13   ar
    61    15    13   ar
    62    13    12    1
    63    10     9    1
    64    42    41    2
    65    34    33    2
    66     9    12    1
    67     9     8    1
    68    41    40    1
    69    38    36    1
    70    33    32    1
    71    33    39   am
    72    40    39    1
    73    40    43    1
    74    32    35    1
    75    32    31    1
    76    35    36    1
    77    36    37    1
    78     4     3    2
    79    23    22    2
    80     3     2    1
    81     6     5    1
    82    22    21    1
    83     2     5    1
    84     2     1    1
    85    21    20    1
    86    21    24    1
    87     5     7    1
    88    26    28   ar
    89    26    25   ar
    90    24    25    1
    91    28    30   ar
    92    25    27   ar
    93    30    29   ar
    94    27    29   ar
