@<TRIPOS>MOLECULE
tmp/5xj9A06.pdb
 83 78 0 0 0
SMALL
GASTEIGER

@<TRIPOS>ATOM
      1  N         21.8720   26.5600    2.5560 N.3   167  ILE167     -0.1231
      2  CA        22.2130   27.5650    1.5600 C.3   167  ILE167      0.1692
      3  C         23.3690   27.0790    0.6810 C.2   167  ILE167      0.2591
      4  O         23.4090   27.3830   -0.5190 O.2   167  ILE167     -0.2718
      5  CB        22.5030   28.9180    2.2390 C.3   167  ILE167      0.0266
      6  CG1       22.3610   30.0570    1.2280 C.3   167  ILE167      0.0019
      7  CG2       23.8830   28.9180    2.9190 C.3   167  ILE167      0.0020
      8  CD1       22.7080   31.4090    1.7840 C.3   167  ILE167      0.0001
      9  N         24.2830   26.2700    1.2260 N.am  168  VAL168     -0.1980
     10  CA        25.3510   25.7100    0.4070 C.3   168  VAL168      0.1595
     11  C         24.7890   24.6520   -0.5350 C.2   168  VAL168      0.2287
     12  O         25.0120   24.7020   -1.7470 O.2   168  VAL168     -0.2864
     13  CB        26.4870   25.1420    1.2760 C.3   168  VAL168      0.0276
     14  CG1       27.5660   24.5490    0.3690 C.3   168  VAL168      0.0022
     15  CG2       27.0880   26.2190    2.1630 C.3   168  VAL168      0.0022
     16  N         22.5760   26.5420   -3.1970 N.3   171  ALA171     -0.1231
     17  CA        23.3830   27.2290   -4.1990 C.3   171  ALA171      0.1694
     18  C         24.0320   26.2400   -5.1560 C.2   171  ALA171      0.2591
     19  O         24.0670   26.4630   -6.3750 O.2   171  ALA171     -0.2718
     20  CB        24.4400   28.0910   -3.5120 C.3   171  ALA171      0.0304
     21  N         24.5280   25.1260   -4.6250 N.am  172  LEU172     -0.1980
     22  CA        25.1490   24.1190   -5.4760 C.3   172  LEU172      0.1596
     23  C         24.1330   23.5050   -6.4220 C.2   172  LEU172      0.2287
     24  O         24.4050   23.3610   -7.6160 O.2   172  LEU172     -0.2864
     25  CB        25.8030   23.0400   -4.6220 C.3   172  LEU172      0.0297
     26  CG        27.0930   23.4480   -3.9260 C.3   172  LEU172      0.0022
     27  CD1       27.4710   22.3820   -2.9070 C.3   172  LEU172      0.0001
     28  CD2       28.2020   23.6300   -4.9310 C.3   172  LEU172      0.0001
     29  N         21.3570   24.8120   -7.6340 N.3   174  ILE174     -0.1231
     30  CA        21.0250   25.7730   -8.6810 C.3   174  ILE174      0.1692
     31  C         22.1670   25.9120   -9.6770 C.2   174  ILE174      0.2592
     32  O         21.9490   25.9540  -10.9000 O.2   174  ILE174     -0.2718
     33  CB        20.6600   27.1180   -8.0470 C.3   174  ILE174      0.0266
     34  CG1       19.4760   26.9070   -7.1040 C.3   174  ILE174      0.0019
     35  CG2       20.3460   28.1420   -9.1500 C.3   174  ILE174      0.0020
     36  CD1       19.0800   28.1670   -6.3350 C.3   174  ILE174      0.0001
     37  N         23.4050   25.9820   -9.1760 N.am  175  TYR175     -0.1976
     38  CA        24.5530   26.0550  -10.0770 C.3   175  TYR175      0.1639
     39  C         24.6370   24.8250  -10.9700 C.2   175  TYR175      0.2290
     40  O         24.9400   24.9360  -12.1620 O.2   175  TYR175     -0.2864
     41  CB        25.8450   26.2250   -9.2800 C.3   175  TYR175      0.0560
     42  CG        27.0820   26.1660  -10.1660 C.ar  175  TYR175     -0.0198
     43  CD1       27.4660   27.2620  -10.9280 C.ar  175  TYR175     -0.0009
     44  CD2       27.8320   25.0010  -10.2690 C.ar  175  TYR175     -0.0009
     45  CE1       28.5820   27.2090  -11.7460 C.ar  175  TYR175      0.0417
     46  CE2       28.9420   24.9360  -11.0840 C.ar  175  TYR175      0.0417
     47  CZ        29.3120   26.0420  -11.8220 C.ar  175  TYR175      0.1957
     48  OH        30.4210   25.9800  -12.6330 O.3   175  TYR175     -0.2866
     49  N         22.7460   25.0670  -14.1880 N.3   178  ARG178     -0.1245
     50  CA        22.9630   26.2410  -15.0280 C.3   178  ARG178      0.1563
     51  C         22.7480   25.9240  -16.5050 C.2   178  ARG178      0.2260
     52  O         22.3150   26.7950  -17.2620 O.2   178  ARG178     -0.2867
     53  CB        24.3520   26.8180  -14.8000 C.3   178  ARG178      0.0307
     54  CG        25.4580   25.9350  -15.2700 C.3   178  ARG178      0.0489
     55  CD        26.7970   26.5370  -14.8440 C.3   178  ARG178      0.2205
     56  NE        27.9310   25.6720  -15.1630 N.pl3 178  ARG178     -0.0865
     57  CZ        28.1950   24.5280  -14.5380 C.cat 178  ARG178      0.5346
     58  NH1       27.3950   24.0920  -13.5670 N.pl3 178  ARG178      0.1354
     59  NH2       29.2580   23.8140  -14.8860 N.pl3 178  ARG178      0.1354
     60  N         19.1210   26.1100  -17.1210 N.3   181  ILE181     -0.1231
     61  CA        18.6850   27.4970  -17.1080 C.3   181  ILE181      0.1692
     62  C         18.9930   28.1420  -18.4490 C.2   181  ILE181      0.2592
     63  O         18.1860   28.9160  -18.9830 O.2   181  ILE181     -0.2718
     64  CB        19.3500   28.2640  -15.9410 C.3   181  ILE181      0.0266
     65  CG1       18.7920   27.8210  -14.5770 C.3   181  ILE181      0.0019
     66  CG2       19.1830   29.7790  -16.1380 C.3   181  ILE181      0.0020
     67  CD1       19.6440   28.2720  -13.3430 C.3   181  ILE181      0.0001
     68  N         20.1600   27.8360  -19.0230 N.am  182  ASN182     -0.1974
     69  CA        20.4720   28.3620  -20.3480 C.3   182  ASN182      0.1688
     70  C         19.4780   27.8430  -21.3810 C.2   182  ASN182      0.2292
     71  O         19.0540   28.5840  -22.2740 O.2   182  ASN182     -0.2864
     72  CB        21.8950   27.9930  -20.7550 C.3   182  ASN182      0.1181
     73  CG        22.2300   28.4560  -22.1600 C.2   182  ASN182      0.2629
     74  OD1       22.4270   27.6460  -23.0640 O.2   182  ASN182     -0.2716
     75  ND2       22.2870   29.7710  -22.3500 N.am  182  ASN182     -0.0877
     76  N         16.1510   29.6490  -20.8530 N.3   185  LEU185     -0.1245
     77  CA        16.2050   31.0150  -21.3590 C.3   185  LEU185      0.1561
     78  C         16.2450   31.0850  -22.8830 C.2   185  LEU185      0.2260
     79  O         15.9480   32.1430  -23.4430 O.2   185  LEU185     -0.2867
     80  CB        17.4240   31.7250  -20.7930 C.3   185  LEU185      0.0270
     81  CG        17.4210   32.0670  -19.3080 C.3   185  LEU185      0.0019
     82  CD1       18.8410   32.4460  -18.9190 C.3   185  LEU185      0.0001
     83  CD2       16.4580   33.2000  -19.0220 C.3   185  LEU185      0.0001
@<TRIPOS>BOND
     1    79    78    2
     2    74    73    2
     3    78    77    1
     4    75    73   am
     5    71    70    2
     6    73    72    1
     7    70    69    1
     8    77    76    1
     9    77    80    1
    10    80    81    1
    11    72    69    1
    12    69    68    1
    13    81    83    1
    14    81    82    1
    15    68    62   am
    16    63    62    2
    17    62    61    1
    18    52    51    2
    19    60    61    1
    20    61    64    1
    21    51    50    1
    22    66    64    1
    23    64    65    1
    24    54    55    1
    25    54    53    1
    26    56    55    1
    27    56    57    2
    28    50    53    1
    29    50    49    1
    30    59    57    1
    31    65    67    1
    32    57    58    1
    33    48    47    1
    34    40    39    2
    35    47    45   ar
    36    47    46   ar
    37    45    43   ar
    38    46    44   ar
    39    39    38    1
    40    43    42   ar
    41    32    31    2
    42    44    42   ar
    43    42    41    1
    44    38    41    1
    45    38    37    1
    46    31    37   am
    47    31    30    1
    48    35    33    1
    49    30    33    1
    50    30    29    1
    51    33    34    1
    52    24    23    2
    53    34    36    1
    54    23    22    1
    55    19    18    2
    56    22    21    1
    57    22    25    1
    58    18    21   am
    59    18    17    1
    60    28    26    1
    61    25    26    1
    62    17    20    1
    63    17    16    1
    64    26    27    1
    65    12    11    2
    66    11    10    1
    67     4     3    2
    68    14    13    1
    69    10     9    1
    70    10    13    1
    71     3     9   am
    72     3     2    1
    73     6     8    1
    74     6     5    1
    75    13    15    1
    76     2     5    1
    77     2     1    1
    78     5     7    1
