@<TRIPOS>MOLECULE
tmp/5xj9A00.pdb
 164 154 0 0 0
SMALL
GASTEIGER

@<TRIPOS>ATOM
      1  N         20.7740   11.5730  -13.3220 N.3    39  GLY39      -0.1210
      2  CA        19.8030   11.4180  -12.2630 C.3    39  GLY39       0.1956
      3  C         18.4880   10.8180  -12.7520 C.2    39  GLY39       0.2612
      4  O         18.3190   10.4820  -13.9200 O.2    39  GLY39      -0.2717
      5  N         17.5280   10.7310  -11.8180 N.am   40  ALA40      -0.1965
      6  CA        16.3050    9.9590  -12.0610 C.3    40  ALA40       0.1728
      7  C         15.5170   10.4560  -13.2750 C.2    40  ALA40       0.2616
      8  O         14.8840    9.6570  -13.9730 O.2    40  ALA40      -0.2715
      9  CB        15.4140    9.9680  -10.8170 C.3    40  ALA40       0.0334
     10  N         15.4860   11.7660  -13.5160 N.am   41  THR41      -0.1951
     11  CA        14.7010   12.2500  -14.6480 C.3    41  THR41       0.1897
     12  C         15.2510   11.7230  -15.9610 C.2    41  THR41       0.2313
     13  O         14.5000   11.2180  -16.8060 O.2    41  THR41      -0.2863
     14  CB        14.6690   13.7680  -14.6730 C.3    41  THR41       0.1794
     15  OG1       14.0880   14.2270  -13.4580 O.3    41  THR41      -0.2208
     16  CG2       13.8290   14.2360  -15.8710 C.3    41  THR41       0.0378
     17  N         15.2920    7.3890   -8.3490 N.3    56  PHE56      -0.1241
     18  CA        14.8550    8.4380   -7.4410 C.3    56  PHE56       0.1605
     19  C         14.9690    7.9720   -5.9960 C.2    56  PHE56       0.2264
     20  O         15.4810    8.6900   -5.1370 O.2    56  PHE56      -0.2867
     21  CB        13.4210    8.8690   -7.7100 C.3    56  PHE56       0.0534
     22  CG        12.9080    9.8310   -6.6670 C.ar   56  PHE56      -0.0203
     23  CD1       13.1330   11.1860   -6.7990 C.ar   56  PHE56      -0.0042
     24  CD2       12.2730    9.3750   -5.5270 C.ar   56  PHE56      -0.0042
     25  CE1       12.6980   12.0720   -5.8330 C.ar   56  PHE56      -0.0003
     26  CE2       11.8500   10.2540   -4.5490 C.ar   56  PHE56      -0.0003
     27  CZ        12.0630   11.6010   -4.6980 C.ar   56  PHE56      -0.0000
     28  N         19.0040   16.9490   -6.4530 N.3   106  VAL106     -0.1231
     29  CA        17.6390   17.2480   -6.0200 C.3   106  VAL106      0.1692
     30  C         17.1140   16.1490   -5.0970 C.2   106  VAL106      0.2591
     31  O         16.7170   16.4110   -3.9570 O.2   106  VAL106     -0.2718
     32  CB        16.7270   17.4520   -7.2410 C.3   106  VAL106      0.0266
     33  CG1       15.2930   17.6520   -6.8060 C.3   106  VAL106      0.0020
     34  CG2       17.2440   18.6530   -8.0710 C.3   106  VAL106      0.0020
     35  N         17.1050   14.9020   -5.5800 N.am  107  ALA107     -0.1980
     36  CA        16.5640   13.7890   -4.7970 C.3   107  ALA107      0.1597
     37  C         17.3580   13.5760   -3.5130 C.2   107  ALA107      0.2287
     38  O         16.7790   13.3490   -2.4530 O.2   107  ALA107     -0.2864
     39  CB        16.5600   12.5080   -5.6230 C.3   107  ALA107      0.0319
     40  N         19.2230   15.7810   -1.8880 N.3   109  ALA109     -0.1231
     41  CA        18.9600   16.8930   -0.9860 C.3   109  ALA109      0.1694
     42  C         17.5730   16.7800   -0.3500 C.2   109  ALA109      0.2591
     43  O         17.4040   17.0930    0.8300 O.2   109  ALA109     -0.2718
     44  CB        19.0970   18.2200   -1.7260 C.3   109  ALA109      0.0304
     45  N         16.5690   16.3470   -1.1160 N.am  110  LEU110     -0.1980
     46  CA        15.2570   16.1030   -0.5240 C.3   110  LEU110      0.1596
     47  C         15.3570   15.0780    0.5960 C.2   110  LEU110      0.2287
     48  O         14.7660   15.2600    1.6620 O.2   110  LEU110     -0.2864
     49  CB        14.2690   15.6390   -1.5780 C.3   110  LEU110      0.0297
     50  CG        12.8400   15.3800   -1.0820 C.3   110  LEU110      0.0022
     51  CD1       12.1440   16.6910   -0.7030 C.3   110  LEU110      0.0001
     52  CD2       12.0290   14.5930   -2.1260 C.3   110  LEU110      0.0001
     53  N         16.6520   16.7710    3.6430 N.3   113  VAL113     -0.1245
     54  CA        15.6410   17.6320    4.2560 C.3   113  VAL113      0.1561
     55  C         14.5620   16.8030    4.9490 C.2   113  VAL113      0.2260
     56  O         14.0850   17.1600    6.0340 O.2   113  VAL113     -0.2867
     57  CB        15.0490   18.5840    3.2040 C.3   113  VAL113      0.0252
     58  CG1       13.9190   19.4200    3.8210 C.3   113  VAL113      0.0019
     59  CG2       16.1470   19.4920    2.6770 C.3   113  VAL113      0.0019
     60  N          8.1590   21.6420    0.3370 N.3   124  SER124     -0.1202
     61  CA         9.0090   21.8950   -0.8250 C.3   124  SER124      0.2020
     62  C          8.5630   21.0590   -2.0140 C.2   124  SER124      0.2618
     63  O          8.5500   21.5400   -3.1530 O.2   124  SER124     -0.2717
     64  CB        10.4750   21.6010   -0.4910 C.3   124  SER124      0.2103
     65  OG        10.8800   22.2960    0.6740 O.3   124  SER124     -0.2182
     66  N          8.1860   19.8070   -1.7620 N.am  125  PHE125     -0.1975
     67  CA         7.6560   18.9760   -2.8300 C.3   125  PHE125      0.1639
     68  C          6.3240   19.5070   -3.3520 C.2   125  PHE125      0.2290
     69  O          6.0210   19.3550   -4.5480 O.2   125  PHE125     -0.2864
     70  CB         7.5140   17.5510   -2.3220 C.3   125  PHE125      0.0560
     71  CG         6.9920   16.5980   -3.3370 C.ar  125  PHE125     -0.0200
     72  CD1        7.5920   16.4870   -4.5790 C.ar  125  PHE125     -0.0042
     73  CD2        5.8960   15.8080   -3.0490 C.ar  125  PHE125     -0.0042
     74  CE1        7.1120   15.6010   -5.5160 C.ar  125  PHE125     -0.0003
     75  CE2        5.4100   14.9110   -3.9820 C.ar  125  PHE125     -0.0003
     76  CZ         6.0150   14.8140   -5.2190 C.ar  125  PHE125     -0.0000
     77  N          7.2360   22.1400   -5.6960 N.3   128  TRP128     -0.1241
     78  CA         7.6850   21.4650   -6.9100 C.3   128  TRP128      0.1605
     79  C          6.4940   21.0290   -7.7650 C.2   128  TRP128      0.2264
     80  O          6.4610   21.2860   -8.9730 O.2   128  TRP128     -0.2867
     81  CB         8.5560   20.2590   -6.5340 C.3   128  TRP128      0.0550
     82  CG         9.2750   19.6620   -7.7180 C.ar  128  TRP128      0.0003
     83  CD1       10.5360   19.9460   -8.1310 C.ar  128  TRP128      0.0946
     84  CD2        8.7470   18.7160   -8.6510 C.ar  128  TRP128      0.0152
     85  NE1       10.8400   19.2070   -9.2650 N.ar  128  TRP128     -0.2442
     86  CE2        9.7520   18.4530   -9.6020 C.ar  128  TRP128      0.0810
     87  CE3        7.5220   18.0550   -8.7680 C.ar  128  TRP128      0.0012
     88  CZ2        9.5680   17.5550  -10.6610 C.ar  128  TRP128      0.0191
     89  CZ3        7.3410   17.1770   -9.8130 C.ar  128  TRP128      0.0001
     90  CH2        8.3580   16.9380  -10.7500 C.ar  128  TRP128      0.0015
     91  N         10.8980   20.0450  -15.3570 N.3   138  VAL138     -0.1245
     92  CA        11.4830   19.5340  -14.1160 C.3   138  VAL138      0.1561
     93  C         12.4610   20.5430  -13.5360 C.2   138  VAL138      0.2260
     94  O         12.3880   20.8850  -12.3570 O.2   138  VAL138     -0.2867
     95  CB        12.1630   18.1730  -14.3590 C.3   138  VAL138      0.0252
     96  CG1       12.9750   17.7710  -13.1400 C.3   138  VAL138      0.0019
     97  CG2       11.1260   17.1160  -14.6960 C.3   138  VAL138      0.0019
     98  N         12.4270   22.2410   -9.8470 N.3   142  SER142     -0.1217
     99  CA        13.4510   21.9210   -8.8540 C.3   142  SER142      0.1889
    100  C         14.1370   23.1760   -8.3250 C.2   142  SER142      0.2288
    101  O         14.4740   23.2620   -7.1360 O.2   142  SER142     -0.2866
    102  CB        14.4900   20.9800   -9.4550 C.3   142  SER142      0.2089
    103  OG        13.9100   19.7130   -9.7410 O.3   142  SER142     -0.2183
    104  N         11.6020   24.9590   -6.0670 N.3   145  ALA145     -0.1231
    105  CA        11.4170   24.2200   -4.8250 C.3   145  ALA145      0.1694
    106  C         12.6540   24.3010   -3.9380 C.2   145  ALA145      0.2592
    107  O         12.5390   24.2810   -2.7060 O.2   145  ALA145     -0.2718
    108  CB        11.0780   22.7710   -5.1360 C.3   145  ALA145      0.0304
    109  N         13.8410   24.3700   -4.5480 N.am  146  THR146     -0.1953
    110  CA        15.0740   24.4690   -3.7730 C.3   146  THR146      0.1897
    111  C         15.1400   25.7910   -3.0230 C.2   146  THR146      0.2313
    112  O         15.4650   25.8300   -1.8340 O.2   146  THR146     -0.2863
    113  CB        16.2800   24.3160   -4.6990 C.3   146  THR146      0.1794
    114  OG1       16.2770   22.9870   -5.2390 O.3   146  THR146     -0.2208
    115  CG2       17.5750   24.5530   -3.9220 C.3   146  THR146      0.0378
    116  N         12.6220   25.5930   -0.1360 N.3   149  ALA149     -0.1231
    117  CA        13.0940   24.7720    0.9720 C.3   149  ALA149      0.1694
    118  C         13.9290   25.6020    1.9380 C.2   149  ALA149      0.2592
    119  O         13.7510   25.5330    3.1570 O.2   149  ALA149     -0.2718
    120  CB        13.9130   23.5950    0.4290 C.3   149  ALA149      0.0304
    121  N         14.8240   26.4220    1.4040 N.am  150  PHE150     -0.1976
    122  CA        15.6110   27.2840    2.2730 C.3   150  PHE150      0.1639
    123  C         14.7330   28.3050    2.9960 C.2   150  PHE150      0.2290
    124  O         14.9020   28.5260    4.1950 O.2   150  PHE150     -0.2864
    125  CB        16.7050   27.9910    1.4870 C.3   150  PHE150      0.0560
    126  CG        17.4460   28.9840    2.3090 C.ar  150  PHE150     -0.0200
    127  CD1       18.2850   28.5540    3.3290 C.ar  150  PHE150     -0.0042
    128  CD2       17.2500   30.3300    2.1310 C.ar  150  PHE150     -0.0042
    129  CE1       18.9240   29.4640    4.1520 C.ar  150  PHE150     -0.0003
    130  CE2       17.9040   31.2530    2.9240 C.ar  150  PHE150     -0.0003
    131  CZ        18.7530   30.8160    3.9380 C.ar  150  PHE150     -0.0000
    132  N         12.8630   26.5250    5.8610 N.3   153  LEU153     -0.1245
    133  CA        13.7200   26.2290    7.0020 C.3   153  LEU153      0.1561
    134  C         14.0920   27.5020    7.7430 C.2   153  LEU153      0.2260
    135  O         14.1710   27.5100    8.9800 O.2   153  LEU153     -0.2867
    136  CB        14.9890   25.5120    6.5380 C.3   153  LEU153      0.0270
    137  CG        14.8620   24.0830    6.0110 C.3   153  LEU153      0.0019
    138  CD1       16.1130   23.7290    5.2380 C.3   153  LEU153      0.0001
    139  CD2       14.6140   23.0940    7.1510 C.3   153  LEU153      0.0001
    140  N         21.7420   24.3090    4.2650 N.3   166  ALA166     -0.1245
    141  CA        20.7430   24.4860    3.2140 C.3   166  ALA166      0.1562
    142  C         21.1830   25.4950    2.1560 C.2   166  ALA166      0.2260
    143  O         20.9020   25.3050    0.9670 O.2   166  ALA166     -0.2867
    144  CB        19.4020   24.9150    3.8270 C.3   166  ALA166      0.0290
    145  N         24.0310   23.6960    0.0070 N.3   169  ILE169     -0.1231
    146  CA        23.3510   22.7060   -0.8330 C.3   169  ILE169      0.1692
    147  C         22.5080   23.4010   -1.9000 C.2   169  ILE169      0.2592
    148  O         22.5720   23.0600   -3.0860 O.2   169  ILE169     -0.2718
    149  CB        22.4820   21.7740    0.0310 C.3   169  ILE169      0.0266
    150  CG1       23.3630   20.8420    0.8600 C.3   169  ILE169      0.0019
    151  CG2       21.4770   21.0040   -0.8490 C.3   169  ILE169      0.0020
    152  CD1       22.5670   19.8340    1.7130 C.3   169  ILE169      0.0001
    153  N         21.7160   24.4000   -1.4970 N.am  170  GLY170     -0.1957
    154  CA        20.8190   25.0380   -2.4510 C.3   170  GLY170      0.1869
    155  C         21.5680   25.7510   -3.5650 C.2   170  GLY170      0.2309
    156  O         21.2400   25.6040   -4.7520 O.2   170  GLY170     -0.2863
    157  N         22.9460   23.1680   -5.9210 N.3   173  ILE173     -0.1245
    158  CA        21.9240   22.5880   -6.7940 C.3   173  ILE173      0.1561
    159  C         21.5910   23.5370   -7.9450 C.2   173  ILE173      0.2260
    160  O         21.5410   23.1360   -9.1080 O.2   173  ILE173     -0.2867
    161  CB        20.6680   22.2330   -5.9820 C.3   173  ILE173      0.0252
    162  CG1       20.9590   21.0160   -5.1090 C.3   173  ILE173      0.0019
    163  CG2       19.4660   21.9810   -6.9320 C.3   173  ILE173      0.0019
    164  CD1       19.9370   20.8010   -4.0300 C.3   173  ILE173      0.0001
@<TRIPOS>BOND
     1    13    12    2
     2    12    11    1
     3    16    14    1
     4    91    92    1
     5    97    95    1
     6    14    11    1
     7    14    15    1
     8    11    10    1
     9    95    92    1
    10    95    96    1
    11    92    93    1
    12     8     7    2
    13     4     3    2
    14    93    94    2
    15    10     7   am
    16     1     2    1
    17     7     6    1
    18     3     2    1
    19     3     5   am
    20     6     5    1
    21     6     9    1
    22    90    88   ar
    23    90    89   ar
    24    88    86   ar
    25    98    99    1
    26    89    87   ar
    27   103   102    1
    28    86    85   ar
    29    86    84   ar
    30   102    99    1
    31    85    83   ar
    32   160   159    2
    33    80    79    2
    34    99   100    1
    35    87    84   ar
    36    84    82   ar
    37    17    18    1
    38   100   101    2
    39    83    82   ar
    40    34    32    1
    41   159   158    1
    42    79    78    1
    43    82    81    1
    44    21    18    1
    45    21    22    1
    46    18    19    1
    47    32    33    1
    48    32    29    1
    49   163   161    1
    50    78    81    1
    51    78    77    1
    52    23    22   ar
    53    23    25   ar
    54   158   161    1
    55   158   157    1
    56    22    24   ar
    57    28    29    1
    58   104   105    1
    59    29    30    1
    60    19    20    2
    61   161   162    1
    62    25    27   ar
    63    39    36    1
    64    35    30   am
    65    35    36    1
    66    24    26   ar
    67    74    76   ar
    68    74    72   ar
    69   114   113    1
    70    76    75   ar
    71   108   105    1
    72   162   164    1
    73    30    31    2
    74   105   106    1
    75    36    37    1
    76   156   155    2
    77   113   115    1
    78   113   110    1
    79    27    26   ar
    80    72    71   ar
    81   109   106   am
    82   109   110    1
    83    69    68    2
    84    75    73   ar
    85   106   107    2
    86   110   111    1
    87   155   154    1
    88    37    38    2
    89    68    67    1
    90    71    73   ar
    91    71    70    1
    92    63    62    2
    93   148   147    2
    94   111   112    2
    95    67    70    1
    96    67    66    1
    97   154   153    1
    98    52    50    1
    99    62    66   am
   100    62    61    1
   101   147   153   am
   102   147   146    1
   103    40    41    1
   104    44    41    1
   105    49    50    1
   106    49    46    1
   107    45    46    1
   108    45    42   am
   109    50    51    1
   110    41    42    1
   111   151   149    1
   112   146   145    1
   113   146   149    1
   114    61    64    1
   115    61    60    1
   116    46    47    1
   117    64    65    1
   118    42    43    2
   119   116   117    1
   120   149   150    1
   121   120   117    1
   122    47    48    2
   123   150   152    1
   124   143   142    2
   125   117   118    1
   126   121   118   am
   127   121   122    1
   128   125   122    1
   129   125   126    1
   130   118   119    2
   131   128   126   ar
   132   128   130   ar
   133   142   141    1
   134   122   123    1
   135   126   127   ar
   136    59    57    1
   137   130   131   ar
   138   123   124    2
   139    57    58    1
   140    57    54    1
   141   141   144    1
   142   141   140    1
   143   127   129   ar
   144    53    54    1
   145   131   129   ar
   146    54    55    1
   147    55    56    2
   148   138   137    1
   149   132   133    1
   150   137   136    1
   151   137   139    1
   152   136   133    1
   153   133   134    1
   154   134   135    2
