@<TRIPOS>MOLECULE
tmp/5xjbB00.pdb
 129 123 0 0 0
SMALL
GASTEIGER

@<TRIPOS>ATOM
      1  N         57.8240    8.1550   44.9580 N.3    37  ARG37      -0.1231
      2  CA        58.7480    7.3250   44.2190 C.3    37  ARG37       0.1694
      3  C         59.3160    6.2630   45.1280 C.2    37  ARG37       0.2592
      4  O         60.0180    6.5620   46.0830 O.2    37  ARG37      -0.2718
      5  CB        59.8860    8.1400   43.6320 C.3    37  ARG37       0.0321
      6  CG        60.8480    7.3050   42.7980 C.3    37  ARG37       0.0489
      7  CD        62.1450    8.0310   42.5080 C.3    37  ARG37       0.2205
      8  NE        62.8790    7.3680   41.4380 N.pl3  37  ARG37      -0.0865
      9  CZ        63.9880    7.8370   40.8720 C.cat  37  ARG37       0.5346
     10  NH1       64.5600    8.9800   41.2630 N.pl3  37  ARG37       0.1354
     11  NH2       64.5330    7.1490   39.8930 N.pl3  37  ARG37       0.1354
     12  N         59.0230    5.0200   44.7770 N.am   38  LYS38      -0.1966
     13  CA        59.5860    3.8440   45.4220 C.3    38  LYS38       0.1728
     14  C         60.9150    3.5470   44.8060 C.2    38  LYS38       0.2616
     15  O         61.0010    3.4000   43.5990 O.2    38  LYS38      -0.2715
     16  CB        58.7090    2.6260   45.1690 C.3    38  LYS38       0.0311
     17  CG        59.3760    1.3180   45.5720 C.3    38  LYS38       0.0038
     18  CD        58.4990    0.1230   45.2880 C.3    38  LYS38       0.0206
     19  CE        59.1490   -1.1410   45.8210 C.3    38  LYS38       0.1093
     20  NZ        58.4310   -2.3440   45.3460 N.3    38  LYS38      -0.1314
     21  N         61.9430    3.4200   45.6250 N.am   39  ARG39      -0.1964
     22  CA        63.2250    2.9170   45.1300 C.3    39  ARG39       0.1714
     23  C         63.2770    1.4110   45.3290 C.2    39  ARG39       0.2458
     24  O         62.5670    0.8710   46.1730 O.2    39  ARG39      -0.2730
     25  CB        64.3910    3.6080   45.8340 C.3    39  ARG39       0.0347
     26  CG        64.8390    2.9370   47.1130 C.3    39  ARG39       0.0492
     27  CD        66.0320    3.6100   47.7820 C.3    39  ARG39       0.2205
     28  NE        66.1240    3.1920   49.1910 N.pl3  39  ARG39      -0.0865
     29  CZ        66.4540    1.9760   49.6290 C.cat  39  ARG39       0.5346
     30  NH1       66.7660    0.9980   48.7850 N.pl3  39  ARG39       0.1354
     31  NH2       66.4670    1.7330   50.9310 N.pl3  39  ARG39       0.1354
     32  N         64.1440    0.7180   44.5790 N.am   40  PRO40      -0.2727
     33  CA        64.3110   -0.7370   44.7640 C.3    40  PRO40       0.1402
     34  C         65.1120   -1.0870   45.9860 C.2    40  PRO40       0.2269
     35  O         65.9570   -0.3030   46.3890 O.2    40  PRO40      -0.2865
     36  CB        65.1040   -1.1510   43.5380 C.3    40  PRO40       0.0296
     37  CG        65.8560    0.0630   43.1640 C.3    40  PRO40       0.0237
     38  CD        64.9650    1.2220   43.4720 C.3    40  PRO40       0.0939
     39  N         68.1300   -2.5100   47.8120 N.3    42  ASN42      -0.1240
     40  CA        69.5380   -2.6040   47.3430 C.3    42  ASN42       0.1653
     41  C         70.2440   -3.8770   47.8460 C.2    42  ASN42       0.2266
     42  O         69.6430   -4.6970   48.5480 O.2    42  ASN42      -0.2867
     43  CB        70.3340   -1.3470   47.7000 C.3    42  ASN42       0.1155
     44  CG        70.5380   -1.1950   49.1840 C.2    42  ASN42       0.2627
     45  OD1       69.5920   -1.2050   49.9310 O.2    42  ASN42      -0.2716
     46  ND2       71.7820   -1.0870   49.6150 N.am   42  ASN42      -0.0877
     47  N         59.7700    0.8990   41.3090 N.3    90  GLU90      -0.1245
     48  CA        61.2060    0.6160   41.4780 C.3    90  GLU90       0.1567
     49  C         61.9680    0.5470   40.1750 C.2    90  GLU90       0.2260
     50  O         63.1800    0.3720   40.1850 O.2    90  GLU90      -0.2867
     51  CB        61.4430   -0.6660   42.3050 C.3    90  GLU90       0.0388
     52  CG        61.0810   -2.0140   41.6670 C.3    90  GLU90       0.1160
     53  CD        59.6360   -2.4710   41.9100 C.2    90  GLU90       0.3649
     54  OE1       58.7000   -1.6330   42.0650 O.co2  90  GLU90      -0.2457
     55  OE2       59.4290   -3.7030   41.9420 O.co2  90  GLU90      -0.2457
     56  N         61.1800    2.9790   37.5720 N.3    92  ALA92      -0.1245
     57  CA        61.1830    4.3140   36.9890 C.3    92  ALA92       0.1562
     58  C         62.5760    4.9600   37.0810 C.2    92  ALA92       0.2260
     59  O         63.1640    5.0330   38.1430 O.2    92  ALA92      -0.2867
     60  CB        60.1320    5.1910   37.6630 C.3    92  ALA92       0.0290
     61  N         66.0100    9.0660   55.4500 N.3   123  THR123     -0.1203
     62  CA        67.3890    8.9160   55.0500 C.3   123  THR123      0.1994
     63  C         67.5610    7.5890   54.3290 C.2   123  THR123      0.2618
     64  O         67.0780    6.5370   54.7750 O.2   123  THR123     -0.2717
     65  CB        68.3430    9.0120   56.2410 C.3   123  THR123      0.1784
     66  OG1       68.1650   10.2920   56.8790 O.3   123  THR123     -0.2211
     67  CG2       69.7950    8.8690   55.7670 C.3   123  THR123      0.0376
     68  N         68.2420    7.6730   53.1950 N.am  124  GLY124     -0.1942
     69  CA        68.5000    6.5280   52.3150 C.3   124  GLY124      0.2014
     70  C         67.4480    6.1490   51.2900 C.2   124  GLY124      0.2640
     71  O         67.5700    5.1120   50.6420 O.2   124  GLY124     -0.2714
     72  N         66.4300    6.9860   51.1470 N.am  125  SER125     -0.1935
     73  CA        65.2440    6.6800   50.3220 C.3   125  SER125      0.2055
     74  C         65.3290    7.1160   48.8580 C.2   125  SER125      0.2644
     75  O         64.4710    6.7620   48.0430 O.2   125  SER125     -0.2714
     76  CB        64.0360    7.3430   50.9410 C.3   125  SER125      0.2130
     77  OG        64.2600    8.7390   51.0320 O.3   125  SER125     -0.2179
     78  N         66.3170    7.9370   48.5460 N.am  126  GLY126     -0.1939
     79  CA        66.5580    8.3870   47.1690 C.3   126  GLY126      0.2014
     80  C         66.4740    9.8690   46.8710 C.2   126  GLY126      0.2639
     81  O         66.4190   10.2460   45.6970 O.2   126  GLY126     -0.2714
     82  N         66.4710   10.7070   47.9080 N.am  127  LYS127     -0.1963
     83  CA        66.3400   12.1650   47.7320 C.3   127  LYS127      0.1728
     84  C         67.4890   12.6780   46.9110 C.2   127  LYS127      0.2617
     85  O         67.2940   13.3190   45.8950 O.2   127  LYS127     -0.2715
     86  CB        66.3200   12.9010   49.0640 C.3   127  LYS127      0.0311
     87  CG        65.0400   12.7260   49.8700 C.3   127  LYS127      0.0038
     88  CD        65.0180   13.5640   51.1530 C.3   127  LYS127      0.0206
     89  CE        66.0990   13.1920   52.1630 C.3   127  LYS127      0.1093
     90  NZ        66.0790   11.7670   52.5840 N.3   127  LYS127     -0.1314
     91  N         68.6870   12.3270   47.3400 N.am  128  THR128     -0.1937
     92  CA        69.9030   12.8240   46.6940 C.3   128  THR128      0.2028
     93  C         70.1490   12.1620   45.3320 C.2   128  THR128      0.2642
     94  O         70.5710   12.8010   44.3790 O.2   128  THR128     -0.2714
     95  CB        71.1290   12.6660   47.6010 C.3   128  THR128      0.1808
     96  OG1       70.8380   13.1890   48.9110 O.3   128  THR128     -0.2208
     97  CG2       72.2850   13.4160   47.0060 C.3   128  THR128      0.0379
     98  N         69.8550   10.8800   45.2380 N.am  129  HIS129     -0.1973
     99  CA        69.9100   10.1740   43.9500 C.3   129  HIS129      0.1656
    100  C         69.0560   10.8750   42.9110 C.2   129  HIS129      0.2291
    101  O         69.4470   10.9900   41.7710 O.2   129  HIS129     -0.2864
    102  CB        69.4230    8.7470   44.1400 C.3   129  HIS129      0.0771
    103  CG        69.5180    7.8820   42.9230 C.ar  129  HIS129      0.0820
    104  ND1       68.5120    7.8090   41.9800 N.ar  129  HIS129     -0.2267
    105  CD2       70.4530    6.9800   42.5480 C.ar  129  HIS129      0.1154
    106  CE1       68.8330    6.9120   41.0650 C.ar  129  HIS129      0.1986
    107  NE2       70.0060    6.3950   41.3890 N.ar  129  HIS129     -0.2212
    108  N         73.3260    9.7360   40.5960 N.3   134  ASP134     -0.1239
    109  CA        73.8670    8.4040   40.9720 C.3   134  ASP134      0.1674
    110  C         75.1840    8.4380   41.7470 C.2   134  ASP134      0.2266
    111  O         75.3460    7.7150   42.7320 O.2   134  ASP134     -0.2867
    112  CB        74.0610    7.5230   39.7230 C.3   134  ASP134      0.1410
    113  CG        72.7560    7.2450   38.9730 C.2   134  ASP134      0.3668
    114  OD1       71.8490    8.1050   39.0000 O.co2 134  ASP134     -0.2456
    115  OD2       72.6510    6.1800   38.3250 O.co2 134  ASP134     -0.2456
    116  N         72.3190   14.9800   54.8320 N.3   226  SER226     -0.1217
    117  CA        70.9810   14.5830   55.2540 C.3   226  SER226      0.1889
    118  C         70.9300   14.9480   56.7330 C.2   226  SER226      0.2288
    119  O         70.0330   14.5180   57.4580 O.2   226  SER226     -0.2866
    120  CB        70.7620   13.0890   55.0040 C.3   226  SER226      0.2089
    121  OG        70.7880   12.7950   53.6180 O.3   226  SER226     -0.2183
    122  N         66.9210   19.2990   47.9540 N.3   250  ASP250     -0.1239
    123  CA        67.1810   17.9480   48.5290 C.3   250  ASP250      0.1674
    124  C         67.0080   18.0780   50.0460 C.2   250  ASP250      0.2266
    125  O         67.9670   18.4010   50.7510 O.2   250  ASP250     -0.2867
    126  CB        68.6250   17.5470   48.1590 C.3   250  ASP250      0.1410
    127  CG        69.0780   16.1800   48.7050 C.2   250  ASP250      0.3668
    128  OD1       68.3600   15.4840   49.4570 O.co2 250  ASP250     -0.2456
    129  OD2       70.2250   15.8030   48.3610 O.co2 250  ASP250     -0.2456
@<TRIPOS>BOND
     1    57    58    1
     2    57    56    1
     3    57    60    1
     4    58    59    2
     5   115   113   ar
     6   113   114   ar
     7   113   112    1
     8   112   109    1
     9    11     9    1
    10    49    50    2
    11    49    48    1
    12   108   109    1
    13     9    10    1
    14     9     8    2
    15   109   110    1
    16   106   107   ar
    17   106   104   ar
    18    47    48    1
    19   107   105   ar
    20     8     7    1
    21    48    51    1
    22    52    53    1
    23    52    51    1
    24   110   111    2
    25   101   100    2
    26    53    55   ar
    27    53    54   ar
    28   104   103   ar
    29     7     6    1
    30   105   103   ar
    31     6     5    1
    32   100    99    1
    33   103   102    1
    34    37    38    1
    35    37    36    1
    36    38    32    1
    37    36    33    1
    38    15    14    2
    39     5     2    1
    40    99   102    1
    41    99    98    1
    42     2     1    1
    43     2     3    1
    44    94    93    2
    45    32    33    1
    46    32    23   am
    47    33    34    1
    48    12     3   am
    49    12    13    1
    50    14    13    1
    51    14    21   am
    52     3     4    2
    53    22    23    1
    54    22    21    1
    55    22    25    1
    56    16    13    1
    57    16    17    1
    58    98    93   am
    59    18    17    1
    60    18    19    1
    61    23    24    2
    62    93    92    1
    63    20    19    1
    64    81    80    2
    65    25    26    1
    66    85    84    2
    67    34    35    2
    68    92    91    1
    69    92    95    1
    70    80    79    1
    71    80    82   am
    72    84    91   am
    73    84    83    1
    74    97    95    1
    75    26    27    1
    76    79    78    1
    77    40    43    1
    78    40    39    1
    79    40    41    1
    80    95    96    1
    81    43    44    1
    82    83    82    1
    83    83    86    1
    84    27    28    1
    85    41    42    2
    86   122   123    1
    87    75    74    2
    88   126   123    1
    89   126   127    1
    90   129   127   ar
    91   123   124    1
    92    78    74   am
    93   127   128   ar
    94    30    29    1
    95    74    73    1
    96    86    87    1
    97    44    46   am
    98    44    45    2
    99    28    29    2
   100    29    31    1
   101    87    88    1
   102   124   125    2
   103    73    76    1
   104    73    72    1
   105    71    70    2
   106    76    77    1
   107    72    70   am
   108    88    89    1
   109    70    69    1
   110    89    90    1
   111    69    68    1
   112    68    63   am
   113   121   120    1
   114    63    64    2
   115    63    62    1
   116   116   117    1
   117   120   117    1
   118    62    61    1
   119    62    65    1
   120   117   118    1
   121    67    65    1
   122    65    66    1
   123   118   119    2
