@<TRIPOS>MOLECULE
tmp/5xjgC00.pdb
 88 82 0 0 0
SMALL
GASTEIGER

@<TRIPOS>ATOM
      1  N        105.0560  -10.7370   77.1370 N.3   279  GLN279     -0.1245
      2  CA       104.2700  -11.5510   76.2140 C.3   279  GLN279      0.1566
      3  C        103.4520  -12.6170   76.9410 C.2   279  GLN279      0.2260
      4  O        103.0210  -13.5990   76.3330 O.2   279  GLN279     -0.2867
      5  CB       105.1820  -12.2300   75.1940 C.3   279  GLN279      0.0367
      6  CG       105.9120  -11.2820   74.2630 C.3   279  GLN279      0.0905
      7  CD       106.9450  -11.9980   73.4220 C.2   279  GLN279      0.2608
      8  OE1      108.0570  -12.2630   73.8770 O.2   279  GLN279     -0.2717
      9  NE2      106.5770  -12.3320   72.1920 N.am  279  GLN279     -0.0878
     10  N        108.3960   -6.0070   68.4390 N.3   313  LYS313     -0.1231
     11  CA       107.1200   -6.6250   68.0700 C.3   313  LYS313      0.1678
     12  C        106.1930   -6.9320   69.2580 C.2   313  LYS313      0.2434
     13  O        104.9850   -6.7250   69.1520 O.2   313  LYS313     -0.2733
     14  CB       107.3580   -7.9020   67.2600 C.3   313  LYS313      0.0284
     15  CG       107.7160   -7.6570   65.8070 C.3   313  LYS313      0.0035
     16  CD       107.3400   -8.8560   64.9560 C.3   313  LYS313      0.0206
     17  CE       107.7320   -8.6500   63.5100 C.3   313  LYS313      0.1093
     18  NZ       107.3670   -9.8240   62.6710 N.3   313  LYS313     -0.1314
     19  N        106.7340   -7.4460   70.3810 N.am  314  PRO314     -0.2729
     20  CA       105.8480   -7.5570   71.5500 C.3   314  PRO314      0.1401
     21  C        105.2410   -6.2100   71.9590 C.2   314  PRO314      0.2269
     22  O        104.0300   -6.1150   72.2260 O.2   314  PRO314     -0.2865
     23  CB       106.7810   -8.0890   72.6390 C.3   314  PRO314      0.0296
     24  CG       107.7830   -8.8950   71.8910 C.3   314  PRO314      0.0237
     25  CD       108.0080   -8.1610   70.5950 C.3   314  PRO314      0.0939
     26  N        104.7330   -3.5890   70.0380 N.3   316  VAL316     -0.1231
     27  CA       103.7360   -3.2300   69.0310 C.3   316  VAL316      0.1692
     28  C        102.4260   -3.9790   69.2680 C.2   316  VAL316      0.2591
     29  O        101.3410   -3.4040   69.1600 O.2   316  VAL316     -0.2718
     30  CB       104.2410   -3.5200   67.5980 C.3   316  VAL316      0.0266
     31  CG1      103.1170   -3.3510   66.5840 C.3   316  VAL316      0.0020
     32  CG2      105.4060   -2.6090   67.2490 C.3   316  VAL316      0.0020
     33  N        102.5330   -5.2590   69.6130 N.am  317  ARG317     -0.1980
     34  CA       101.3520   -6.0740   69.8660 C.3   317  ARG317      0.1597
     35  C        100.5790   -5.5670   71.0780 C.2   317  ARG317      0.2287
     36  O         99.3580   -5.7210   71.1500 O.2   317  ARG317     -0.2864
     37  CB       101.7360   -7.5400   70.0710 C.3   317  ARG317      0.0334
     38  CG       100.5390   -8.4800   70.1050 C.3   317  ARG317      0.0492
     39  CD       100.9700   -9.9310   70.2070 C.3   317  ARG317      0.2205
     40  NE       101.3730  -10.2780   71.5640 N.pl3 317  ARG317     -0.0865
     41  CZ       100.6260  -10.9830   72.4070 C.cat 317  ARG317      0.5346
     42  NH1       99.4350  -11.4300   72.0300 N.pl3 317  ARG317      0.1354
     43  NH2      101.0740  -11.2490   73.6260 N.pl3 317  ARG317      0.1354
     44  N         97.2270   -3.4160   70.9210 N.3   320  ASP320     -0.1239
     45  CA        95.9030   -3.9950   70.7180 C.3   320  ASP320      0.1674
     46  C         95.1950   -4.2630   72.0460 C.2   320  ASP320      0.2266
     47  O         94.0390   -4.6840   72.0640 O.2   320  ASP320     -0.2867
     48  CB        96.0000   -5.2830   69.8990 C.3   320  ASP320      0.1410
     49  CG        96.2730   -5.0180   68.4290 C.2   320  ASP320      0.3668
     50  OD1       95.7120   -4.0420   67.8840 O.co2 320  ASP320     -0.2456
     51  OD2       97.0510   -5.7820   67.8210 O.co2 320  ASP320     -0.2456
     52  N        109.0750   -3.4790   62.3820 N.3   352  SER352     -0.1202
     53  CA       108.2230   -4.0040   63.4510 C.3   352  SER352      0.2020
     54  C        106.7260   -3.8280   63.1770 C.2   352  SER352      0.2619
     55  O        105.9050   -4.6010   63.6720 O.2   352  SER352     -0.2717
     56  CB       108.5710   -3.3380   64.7850 C.3   352  SER352      0.2103
     57  OG       108.1280   -1.9930   64.8120 O.3   352  SER352     -0.2182
     58  N        106.3730   -2.8090   62.4010 N.am  353  GLY353     -0.1956
     59  CA       104.9760   -2.5020   62.1470 C.3   353  GLY353      0.1869
     60  C        104.4400   -1.4730   63.1270 C.2   353  GLY353      0.2309
     61  O        103.2290   -1.2670   63.2320 O.2   353  GLY353     -0.2863
     62  N        102.5280    1.6910   61.3730 N.3   356  GLU356     -0.1231
     63  CA       101.1810    1.3860   60.9000 C.3   356  GLU356      0.1699
     64  C        100.1960    1.2320   62.0570 C.2   356  GLU356      0.2592
     65  O         99.0970    1.7860   62.0240 O.2   356  GLU356     -0.2718
     66  CB       101.1870    0.1130   60.0460 C.3   356  GLU356      0.0402
     67  CG       101.9420    0.2350   58.7260 C.3   356  GLU356      0.1161
     68  CD       103.4510    0.2050   58.8960 C.2   356  GLU356      0.3649
     69  OE1      103.9240   -0.1700   59.9900 O.co2 356  GLU356     -0.2457
     70  OE2      104.1660    0.5600   57.9340 O.co2 356  GLU356     -0.2457
     71  N        100.5980    0.4830   63.0790 N.am  357  LYS357     -0.1980
     72  CA        99.7560    0.2580   64.2510 C.3   357  LYS357      0.1596
     73  C         99.4800    1.5600   65.0040 C.2   357  LYS357      0.2287
     74  O         98.3510    1.8150   65.4370 O.2   357  LYS357     -0.2864
     75  CB       100.4060   -0.7650   65.1830 C.3   357  LYS357      0.0298
     76  CG        99.5720   -1.1150   66.4040 C.3   357  LYS357      0.0038
     77  CD        98.2310   -1.7180   66.0250 C.3   357  LYS357      0.0206
     78  CE        98.2930   -3.2350   66.0210 C.3   357  LYS357      0.1093
     79  NZ        97.0320   -3.8390   65.5060 N.3   357  LYS357     -0.1314
     80  N         97.0090    3.5190   63.0680 N.3   360  GLU360     -0.1245
     81  CA        95.6840    2.9540   63.2830 C.3   360  GLU360      0.1567
     82  C         95.0870    3.4120   64.6110 C.2   360  GLU360      0.2260
     83  O         93.9020    3.7370   64.6900 O.2   360  GLU360     -0.2867
     84  CB        95.7420    1.4260   63.2390 C.3   360  GLU360      0.0388
     85  CG        94.4160    0.7470   63.5450 C.3   360  GLU360      0.1160
     86  CD        94.5830   -0.6990   63.9720 C.2   360  GLU360      0.3649
     87  OE1       94.8690   -1.5490   63.1040 O.co2 360  GLU360     -0.2457
     88  OE2       94.4280   -0.9840   65.1780 O.co2 360  GLU360     -0.2457
@<TRIPOS>BOND
     1    70    68   ar
     2    67    68    1
     3    67    66    1
     4    68    69   ar
     5    66    63    1
     6    63    62    1
     7    63    64    1
     8    65    64    2
     9    64    71   am
    10    59    58    1
    11    59    60    1
    12    52    53    1
    13    58    54   am
    14    18    17    1
    15    80    81    1
    16    71    72    1
    17    87    86   ar
    18    60    61    2
    19    54    53    1
    20    54    55    2
    21    84    81    1
    22    84    85    1
    23    81    82    1
    24    53    56    1
    25    17    16    1
    26    85    86    1
    27    86    88   ar
    28    72    73    1
    29    72    75    1
    30    82    83    2
    31    56    57    1
    32    16    15    1
    33    73    74    2
    34    75    76    1
    35    79    78    1
    36    15    14    1
    37    78    77    1
    38    77    76    1
    39    31    30    1
    40    32    30    1
    41    14    11    1
    42    30    27    1
    43    51    49   ar
    44    50    49   ar
    45    11    10    1
    46    11    12    1
    47    49    48    1
    48    27    28    1
    49    27    26    1
    50    13    12    2
    51    29    28    2
    52    12    19   am
    53    28    33   am
    54    33    34    1
    55    34    37    1
    56    34    35    1
    57    48    45    1
    58    37    38    1
    59    38    39    1
    60    39    40    1
    61    19    25    1
    62    19    20    1
    63    25    24    1
    64    45    44    1
    65    45    46    1
    66    35    36    2
    67    20    21    1
    68    20    23    1
    69    40    41    2
    70    24    23    1
    71    21    22    2
    72    42    41    1
    73    46    47    2
    74     9     7   am
    75    41    43    1
    76     7     8    2
    77     7     6    1
    78     6     5    1
    79     5     2    1
    80     2     3    1
    81     2     1    1
    82     4     3    2
