@<TRIPOS>MOLECULE
tmp/5xk6A00.pdb
 90 88 0 0 0
SMALL
GASTEIGER

@<TRIPOS>ATOM
      1  N         23.3740   57.7150   47.3960 N.3     9  PRO9       -0.2102
      2  CA        23.3340   57.5350   45.9320 C.3     9  PRO9        0.1504
      3  C         22.0920   56.7690   45.5020 C.2     9  PRO9        0.2576
      4  O         21.6660   55.8060   46.1560 O.2     9  PRO9       -0.2718
      5  CB        24.5990   56.7230   45.6270 C.3     9  PRO9        0.0282
      6  CG        25.4680   56.8510   46.8230 C.3     9  PRO9        0.0208
      7  CD        24.5310   57.0510   48.0190 C.3     9  PRO9        0.0893
      8  N         21.4780   57.2440   44.4180 N.am   10  ASP10      -0.1960
      9  CA        20.2990   56.5900   43.8840 C.3    10  ASP10       0.1840
     10  C         20.1610   56.9640   42.4150 C.2    10  ASP10       0.2623
     11  O         20.5290   58.0770   41.9950 O.2    10  ASP10      -0.2715
     12  CB        19.0370   57.0120   44.6610 C.3    10  ASP10       0.1450
     13  CG        17.9660   55.9880   44.6170 C.2    10  ASP10       0.3671
     14  OD1       18.2850   54.8100   44.3070 O.co2  10  ASP10      -0.2456
     15  OD2       16.8190   56.3390   44.8940 O.co2  10  ASP10      -0.2456
     16  N         19.5670   56.0460   41.6630 N.am   11  GLY11      -0.1940
     17  CA        19.1490   56.3270   40.3040 C.3    11  GLY11       0.2014
     18  C         19.9470   55.6550   39.2010 C.2    11  GLY11       0.2639
     19  O         19.8320   56.0830   38.0430 O.2    11  GLY11      -0.2714
     20  N         20.7590   54.6420   39.5100 N.am   12  MET12      -0.1963
     21  CA        21.6620   54.1130   38.4830 C.3    12  MET12       0.1736
     22  C         20.9030   53.3080   37.4350 C.2    12  MET12       0.2616
     23  O         21.1950   53.4130   36.2320 O.2    12  MET12      -0.2715
     24  CB        22.7670   53.2790   39.1420 C.3    12  MET12       0.0427
     25  CG        24.0750   54.0490   39.3460 C.3    12  MET12       0.0599
     26  SD        23.9240   55.6660   40.1850 S.3    12  MET12      -0.1393
     27  CE        23.4130   55.1590   41.8250 C.3    12  MET12       0.0692
     28  N         19.9050   52.5250   37.8510 N.am   13  ARG13      -0.1963
     29  CA        19.1610   51.7470   36.8610 C.3    13  ARG13       0.1729
     30  C         18.3610   52.6720   35.9480 C.2    13  ARG13       0.2616
     31  O         18.4280   52.5620   34.7100 O.2    13  ARG13      -0.2715
     32  CB        18.2580   50.7180   37.5570 C.3    13  ARG13       0.0348
     33  CG        17.5470   49.7940   36.5730 C.3    13  ARG13       0.0492
     34  CD        16.5780   48.7900   37.2190 C.3    13  ARG13       0.2205
     35  NE        15.4690   49.4010   37.9530 N.pl3  13  ARG13      -0.0865
     36  CZ        14.2800   49.6730   37.4140 C.cat  13  ARG13       0.5346
     37  NH1       14.0280   49.3430   36.1510 N.pl3  13  ARG13       0.1354
     38  NH2       13.3260   50.2320   38.1490 N.pl3  13  ARG13       0.1354
     39  N         17.6450   53.6460   36.5350 N.am   14  ARG14      -0.1977
     40  CA        16.9150   54.6090   35.7130 C.3    14  ARG14       0.1597
     41  C         17.8370   55.3740   34.7870 C.2    14  ARG14       0.2287
     42  O         17.4500   55.7160   33.6680 O.2    14  ARG14      -0.2864
     43  CB        16.1360   55.6130   36.5690 C.3    14  ARG14       0.0334
     44  CG        14.8240   55.1030   37.0310 C.3    14  ARG14       0.0492
     45  CD        14.2630   56.0220   38.0970 C.3    14  ARG14       0.2205
     46  NE        15.0210   55.9080   39.3390 N.pl3  14  ARG14      -0.0865
     47  CZ        14.9860   56.8150   40.3170 C.cat  14  ARG14       0.5346
     48  NH1       15.6980   56.6320   41.4280 N.pl3  14  ARG14       0.1354
     49  NH2       14.2130   57.8860   40.1840 N.pl3  14  ARG14       0.1354
     50  N         23.9100   48.7760   32.6250 N.3    23  LEU23      -0.1245
     51  CA        24.0370   49.0910   34.0440 C.3    23  LEU23       0.1561
     52  C         25.4900   49.3410   34.4130 C.2    23  LEU23       0.2260
     53  O         25.7960   50.2720   35.1610 O.2    23  LEU23      -0.2867
     54  CB        23.4560   47.9560   34.8930 C.3    23  LEU23       0.0270
     55  CG        23.3160   48.2860   36.3810 C.3    23  LEU23       0.0019
     56  CD1       22.3930   49.4770   36.5520 C.3    23  LEU23       0.0001
     57  CD2       22.8150   47.0630   37.1550 C.3    23  LEU23       0.0001
     58  N         26.9860   52.6420   36.2710 N.3    27  TYR27      -0.1241
     59  CA        27.8250   52.6440   37.4610 C.3    27  TYR27       0.1605
     60  C         29.1740   53.2830   37.1890 C.2    27  TYR27       0.2264
     61  O         29.7760   53.8600   38.0960 O.2    27  TYR27      -0.2867
     62  CB        27.9880   51.2310   38.0330 C.3    27  TYR27       0.0534
     63  CG        26.8850   50.8740   39.0180 C.ar   27  TYR27      -0.0201
     64  CD1       26.9320   51.3000   40.3490 C.ar   27  TYR27      -0.0009
     65  CD2       25.8150   50.0750   38.6270 C.ar   27  TYR27      -0.0009
     66  CE1       25.9290   50.9530   41.2430 C.ar   27  TYR27       0.0417
     67  CE2       24.8120   49.7320   39.5100 C.ar   27  TYR27       0.0417
     68  CZ        24.8630   50.1780   40.8110 C.ar   27  TYR27       0.1957
     69  OH        23.8510   49.8230   41.6990 O.3    27  TYR27      -0.2866
     70  N         20.3770   41.3440   45.7160 N.3    61  ARG61      -0.1245
     71  CA        20.4910   41.4570   44.2730 C.3    61  ARG61       0.1563
     72  C         21.3300   40.2940   43.7200 C.2    61  ARG61       0.2260
     73  O         21.9530   39.5290   44.4600 O.2    61  ARG61      -0.2867
     74  CB        21.0780   42.8330   43.9300 C.3    61  ARG61       0.0307
     75  CG        20.0980   43.9930   44.2560 C.3    61  ARG61       0.0489
     76  CD        20.6610   45.4250   44.0740 C.3    61  ARG61       0.2205
     77  NE        19.6420   46.4270   44.4270 N.pl3  61  ARG61      -0.0865
     78  CZ        19.7840   47.7530   44.3330 C.cat  61  ARG61       0.5346
     79  NH1       20.9220   48.2880   43.9000 N.pl3  61  ARG61       0.1354
     80  NH2       18.7770   48.5500   44.6870 N.pl3  61  ARG61       0.1354
     81  N         13.0470   59.7420   45.3160 N.3   168  HIS168     -0.1241
     82  CA        12.3160   59.0570   46.3850 C.3   168  HIS168      0.1621
     83  C         12.4110   59.8730   47.6730 C.2   168  HIS168      0.2264
     84  O         13.5170   60.1970   48.1240 O.2   168  HIS168     -0.2867
     85  CB        12.9070   57.6720   46.6490 C.3   168  HIS168      0.0745
     86  CG        12.6940   56.7030   45.5340 C.ar  168  HIS168      0.0817
     87  ND1       11.4540   56.1740   45.2380 N.ar  168  HIS168     -0.2268
     88  CD2       13.5570   56.1800   44.6330 C.ar  168  HIS168      0.1154
     89  CE1       11.5700   55.3490   44.2080 C.ar  168  HIS168      0.1986
     90  NE2       12.8320   55.3410   43.8190 N.ar  168  HIS168     -0.2212
@<TRIPOS>BOND
     1    50    51    1
     2    42    41    2
     3    51    52    1
     4    51    54    1
     5    52    53    2
     6    31    30    2
     7    41    40    1
     8    54    55    1
     9    40    39    1
    10    40    43    1
    11    30    39   am
    12    30    29    1
    13    37    36    1
    14    23    22    2
    15    58    59    1
    16    55    56    1
    17    55    57    1
    18    43    44    1
    19    33    34    1
    20    33    32    1
    21    29    32    1
    22    29    28    1
    23    44    45    1
    24    60    59    1
    25    60    61    2
    26    34    35    1
    27    36    35    2
    28    36    38    1
    29    22    28   am
    30    22    21    1
    31    59    62    1
    32    62    63    1
    33    19    18    2
    34    45    46    1
    35    21    24    1
    36    21    20    1
    37    65    63   ar
    38    65    67   ar
    39    63    64   ar
    40    24    25    1
    41    18    20   am
    42    18    17    1
    43    46    47    2
    44    25    26    1
    45    67    68   ar
    46    49    47    1
    47    26    27    1
    48    17    16    1
    49    47    48    1
    50    64    66   ar
    51    68    66   ar
    52    68    69    1
    53    16    10   am
    54    11    10    2
    55    10     9    1
    56    72    71    1
    57    72    73    2
    58    90    89   ar
    59    90    88   ar
    60     9     8    1
    61     9    12    1
    62    79    78    1
    63    74    75    1
    64    74    71    1
    65    76    75    1
    66    76    77    1
    67    89    87   ar
    68    71    70    1
    69    14    13   ar
    70    78    77    2
    71    78    80    1
    72     8     3   am
    73    13    12    1
    74    13    15   ar
    75    88    86   ar
    76    87    86   ar
    77    81    82    1
    78     3     2    1
    79     3     4    2
    80    86    85    1
    81     5     2    1
    82     5     6    1
    83     2     1    1
    84    82    85    1
    85    82    83    1
    86     6     7    1
    87     1     7    1
    88    83    84    2
