@<TRIPOS>MOLECULE
tmp/5xk6B01.pdb
 89 83 0 0 0
SMALL
GASTEIGER

@<TRIPOS>ATOM
      1  N          3.6130   66.3320   64.4640 N.3     9  PRO9       -0.2102
      2  CA         3.0120   67.6780   64.5490 C.3     9  PRO9        0.1504
      3  C          4.0870   68.7400   64.6200 C.2     9  PRO9        0.2575
      4  O          5.1160   68.5610   65.2790 O.2     9  PRO9       -0.2718
      5  CB         2.2040   67.6360   65.8610 C.3     9  PRO9        0.0282
      6  CG         2.0320   66.1940   66.1640 C.3     9  PRO9        0.0208
      7  CD         3.2440   65.4730   65.5990 C.3     9  PRO9        0.0893
      8  N          3.8800   69.8260   63.8730 N.am   10  ASP10      -0.1974
      9  CA         4.8490   70.9020   63.9600 C.3    10  ASP10       0.1708
     10  C          4.2000   72.2090   63.5610 C.2    10  ASP10       0.2293
     11  O          3.3130   72.2450   62.7000 O.2    10  ASP10      -0.2864
     12  CB         6.0580   70.6430   63.0480 C.3    10  ASP10       0.1436
     13  CG         7.2900   71.4180   63.4810 C.2    10  ASP10       0.3671
     14  OD1        7.3930   71.8310   64.6630 O.co2  10  ASP10      -0.2456
     15  OD2        8.1460   71.7010   62.6050 O.co2  10  ASP10      -0.2456
     16  N          9.9550   64.4820   71.7840 N.3    55  SER55      -0.1217
     17  CA        11.2910   63.9110   71.8440 C.3    55  SER55       0.1889
     18  C         11.8420   64.0540   73.2480 C.2    55  SER55       0.2288
     19  O         11.3080   64.8090   74.0710 O.2    55  SER55      -0.2866
     20  CB        12.2110   64.6240   70.8570 C.3    55  SER55       0.2089
     21  OG        12.2550   66.0160   71.2020 O.3    55  SER55      -0.2183
     22  N         12.6600   67.7240   73.5540 N.3    58  ASN58      -0.1240
     23  CA        11.5410   68.6260   73.8190 C.3    58  ASN58       0.1653
     24  C         11.3460   68.8620   75.3040 C.2    58  ASN58       0.2266
     25  O         10.7670   69.8910   75.6790 O.2    58  ASN58      -0.2867
     26  CB        10.2240   68.0580   73.2820 C.3    58  ASN58       0.1155
     27  CG        10.0970   68.1040   71.7600 C.2    58  ASN58       0.2627
     28  OD1        9.3390   67.2960   71.2060 O.2    58  ASN58      -0.2716
     29  ND2       10.7340   69.0770   71.0770 N.am   58  ASN58      -0.0877
     30  N         12.5240   72.0150   76.8260 N.3    61  ARG61      -0.1245
     31  CA        11.8140   73.2800   76.6960 C.3    61  ARG61       0.1563
     32  C         11.4610   73.7680   78.1010 C.2    61  ARG61       0.2260
     33  O         11.6670   73.0650   79.0890 O.2    61  ARG61      -0.2867
     34  CB        10.5640   73.1380   75.8220 C.3    61  ARG61       0.0307
     35  CG        10.9240   72.9130   74.3560 C.3    61  ARG61       0.0489
     36  CD         9.6460   72.7730   73.4550 C.3    61  ARG61       0.2205
     37  NE         9.9680   72.5690   72.0280 N.pl3  61  ARG61      -0.0865
     38  CZ         9.0590   72.5590   71.0640 C.cat  61  ARG61       0.5346
     39  NH1        7.7770   72.7360   71.3510 N.pl3  61  ARG61       0.1354
     40  NH2        9.4350   72.3750   69.7960 N.pl3  61  ARG61       0.1354
     41  N          5.0690   65.0200   57.8230 N.3   164  ARG164     -0.1245
     42  CA         5.5190   66.1300   58.6780 C.3   164  ARG164      0.1563
     43  C          5.1350   67.4650   58.0390 C.2   164  ARG164      0.2260
     44  O          5.7770   67.8800   57.0590 O.2   164  ARG164     -0.2867
     45  CB         7.0210   66.0610   58.9610 C.3   164  ARG164      0.0307
     46  CG         7.4300   67.2000   59.8830 C.3   164  ARG164      0.0489
     47  CD         8.9100   67.1990   60.2500 C.3   164  ARG164      0.2205
     48  NE         9.1760   68.3810   61.0970 N.pl3 164  ARG164     -0.0865
     49  CZ        10.1010   68.4210   62.0500 C.cat 164  ARG164      0.5346
     50  NH1       10.8960   67.3820   62.2630 N.pl3 164  ARG164      0.1354
     51  NH2       10.2520   69.5390   62.7870 N.pl3 164  ARG164      0.1354
     52  N          9.7310   71.9070   57.8640 N.3   168  HIS168     -0.1241
     53  CA        11.0510   71.3690   58.1690 C.3   168  HIS168      0.1621
     54  C         11.2060   69.9510   57.6430 C.2   168  HIS168      0.2264
     55  O         10.3430   69.0920   57.8730 O.2   168  HIS168     -0.2867
     56  CB        11.3290   71.4620   59.6630 C.3   168  HIS168      0.0745
     57  CG        11.6050   72.8780   60.0580 C.ar  168  HIS168      0.0817
     58  ND1       12.7720   73.5110   59.6810 N.ar  168  HIS168     -0.2268
     59  CD2       10.8180   73.8290   60.6120 C.ar  168  HIS168      0.1154
     60  CE1       12.7200   74.7790   60.0520 C.ar  168  HIS168      0.1986
     61  NE2       11.5490   74.9960   60.6260 N.ar  168  HIS168     -0.2212
     62  N         13.2010   67.1250   58.2460 N.3   170  ARG170     -0.1245
     63  CA        14.0740   66.5230   59.2480 C.3   170  ARG170      0.1563
     64  C         13.2040   65.6620   60.1480 C.2   170  ARG170      0.2260
     65  O         11.9620   65.7900   60.1420 O.2   170  ARG170     -0.2867
     66  CB        14.8670   67.6150   60.0290 C.3   170  ARG170      0.0307
     67  CG        14.0010   68.6780   60.7320 C.3   170  ARG170      0.0489
     68  CD        14.9090   69.7930   61.2420 C.3   170  ARG170      0.2205
     69  NE        14.1940   70.8360   61.9910 N.pl3 170  ARG170     -0.0865
     70  CZ        14.5580   72.1240   61.9880 C.cat 170  ARG170      0.5346
     71  NH1       13.9120   73.0000   62.7680 N.pl3 170  ARG170      0.1354
     72  NH2       15.5530   72.5540   61.2070 N.pl3 170  ARG170      0.1354
     73  N         14.0270   65.1310   63.5760 N.3   172  SER172     -0.1217
     74  CA        13.9870   65.7520   64.9060 C.3   172  SER172      0.1889
     75  C         13.7730   64.7720   66.0560 C.2   172  SER172      0.2288
     76  O         13.0440   65.0480   67.0070 O.2   172  SER172     -0.2866
     77  CB        12.9080   66.8390   64.9320 C.3   172  SER172      0.2089
     78  OG        13.1780   67.7220   63.8690 O.3   172  SER172     -0.2183
     79  N         12.3470   61.9070   65.8990 N.3   174  PHE174     -0.1241
     80  CA        11.0770   61.1770   65.7900 C.3   174  PHE174      0.1605
     81  C         11.1370   60.0140   64.8080 C.2   174  PHE174      0.2264
     82  O         10.1030   59.3980   64.5400 O.2   174  PHE174     -0.2867
     83  CB         9.9380   62.1340   65.3710 C.3   174  PHE174      0.0534
     84  CG         9.7140   63.2770   66.3290 C.ar  174  PHE174     -0.0203
     85  CD1        9.3340   63.0340   67.6390 C.ar  174  PHE174     -0.0042
     86  CD2        9.8380   64.5720   65.8790 C.ar  174  PHE174     -0.0042
     87  CE1        9.1190   64.0950   68.4900 C.ar  174  PHE174     -0.0003
     88  CE2        9.6220   65.6440   66.7210 C.ar  174  PHE174     -0.0003
     89  CZ         9.2720   65.3920   68.0250 C.ar  174  PHE174     -0.0000
@<TRIPOS>BOND
     1    44    43    2
     2    54    55    2
     3    54    53    1
     4    41    42    1
     5    52    53    1
     6    43    42    1
     7    53    56    1
     8    62    63    1
     9    42    45    1
    10    45    46    1
    11    63    66    1
    12    63    64    1
    13    56    57    1
    14    58    60   ar
    15    58    57   ar
    16    46    47    1
    17    66    67    1
    18    60    61   ar
    19    57    59   ar
    20    65    64    2
    21    47    48    1
    22    59    61   ar
    23    67    68    1
    24    48    49    2
    25    72    70    1
    26    68    69    1
    27    70    69    2
    28    70    71    1
    29    49    50    1
    30    49    51    1
    31    15    13   ar
    32    11    10    2
    33    12    13    1
    34    12     9    1
    35    13    14   ar
    36    10     9    1
    37    73    74    1
    38    78    77    1
    39     8     9    1
    40     8     3   am
    41     1     2    1
    42     1     7    1
    43    82    81    2
    44     2     3    1
    45     2     5    1
    46     3     4    2
    47    81    80    1
    48    74    77    1
    49    74    75    1
    50    83    80    1
    51    83    84    1
    52     7     6    1
    53    80    79    1
    54     5     6    1
    55    86    84   ar
    56    86    88   ar
    57    75    76    2
    58    84    85   ar
    59    88    89   ar
    60    85    87   ar
    61    89    87   ar
    62    40    38    1
    63    20    21    1
    64    20    17    1
    65    38    39    1
    66    38    37    2
    67    29    27   am
    68    28    27    2
    69    27    26    1
    70    16    17    1
    71    17    18    1
    72    37    36    1
    73    18    19    2
    74    26    23    1
    75    36    35    1
    76    22    23    1
    77    23    24    1
    78    35    34    1
    79    24    25    2
    80    34    31    1
    81    31    30    1
    82    31    32    1
    83    32    33    2
