@<TRIPOS>MOLECULE
tmp/5xk8D00.pdb
 189 183 0 0 0
SMALL
GASTEIGER

@<TRIPOS>ATOM
      1  N         12.7950   31.8360  -17.1660 N.3     8  PRO8       -0.2102
      2  CA        13.4570   32.0990  -15.8860 C.3     8  PRO8        0.1504
      3  C         12.4360   32.3180  -14.7840 C.2     8  PRO8        0.2576
      4  O         11.3890   32.9390  -14.9850 O.2     8  PRO8       -0.2718
      5  CB        14.2710   33.3660  -16.1670 C.3     8  PRO8        0.0282
      6  CG        13.5000   34.0720  -17.2390 C.3     8  PRO8        0.0208
      7  CD        12.7700   33.0220  -18.0380 C.3     8  PRO8        0.0893
      8  N         12.7700   31.8170  -13.6000 N.am    9  ASP9       -0.1960
      9  CA        11.8650   31.8620  -12.4640 C.3     9  ASP9        0.1840
     10  C         12.6600   31.5750  -11.1990 C.2     9  ASP9        0.2623
     11  O         13.7740   31.0470  -11.2520 O.2     9  ASP9       -0.2715
     12  CB        10.7550   30.8160  -12.6570 C.3     9  ASP9        0.1450
     13  CG         9.5590   31.0410  -11.7710 C.2     9  ASP9        0.3671
     14  OD1        9.4020   32.1590  -11.2410 O.co2   9  ASP9       -0.2456
     15  OD2        8.7720   30.0850  -11.6110 O.co2   9  ASP9       -0.2456
     16  N         12.0780   31.9390  -10.0590 N.am   10  GLY10      -0.1940
     17  CA        12.6400   31.5380   -8.7850 C.3    10  GLY10       0.2014
     18  C         13.7420   32.4030   -8.2140 C.2    10  GLY10       0.2639
     19  O         14.6170   31.8820   -7.5170 O.2    10  GLY10      -0.2714
     20  N         13.7300   33.7120   -8.4680 N.am   11  MET11      -0.1963
     21  CA        14.7900   34.5430   -7.9010 C.3    11  MET11       0.1736
     22  C         14.4900   34.9540   -6.4600 C.2    11  MET11       0.2616
     23  O         15.3950   34.9640   -5.6160 O.2    11  MET11      -0.2715
     24  CB        15.0310   35.7660   -8.7860 C.3    11  MET11       0.0427
     25  CG        16.2510   35.6240   -9.6910 C.3    11  MET11       0.0599
     26  SD        16.2330   34.0970  -10.6580 S.3    11  MET11      -0.1393
     27  CE        14.7840   34.3710  -11.6720 C.3    11  MET11       0.0692
     28  N         13.2320   35.2790   -6.1490 N.am   12  ARG12      -0.1963
     29  CA        12.8560   35.5320   -4.7590 C.3    12  ARG12       0.1729
     30  C         13.0740   34.2890   -3.9080 C.2    12  ARG12       0.2616
     31  O         13.6660   34.3520   -2.8220 O.2    12  ARG12      -0.2715
     32  CB        11.3840   35.9410   -4.6840 C.3    12  ARG12       0.0348
     33  CG        10.9030   36.4420   -3.3270 C.3    12  ARG12       0.0492
     34  CD         9.4300   36.8370   -3.4000 C.3    12  ARG12       0.2205
     35  NE         8.6150   35.7030   -3.8240 N.pl3  12  ARG12      -0.0865
     36  CZ         8.1950   34.7240   -3.0310 C.cat  12  ARG12       0.5346
     37  NH1        8.4760   34.7220   -1.7400 N.pl3  12  ARG12       0.1354
     38  NH2        7.4640   33.7510   -3.5320 N.pl3  12  ARG12       0.1354
     39  N         12.6140   33.1410   -4.4020 N.am   13  ARG13      -0.1977
     40  CA        12.7960   31.8980   -3.6660 C.3    13  ARG13       0.1597
     41  C         14.2700   31.5990   -3.4250 C.2    13  ARG13       0.2287
     42  O         14.6510   31.1690   -2.3310 O.2    13  ARG13      -0.2864
     43  CB        12.1140   30.7500   -4.4060 C.3    13  ARG13       0.0334
     44  CG        12.1400   29.4560   -3.6250 C.3    13  ARG13       0.0492
     45  CD        11.1510   29.4290   -2.4770 C.3    13  ARG13       0.2205
     46  NE        11.7050   30.0730   -1.2830 N.pl3  13  ARG13      -0.0865
     47  CZ        12.5570   29.4830   -0.4510 C.cat  13  ARG13       0.5346
     48  NH1       13.0120   30.1250    0.6150 N.pl3  13  ARG13       0.1354
     49  NH2       12.9820   28.2560   -0.7070 N.pl3  13  ARG13       0.1354
     50  N         17.6300   40.2670   -2.6760 N.3    22  LEU22      -0.1245
     51  CA        17.0630   40.0180   -3.9940 C.3    22  LEU22       0.1561
     52  C         18.0450   40.4270   -5.0840 C.2    22  LEU22       0.2260
     53  O         18.1410   39.7680   -6.1270 O.2    22  LEU22      -0.2867
     54  CB        15.7370   40.7640   -4.1420 C.3    22  LEU22       0.0270
     55  CG        14.8560   40.3320   -5.3150 C.3    22  LEU22       0.0019
     56  CD1       14.5100   38.8520   -5.2070 C.3    22  LEU22       0.0001
     57  CD2       13.5940   41.1770   -5.3740 C.3    22  LEU22       0.0001
     58  N         19.4830   38.1680   -8.1660 N.3    26  TYR26      -0.1241
     59  CA        19.4210   38.5060   -9.5850 C.3    26  TYR26       0.1605
     60  C         20.8070   38.5750  -10.2170 C.2    26  TYR26       0.2264
     61  O         20.9480   38.3090  -11.4160 O.2    26  TYR26      -0.2867
     62  CB        18.6720   39.8220   -9.7960 C.3    26  TYR26       0.0534
     63  CG        17.1830   39.6370   -9.9700 C.ar   26  TYR26      -0.0201
     64  CD1       16.6450   39.3190  -11.2120 C.ar   26  TYR26      -0.0009
     65  CD2       16.3140   39.7780   -8.8980 C.ar   26  TYR26      -0.0009
     66  CE1       15.2860   39.1430  -11.3790 C.ar   26  TYR26       0.0417
     67  CE2       14.9520   39.6070   -9.0550 C.ar   26  TYR26       0.0417
     68  CZ        14.4430   39.2880  -10.2970 C.ar   26  TYR26       0.1957
     69  OH        13.0870   39.1170  -10.4530 O.3    26  TYR26      -0.2866
     70  N         12.5830   34.0600  -22.1000 N.3    51  THR51      -0.1203
     71  CA        11.3440   34.7950  -21.8540 C.3    51  THR51       0.1994
     72  C         11.5860   35.6910  -20.6490 C.2    51  THR51       0.2618
     73  O         11.3810   35.2970  -19.4990 O.2    51  THR51      -0.2717
     74  CB        10.1820   33.8360  -21.6280 C.3    51  THR51       0.1784
     75  OG1       10.4340   33.0400  -20.4610 O.3    51  THR51      -0.2211
     76  CG2       10.0180   32.9200  -22.8300 C.3    51  THR51       0.0376
     77  N         12.0080   36.9280  -20.9250 N.am   52  VAL52      -0.1965
     78  CA        12.5070   37.8030  -19.8690 C.3    52  VAL52       0.1727
     79  C         11.3940   38.2140  -18.9130 C.2    52  VAL52       0.2616
     80  O         11.5790   38.1990  -17.6900 O.2    52  VAL52      -0.2715
     81  CB        13.2020   39.0260  -20.4900 C.3    52  VAL52       0.0290
     82  CG1       13.4350   40.1040  -19.4390 C.3    52  VAL52       0.0023
     83  CG2       14.5130   38.6100  -21.1370 C.3    52  VAL52       0.0023
     84  N         10.2290   38.5860  -19.4390 N.am   53  SER53      -0.1950
     85  CA         9.2090   39.1810  -18.5840 C.3    53  SER53       0.1924
     86  C          7.8460   39.1090  -19.2540 C.2    53  SER53       0.2314
     87  O          7.7330   38.9600  -20.4740 O.2    53  SER53      -0.2863
     88  CB         9.5450   40.6370  -18.2500 C.3    53  SER53       0.2116
     89  OG         9.6430   41.4000  -19.4390 O.3    53  SER53      -0.2180
     90  N          4.5520   41.9450  -15.1840 N.3    57  ASN57      -0.1225
     91  CA         5.7760   42.1400  -14.4110 C.3    57  ASN57       0.1785
     92  C          6.1320   43.6140  -14.2560 C.2    57  ASN57       0.2597
     93  O          6.7210   44.0060  -13.2420 O.2    57  ASN57      -0.2718
     94  CB         6.9370   41.3980  -15.0720 C.3    57  ASN57       0.1169
     95  CG         6.8380   39.8940  -14.9100 C.2    57  ASN57       0.2627
     96  OD1        7.2200   39.1350  -15.8040 O.2    57  ASN57      -0.2716
     97  ND2        6.3250   39.4550  -13.7660 N.am   57  ASN57      -0.0877
     98  N          5.7890   44.4400  -15.2420 N.am   58  TYR58      -0.1976
     99  CA         6.1200   45.8580  -15.1990 C.3    58  TYR58       0.1639
    100  C          5.1720   46.6710  -14.3270 C.2    58  TYR58       0.2290
    101  O          5.3660   47.8850  -14.1980 O.2    58  TYR58      -0.2864
    102  CB         6.1490   46.4160  -16.6230 C.3    58  TYR58       0.0560
    103  CG         7.2610   45.8150  -17.4460 C.ar   58  TYR58      -0.0198
    104  CD1        8.5570   46.3020  -17.3510 C.ar   58  TYR58      -0.0009
    105  CD2        7.0260   44.7360  -18.2890 C.ar   58  TYR58      -0.0009
    106  CE1        9.5850   45.7520  -18.0900 C.ar   58  TYR58       0.0417
    107  CE2        8.0490   44.1760  -19.0320 C.ar   58  TYR58       0.0417
    108  CZ         9.3290   44.6890  -18.9270 C.ar   58  TYR58       0.1957
    109  OH        10.3600   44.1420  -19.6580 O.3    58  TYR58      -0.2866
    110  N          5.0850   45.8910  -11.1640 N.3    60  ARG60      -0.1245
    111  CA         5.7980   45.8290   -9.8990 C.3    60  ARG60       0.1563
    112  C          6.4250   47.1840   -9.5870 C.2    60  ARG60       0.2260
    113  O          6.3410   48.1390  -10.3650 O.2    60  ARG60      -0.2867
    114  CB         6.8680   44.7410   -9.9450 C.3    60  ARG60       0.0307
    115  CG         6.3250   43.3290  -10.0140 C.3    60  ARG60       0.0489
    116  CD         7.4580   42.3290  -10.1250 C.3    60  ARG60       0.2205
    117  NE         6.9740   40.9610  -10.2660 N.pl3  60  ARG60      -0.0865
    118  CZ         7.7570   39.8860  -10.2450 C.cat  60  ARG60       0.5346
    119  NH1        9.0670   40.0190  -10.0880 N.pl3  60  ARG60       0.1354
    120  NH2        7.2310   38.6770  -10.3810 N.pl3  60  ARG60       0.1354
    121  N         12.1250   46.9300   -8.2820 N.3    64  GLN64      -0.1231
    122  CA        12.2490   45.5660   -8.7870 C.3    64  GLN64       0.1698
    123  C         12.4430   45.5430  -10.2980 C.2    64  GLN64       0.2592
    124  O         13.2640   44.7710  -10.8100 O.2    64  GLN64      -0.2718
    125  CB        11.0280   44.7470   -8.3770 C.3    64  GLN64       0.0381
    126  CG        10.9920   44.4300   -6.8930 C.3    64  GLN64       0.0905
    127  CD         9.6580   43.8720   -6.4460 C.2    64  GLN64       0.2608
    128  OE1        9.5710   42.7310   -5.9900 O.2    64  GLN64      -0.2717
    129  NE2        8.6100   44.6790   -6.5610 N.am   64  GLN64      -0.0878
    130  N         11.6940   46.3780  -11.0240 N.am   65  VAL65      -0.1980
    131  CA        11.8410   46.4440  -12.4760 C.3    65  VAL65       0.1595
    132  C         13.2660   46.8300  -12.8460 C.2    65  VAL65       0.2287
    133  O         13.8790   46.2280  -13.7420 O.2    65  VAL65      -0.2864
    134  CB        10.8140   47.4270  -13.0700 C.3    65  VAL65       0.0276
    135  CG1       11.0720   47.6420  -14.5490 C.3    65  VAL65       0.0022
    136  CG2        9.3990   46.9170  -12.8460 C.3    65  VAL65       0.0022
    137  N         15.6660   43.6830  -12.0920 N.3    68  ALA68      -0.1231
    138  CA        15.5830   42.5940  -13.0640 C.3    68  ALA68       0.1694
    139  C         16.0850   43.0270  -14.4370 C.2    68  ALA68       0.2591
    140  O         16.9210   42.3480  -15.0500 O.2    68  ALA68      -0.2718
    141  CB        14.1500   42.0750  -13.1520 C.3    68  ALA68       0.0304
    142  N         15.5690   44.1500  -14.9470 N.am   69  MET69      -0.1979
    143  CA        15.9740   44.5990  -16.2750 C.3    69  MET69       0.1605
    144  C         17.4710   44.8610  -16.3360 C.2    69  MET69       0.2287
    145  O         18.1090   44.6020  -17.3660 O.2    69  MET69      -0.2864
    146  CB        15.1880   45.8480  -16.6710 C.3    69  MET69       0.0413
    147  CG        13.7160   45.5810  -16.9390 C.3    69  MET69       0.0598
    148  SD        13.4550   44.2910  -18.1770 S.3    69  MET69      -0.1393
    149  CE        14.1920   45.0470  -19.6220 C.3    69  MET69       0.0692
    150  N         19.1520   41.2370  -16.6180 N.3    72  PHE72      -0.1241
    151  CA        19.0460   40.6690  -17.9620 C.3    72  PHE72       0.1605
    152  C         19.9020   41.4490  -18.9530 C.2    72  PHE72       0.2264
    153  O         20.6260   40.8630  -19.7800 O.2    72  PHE72      -0.2867
    154  CB        17.5840   40.6640  -18.4110 C.3    72  PHE72       0.0534
    155  CG        16.7470   39.5900  -17.7710 C.ar   72  PHE72      -0.0203
    156  CD1       16.8860   38.2630  -18.1430 C.ar   72  PHE72      -0.0042
    157  CD2       15.8100   39.9110  -16.8020 C.ar   72  PHE72      -0.0042
    158  CE1       16.1090   37.2770  -17.5570 C.ar   72  PHE72      -0.0003
    159  CE2       15.0310   38.9290  -16.2130 C.ar   72  PHE72      -0.0003
    160  CZ        15.1810   37.6110  -16.5910 C.ar   72  PHE72      -0.0000
    161  N          7.4920   25.0300  -10.9710 N.3   167  HIS167     -0.1241
    162  CA         6.1570   25.3970  -11.4290 C.3   167  HIS167      0.1621
    163  C          5.8960   24.7630  -12.7900 C.2   167  HIS167      0.2264
    164  O          6.6470   24.9920  -13.7450 O.2   167  HIS167     -0.2867
    165  CB         6.0050   26.9160  -11.4980 C.3   167  HIS167      0.0745
    166  CG         5.9740   27.5780  -10.1550 C.ar  167  HIS167      0.0817
    167  ND1        6.9470   28.4610   -9.7380 N.ar  167  HIS167     -0.2268
    168  CD2        5.0890   27.4840   -9.1350 C.ar  167  HIS167      0.1154
    169  CE1        6.6610   28.8830   -8.5190 C.ar  167  HIS167      0.1986
    170  NE2        5.5390   28.3050   -8.1300 N.ar  167  HIS167     -0.2212
    171  N          4.3640   33.0530  -20.9340 N.3   173  PHE173     -0.1241
    172  CA         5.5700   32.8410  -21.7230 C.3   173  PHE173      0.1605
    173  C          5.3760   31.8860  -22.8990 C.2   173  PHE173      0.2264
    174  O          6.3620   31.5230  -23.5490 O.2   173  PHE173     -0.2867
    175  CB         6.6860   32.3020  -20.8260 C.3   173  PHE173      0.0534
    176  CG         7.0930   33.2360  -19.7230 C.ar  173  PHE173     -0.0203
    177  CD1        7.2040   34.5970  -19.9490 C.ar  173  PHE173     -0.0042
    178  CD2        7.3680   32.7470  -18.4560 C.ar  173  PHE173     -0.0042
    179  CE1        7.5840   35.4520  -18.9340 C.ar  173  PHE173     -0.0003
    180  CE2        7.7460   33.5980  -17.4360 C.ar  173  PHE173     -0.0003
    181  CZ         7.8540   34.9530  -17.6770 C.ar  173  PHE173     -0.0000
    182  N         15.8290   24.9190   -8.8330 N.3   189  LEU189     -0.1245
    183  CA        15.7590   26.3520   -9.0880 C.3   189  LEU189      0.1561
    184  C         16.7600   26.7450  -10.1700 C.2   189  LEU189      0.2260
    185  O         17.7800   26.0810  -10.3740 O.2   189  LEU189     -0.2867
    186  CB        16.0290   27.1380   -7.8060 C.3   189  LEU189      0.0270
    187  CG        15.0470   26.9030   -6.6560 C.3   189  LEU189      0.0019
    188  CD1       15.5810   27.4910   -5.3550 C.3   189  LEU189      0.0001
    189  CD2       13.6860   27.4860   -6.9950 C.3   189  LEU189      0.0001
@<TRIPOS>BOND
     1   174   173    2
     2   173   172    1
     3    76    74    1
     4    70    71    1
     5    71    74    1
     6    71    72    1
     7   172   171    1
     8   172   175    1
     9    74    75    1
    10    83    81    1
    11    77    72   am
    12    77    78    1
    13   175   176    1
    14    72    73    2
    15    81    78    1
    16    81    82    1
    17    87    86    2
    18   177   176   ar
    19   177   179   ar
    20    78    79    1
    21   153   152    2
    22   176   178   ar
    23   109   108    1
    24   149   148    1
    25    84    79   am
    26    84    85    1
    27    89    88    1
    28    86    85    1
    29   107   108   ar
    30   107   105   ar
    31   152   151    1
    32   179   181   ar
    33   108   106   ar
    34    79    80    2
    35    85    88    1
    36   178   180   ar
    37   154   151    1
    38   154   155    1
    39   105   103   ar
    40   148   147    1
    41   156   155   ar
    42   156   158   ar
    43   106   104   ar
    44     7     6    1
    45     7     1    1
    46   151   150    1
    47   155   157   ar
    48   181   180   ar
    49   158   160   ar
    50   103   104   ar
    51   103   102    1
    52   145   144    2
    53     6     5    1
    54     1     2    1
    55   147   146    1
    56   157   159   ar
    57   146   143    1
    58   102    99    1
    59   160   159   ar
    60   144   143    1
    61   143   142    1
    62     5     2    1
    63     2     3    1
    64    96    95    2
    65    98    99    1
    66    98    92   am
    67    99   100    1
    68    90    91    1
    69    94    95    1
    70    94    91    1
    71   140   139    2
    72     4     3    2
    73   142   139   am
    74    95    97   am
    75     3     8   am
    76   135   134    1
    77   139   138    1
    78    91    92    1
    79   100   101    2
    80    92    93    2
    81   164   163    2
    82   133   132    2
    83     8     9    1
    84   141   138    1
    85   134   136    1
    86   134   131    1
    87   138   137    1
    88   132   131    1
    89   163   162    1
    90    12     9    1
    91    12    13    1
    92   131   130    1
    93     9    10    1
    94    13    15   ar
    95    13    14   ar
    96    27    26    1
    97   165   162    1
    98   165   166    1
    99   162   161    1
   100    61    60    2
   101    66    64   ar
   102    66    68   ar
   103    11    10    2
   104    64    63   ar
   105    10    16   am
   106   110   111    1
   107   130   123   am
   108   124   123    2
   109    26    25    1
   110    69    68    1
   111   120   118    1
   112   185   184    2
   113   113   112    2
   114   123   122    1
   115    68    67   ar
   116   117   118    2
   117   117   116    1
   118   118   119    1
   119    60    59    1
   120   184   183    1
   121   166   167   ar
   122   166   168   ar
   123   116   115    1
   124    16    17    1
   125   115   114    1
   126    63    62    1
   127    63    65   ar
   128   114   111    1
   129   111   112    1
   130    62    59    1
   131   167   169   ar
   132    25    24    1
   133    59    58    1
   134   168   170   ar
   135   183   182    1
   136   183   186    1
   137    67    65   ar
   138   122   125    1
   139   122   121    1
   140    24    21    1
   141    17    18    1
   142   169   170   ar
   143    20    18   am
   144    20    21    1
   145   125   126    1
   146    18    19    2
   147    21    22    1
   148   186   187    1
   149   189   187    1
   150   126   127    1
   151   187   188    1
   152   129   127   am
   153    22    28   am
   154    22    23    2
   155   127   128    2
   156    28    29    1
   157    53    52    2
   158    57    55    1
   159    55    56    1
   160    55    54    1
   161    52    51    1
   162    29    32    1
   163    29    30    1
   164    32    33    1
   165    43    40    1
   166    43    44    1
   167    39    30   am
   168    39    40    1
   169    54    51    1
   170    51    50    1
   171    30    31    2
   172    35    34    1
   173    35    36    2
   174    40    41    1
   175    44    45    1
   176    38    36    1
   177    41    42    2
   178    34    33    1
   179    36    37    1
   180    45    46    1
   181    46    47    2
   182    49    47    1
   183    47    48    1
