@<TRIPOS>MOLECULE
tmp/5xk9F01.pdb
 139 132 0 0 0
SMALL
GASTEIGER

@<TRIPOS>ATOM
      1  N         33.9180   22.2810   -2.1460 N.3     8  LEU8       -0.1231
      2  CA        34.6910   21.3290   -1.3540 C.3     8  LEU8        0.1678
      3  C         36.0970   21.8980   -1.2390 C.2     8  LEU8        0.2434
      4  O         36.9470   21.6470   -2.1070 O.2     8  LEU8       -0.2733
      5  CB        34.7180   19.9400   -2.0010 C.3     8  LEU8        0.0284
      6  CG        33.5630   18.9700   -1.7410 C.3     8  LEU8        0.0019
      7  CD1       32.2410   19.4960   -2.3150 C.3     8  LEU8        0.0001
      8  CD2       33.8880   17.5770   -2.2680 C.3     8  LEU8        0.0001
      9  N         36.3930   22.6690   -0.1910 N.am    9  PRO9       -0.2718
     10  CA        37.7020   23.3320   -0.0990 C.3     9  PRO9        0.1535
     11  C         38.8060   22.3250    0.1880 C.2     9  PRO9        0.2598
     12  O         38.7100   21.5350    1.1280 O.2     9  PRO9       -0.2715
     13  CB        37.5180   24.3150    1.0630 C.3     9  PRO9        0.0310
     14  CG        36.4350   23.7140    1.8960 C.3     9  PRO9        0.0237
     15  CD        35.5170   23.0000    0.9460 C.3     9  PRO9        0.0939
     16  N         39.8650   22.3660   -0.6190 N.am   10  ASP10      -0.1972
     17  CA        40.9190   21.3680   -0.5150 C.3    10  ASP10       0.1709
     18  C         42.2620   21.9790   -0.9000 C.2    10  ASP10       0.2293
     19  O         42.3290   22.9260   -1.6890 O.2    10  ASP10      -0.2864
     20  CB        40.6150   20.1610   -1.4100 C.3    10  ASP10       0.1436
     21  CG        41.3620   18.9180   -0.9860 C.2    10  ASP10       0.3671
     22  OD1       41.7780   18.8490    0.1900 O.co2  10  ASP10      -0.2456
     23  OD2       41.5420   18.0150   -1.8300 O.co2  10  ASP10      -0.2456
     24  N         47.2790   21.9040    2.9900 N.3    13  ARG13      -0.1245
     25  CA        48.6080   21.3900    3.3190 C.3    13  ARG13       0.1563
     26  C         49.5770   21.5560    2.1530 C.2    13  ARG13       0.2260
     27  O         50.7160   22.0080    2.3350 O.2    13  ARG13      -0.2867
     28  CB        48.5290   19.9210    3.7450 C.3    13  ARG13       0.0307
     29  CG        47.9320   19.7250    5.1100 C.3    13  ARG13       0.0489
     30  CD        47.9330   18.2730    5.4860 C.3    13  ARG13       0.2205
     31  NE        46.9460   17.5580    4.7060 N.pl3  13  ARG13      -0.0865
     32  CZ        46.6510   16.2820    4.8870 C.cat  13  ARG13       0.5346
     33  NH1       45.7340   15.7130    4.1240 N.pl3  13  ARG13       0.1354
     34  NH2       47.2640   15.5840    5.8320 N.pl3  13  ARG13       0.1354
     35  N         31.5290   22.6080    2.5240 N.3    52  THR52      -0.1203
     36  CA        31.7790   21.3950    3.2990 C.3    52  THR52       0.1994
     37  C         32.9740   21.6390    4.2150 C.2    52  THR52       0.2618
     38  O         34.1160   21.7130    3.7500 O.2    52  THR52      -0.2717
     39  CB        32.0300   20.2050    2.3760 C.3    52  THR52       0.1784
     40  OG1       33.2090   20.4430    1.5950 O.3    52  THR52      -0.2211
     41  CG2       30.8540   20.0030    1.4340 C.3    52  THR52       0.0376
     42  N         32.7090   21.7730    5.5160 N.am   53  VAL53      -0.1965
     43  CA        33.7500   22.1370    6.4730 C.3    53  VAL53       0.1727
     44  C         34.6250   20.9410    6.8240 C.2    53  VAL53       0.2617
     45  O         35.8410   21.0800    7.0140 O.2    53  VAL53      -0.2715
     46  CB        33.1100   22.7580    7.7290 C.3    53  VAL53       0.0290
     47  CG1       34.1230   22.8650    8.8650 C.3    53  VAL53       0.0023
     48  CG2       32.5430   24.1170    7.3980 C.3    53  VAL53       0.0023
     49  N         34.0310   19.7560    6.9270 N.am   54  SER54      -0.1936
     50  CA        34.7500   18.6060    7.4500 C.3    54  SER54       0.2055
     51  C         33.9250   17.3520    7.2210 C.2    54  SER54       0.2643
     52  O         32.6930   17.3960    7.2120 O.2    54  SER54      -0.2714
     53  CB        35.0330   18.7620    8.9480 C.3    54  SER54       0.2130
     54  OG        33.8150   18.9220    9.6590 O.3    54  SER54      -0.2179
     55  N         34.6220   16.2390    7.0540 N.am   55  SER55      -0.1949
     56  CA        33.9990   14.9330    7.1470 C.3    55  SER55       0.1924
     57  C         34.1300   14.4170    8.5760 C.2    55  SER55       0.2314
     58  O         34.8700   14.9670    9.3950 O.2    55  SER55      -0.2863
     59  CB        34.6430   13.9700    6.1520 C.3    55  SER55       0.2116
     60  OG        36.0140   13.7760    6.4590 O.3    55  SER55      -0.2180
     61  N         37.6760   13.5890    9.2350 N.3    58  ASN58      -0.1240
     62  CA        38.6000   14.6980    9.4650 C.3    58  ASN58       0.1653
     63  C         38.8430   14.9410   10.9460 C.2    58  ASN58       0.2266
     64  O         39.9340   15.3780   11.3290 O.2    58  ASN58      -0.2867
     65  CB        38.0800   15.9800    8.8110 C.3    58  ASN58       0.1155
     66  CG        38.2320   15.9700    7.3100 C.2    58  ASN58       0.2627
     67  OD1       37.4410   16.5740    6.5910 O.2    58  ASN58      -0.2716
     68  ND2       39.2610   15.2850    6.8250 N.am   58  ASN58      -0.0877
     69  N         41.9580   13.5430   12.8150 N.3    61  ARG61      -0.1245
     70  CA        43.2680   14.1680   12.7610 C.3    61  ARG61       0.1563
     71  C         43.7000   14.6190   14.1560 C.2    61  ARG61       0.2260
     72  O         42.9520   14.5280   15.1330 O.2    61  ARG61      -0.2867
     73  CB        43.2590   15.3570   11.7970 C.3    61  ARG61       0.0307
     74  CG        43.1110   14.9820   10.3190 C.3    61  ARG61       0.0489
     75  CD        42.9680   16.2130    9.4180 C.3    61  ARG61       0.2205
     76  NE        42.7690   15.8790    8.0040 N.pl3  61  ARG61      -0.0865
     77  CZ        42.7560   16.7750    7.0160 C.cat  61  ARG61       0.5346
     78  NH1       42.9260   18.0630    7.2790 N.pl3  61  ARG61       0.1354
     79  NH2       42.5700   16.3880    5.7630 N.pl3  61  ARG61       0.1354
     80  N         37.5380   28.1680    9.4610 N.3    73  PHE73      -0.1241
     81  CA        36.1680   28.2440    8.9480 C.3    73  PHE73       0.1605
     82  C         35.3080   29.1450    9.8360 C.2    73  PHE73       0.2264
     83  O         34.5840   30.0360    9.3510 O.2    73  PHE73      -0.2867
     84  CB        35.5700   26.8350    8.8590 C.3    73  PHE73       0.0534
     85  CG        36.1130   25.9980    7.7160 C.ar   73  PHE73      -0.0203
     86  CD1       35.6700   26.1940    6.4150 C.ar   73  PHE73      -0.0042
     87  CD2       37.0590   25.0070    7.9530 C.ar   73  PHE73      -0.0042
     88  CE1       36.1580   25.4220    5.3660 C.ar   73  PHE73      -0.0003
     89  CE2       37.5540   24.2260    6.9100 C.ar   73  PHE73      -0.0003
     90  CZ        37.1010   24.4370    5.6090 C.ar   73  PHE73      -0.0000
     91  N         35.0610   21.2250   -6.8430 N.3   164  ARG164     -0.1245
     92  CA        36.1690   20.7600   -6.0110 C.3   164  ARG164      0.1563
     93  C         37.4970   21.1360   -6.6540 C.2   164  ARG164      0.2260
     94  O         37.9470   20.4640   -7.5990 O.2   164  ARG164     -0.2867
     95  CB        36.1120   19.2580   -5.7650 C.3   164  ARG164      0.0307
     96  CG        37.3170   18.7860   -4.9630 C.3   164  ARG164      0.0489
     97  CD        37.1670   17.3800   -4.4270 C.3   164  ARG164      0.2205
     98  NE        38.2790   17.0590   -3.5380 N.pl3 164  ARG164     -0.0865
     99  CZ        38.2900   16.0380   -2.6900 C.cat 164  ARG164      0.5346
    100  NH1       37.2420   15.2300   -2.6120 N.pl3 164  ARG164      0.1354
    101  NH2       39.3470   15.8300   -1.9160 N.pl3 164  ARG164      0.1354
    102  N         41.8850   16.5420   -6.8290 N.3   168  HIS168     -0.1241
    103  CA        41.3560   15.2160   -6.5320 C.3   168  HIS168      0.1621
    104  C         39.9410   15.0840   -7.0840 C.2   168  HIS168      0.2264
    105  O         39.0680   15.9000   -6.7700 O.2   168  HIS168     -0.2867
    106  CB        41.3900   14.9390   -5.0320 C.3   168  HIS168      0.0745
    107  CG        42.7640   14.6560   -4.5160 C.ar  168  HIS168      0.0817
    108  ND1       43.3930   15.4530   -3.5850 N.ar  168  HIS168     -0.2268
    109  CD2       43.6470   13.6790   -4.8330 C.ar  168  HIS168      0.1154
    110  CE1       44.5970   14.9690   -3.3360 C.ar  168  HIS168      0.1986
    111  NE2       44.7760   13.8940   -4.0820 N.ar  168  HIS168     -0.2212
    112  N         37.1120   13.0930   -6.5930 N.3   170  ARG170     -0.1245
    113  CA        36.4510   12.1980   -5.6530 C.3   170  ARG170      0.1563
    114  C         35.6250   13.0670   -4.7220 C.2   170  ARG170      0.2260
    115  O         35.8320   14.2820   -4.6400 O.2   170  ARG170     -0.2867
    116  CB        37.4630   11.3520   -4.8730 C.3   170  ARG170      0.0307
    117  CG        38.4830   12.1800   -4.1100 C.3   170  ARG170      0.0489
    118  CD        39.6030   11.3120   -3.5600 C.3   170  ARG170      0.2205
    119  NE        40.5750   12.0890   -2.7980 N.pl3 170  ARG170     -0.0865
    120  CZ        41.8680   11.7890   -2.7180 C.cat 170  ARG170      0.5346
    121  NH1       42.3480   10.7320   -3.3610 N.pl3 170  ARG170      0.1354
    122  NH2       42.6850   12.5510   -2.0050 N.pl3 170  ARG170      0.1354
    123  N         35.1060   12.2400   -1.2940 N.3   172  SER172     -0.1217
    124  CA        35.7540   12.2580    0.0230 C.3   172  SER172      0.1889
    125  C         34.7530   12.4430    1.1610 C.2   172  SER172      0.2288
    126  O         34.9790   13.2330    2.0800 O.2   172  SER172     -0.2866
    127  CB        36.8270   13.3440    0.0900 C.3   172  SER172      0.2089
    128  OG        37.8190   13.1570   -0.9010 O.3   172  SER172     -0.2183
    129  N         31.7640   13.7930    0.9750 N.3   174  PHE174     -0.1241
    130  CA        31.0540   15.0700    0.9060 C.3   174  PHE174      0.1605
    131  C         29.9180   15.0690   -0.1140 C.2   174  PHE174      0.2264
    132  O         29.4000   16.1410   -0.4470 O.2   174  PHE174     -0.2867
    133  CB        32.0190   16.2190    0.5990 C.3   174  PHE174      0.0534
    134  CG        33.1190   16.3670    1.6060 C.ar  174  PHE174     -0.0203
    135  CD1       32.8370   16.7710    2.8990 C.ar  174  PHE174     -0.0042
    136  CD2       34.4340   16.1090    1.2600 C.ar  174  PHE174     -0.0042
    137  CE1       33.8440   16.9010    3.8310 C.ar  174  PHE174     -0.0003
    138  CE2       35.4460   16.2370    2.1880 C.ar  174  PHE174     -0.0003
    139  CZ        35.1500   16.6310    3.4750 C.ar  174  PHE174     -0.0000
@<TRIPOS>BOND
     1    94    93    2
     2   104   105    2
     3   104   103    1
     4    91    92    1
     5   102   103    1
     6    93    92    1
     7   112   113    1
     8   103   106    1
     9    92    95    1
    10    95    96    1
    11   113   116    1
    12   113   114    1
    13   106   107    1
    14    96    97    1
    15   116   117    1
    16   109   107   ar
    17   109   111   ar
    18   114   115    2
    19   107   108   ar
    20    97    98    1
    21   117   118    1
    22   111   110   ar
    23   108   110   ar
    24   118   119    1
    25    98    99    2
    26   121   120    1
    27   119   120    2
    28   120   122    1
    29    99   100    1
    30    99   101    1
    31     7     6    1
    32     8     6    1
    33     1     2    1
    34     4     3    2
    35     5     6    1
    36     5     2    1
    37    23    21   ar
    38    19    18    2
    39    20    21    1
    40    20    17    1
    41     2     3    1
    42   123   124    1
    43     3     9   am
    44    21    22   ar
    45   128   127    1
    46    18    17    1
    47    16    17    1
    48    16    11   am
    49   132   131    2
    50     9    10    1
    51     9    15    1
    52   131   130    1
    53    10    11    1
    54    10    13    1
    55   124   127    1
    56   124   125    1
    57    11    12    2
    58   133   130    1
    59   133   134    1
    60   130   129    1
    61    15    14    1
    62    13    14    1
    63   125   126    2
    64   136   134   ar
    65   136   138   ar
    66    41    39    1
    67    40    39    1
    68   134   135   ar
    69    26    27    2
    70    26    25    1
    71   138   139   ar
    72    39    36    1
    73    35    36    1
    74   135   137   ar
    75    24    25    1
    76    36    37    1
    77    25    28    1
    78   139   137   ar
    79    28    29    1
    80    38    37    2
    81    33    32    1
    82    37    42   am
    83    31    32    2
    84    31    30    1
    85    32    34    1
    86    29    30    1
    87    88    90   ar
    88    88    86   ar
    89    42    43    1
    90    90    89   ar
    91    79    77    1
    92    59    60    1
    93    59    56    1
    94    86    85   ar
    95    43    44    1
    96    43    46    1
    97    67    66    2
    98    44    49   am
    99    44    45    2
   100    68    66   am
   101    89    87   ar
   102    49    50    1
   103    77    78    1
   104    77    76    2
   105    55    56    1
   106    55    51   am
   107    56    57    1
   108    52    51    2
   109    51    50    1
   110    66    65    1
   111    48    46    1
   112    50    53    1
   113    85    87   ar
   114    85    84    1
   115    46    47    1
   116    76    75    1
   117    57    58    2
   118    65    62    1
   119    84    81    1
   120    81    80    1
   121    81    82    1
   122    53    54    1
   123    61    62    1
   124    83    82    2
   125    75    74    1
   126    62    63    1
   127    74    73    1
   128    63    64    2
   129    73    70    1
   130    70    69    1
   131    70    71    1
   132    71    72    2
