@<TRIPOS>MOLECULE
tmp/5xk9F00.pdb
 173 169 0 0 0
SMALL
GASTEIGER

@<TRIPOS>ATOM
      1  N         36.3930   22.6690   -0.1910 N.3     9  PRO9       -0.2102
      2  CA        37.7020   23.3320   -0.0990 C.3     9  PRO9        0.1504
      3  C         38.8060   22.3250    0.1880 C.2     9  PRO9        0.2576
      4  O         38.7100   21.5350    1.1280 O.2     9  PRO9       -0.2718
      5  CB        37.5180   24.3150    1.0630 C.3     9  PRO9        0.0282
      6  CG        36.4350   23.7140    1.8960 C.3     9  PRO9        0.0208
      7  CD        35.5170   23.0000    0.9460 C.3     9  PRO9        0.0893
      8  N         39.8650   22.3660   -0.6190 N.am   10  ASP10      -0.1960
      9  CA        40.9190   21.3680   -0.5150 C.3    10  ASP10       0.1840
     10  C         42.2620   21.9790   -0.9000 C.2    10  ASP10       0.2623
     11  O         42.3290   22.9260   -1.6890 O.2    10  ASP10      -0.2715
     12  CB        40.6150   20.1610   -1.4100 C.3    10  ASP10       0.1450
     13  CG        41.3620   18.9180   -0.9860 C.2    10  ASP10       0.3671
     14  OD1       41.7780   18.8490    0.1900 O.co2  10  ASP10      -0.2456
     15  OD2       41.5420   18.0150   -1.8300 O.co2  10  ASP10      -0.2456
     16  N         43.3270   21.4310   -0.3340 N.am   11  GLY11      -0.1940
     17  CA        44.6720   21.7820   -0.7260 C.3    11  GLY11       0.2014
     18  C         45.4500   22.6870    0.2170 C.2    11  GLY11       0.2639
     19  O         46.4480   23.2800   -0.2160 O.2    11  GLY11      -0.2714
     20  N         45.0520   22.7830    1.4860 N.am   12  MET12      -0.1963
     21  CA        45.7110   23.7020    2.4090 C.3    12  MET12       0.1736
     22  C         47.1050   23.2130    2.7920 C.2    12  MET12       0.2616
     23  O         48.0300   24.0180    2.9440 O.2    12  MET12      -0.2715
     24  CB        44.8420   23.8990    3.6500 C.3    12  MET12       0.0427
     25  CG        44.0450   25.1890    3.6210 C.3    12  MET12       0.0599
     26  SD        43.2030   25.4130    2.0370 S.3    12  MET12      -0.1393
     27  CE        41.8670   24.2370    2.1610 C.3    12  MET12       0.0692
     28  N         47.2790   21.9040    2.9900 N.am   13  ARG13      -0.1963
     29  CA        48.6080   21.3900    3.3190 C.3    13  ARG13       0.1729
     30  C         49.5770   21.5560    2.1530 C.2    13  ARG13       0.2616
     31  O         50.7160   22.0080    2.3350 O.2    13  ARG13      -0.2715
     32  CB        48.5290   19.9210    3.7450 C.3    13  ARG13       0.0348
     33  CG        47.9320   19.7250    5.1100 C.3    13  ARG13       0.0492
     34  CD        47.9330   18.2730    5.4860 C.3    13  ARG13       0.2205
     35  NE        46.9460   17.5580    4.7060 N.pl3  13  ARG13      -0.0865
     36  CZ        46.6510   16.2820    4.8870 C.cat  13  ARG13       0.5346
     37  NH1       45.7340   15.7130    4.1240 N.pl3  13  ARG13       0.1354
     38  NH2       47.2640   15.5840    5.8320 N.pl3  13  ARG13       0.1354
     39  N         49.1570   21.1480    0.9500 N.am   14  ARG14      -0.1977
     40  CA        50.0050   21.3120   -0.2240 C.3    14  ARG14       0.1597
     41  C         50.3240   22.7750   -0.4770 C.2    14  ARG14       0.2287
     42  O         51.4190   23.0980   -0.9540 O.2    14  ARG14      -0.2864
     43  CB        49.3300   20.6810   -1.4400 C.3    14  ARG14       0.0334
     44  CG        49.4340   19.1640   -1.4440 C.3    14  ARG14       0.0492
     45  CD        48.4820   18.5750   -2.4540 C.3    14  ARG14       0.2205
     46  NE        47.0870   18.6900   -2.0250 N.pl3  14  ARG14      -0.0865
     47  CZ        46.0470   18.6000   -2.8500 C.cat  14  ARG14       0.5346
     48  NH1       44.8060   18.7100   -2.3850 N.pl3  14  ARG14       0.1354
     49  NH2       46.2530   18.4370   -4.1500 N.pl3  14  ARG14       0.1354
     50  N         45.8520   28.2140    6.3130 N.3    27  TYR27      -0.1241
     51  CA        44.4300   28.2470    6.6370 C.3    27  TYR27       0.1605
     52  C         43.9180   29.6740    6.7920 C.2    27  TYR27       0.2264
     53  O         42.7280   29.9290    6.5710 O.2    27  TYR27      -0.2867
     54  CB        44.1540   27.4460    7.9060 C.3    27  TYR27       0.0534
     55  CG        43.8510   25.9920    7.6460 C.ar   27  TYR27      -0.0201
     56  CD1       42.5910   25.5920    7.2200 C.ar   27  TYR27      -0.0009
     57  CD2       44.8170   25.0160    7.8410 C.ar   27  TYR27      -0.0009
     58  CE1       42.3060   24.2610    6.9790 C.ar   27  TYR27       0.0417
     59  CE2       44.5410   23.6810    7.6080 C.ar   27  TYR27       0.0417
     60  CZ        43.2850   23.3110    7.1780 C.ar   27  TYR27       0.1957
     61  OH        43.0070   21.9840    6.9460 O.3    27  TYR27      -0.2866
     62  N         31.5290   22.6080    2.5240 N.3    52  THR52      -0.1203
     63  CA        31.7790   21.3950    3.2990 C.3    52  THR52       0.1994
     64  C         32.9740   21.6390    4.2150 C.2    52  THR52       0.2618
     65  O         34.1160   21.7130    3.7500 O.2    52  THR52      -0.2717
     66  CB        32.0300   20.2050    2.3760 C.3    52  THR52       0.1784
     67  OG1       33.2090   20.4430    1.5950 O.3    52  THR52      -0.2211
     68  CG2       30.8540   20.0030    1.4340 C.3    52  THR52       0.0376
     69  N         32.7090   21.7730    5.5160 N.am   53  VAL53      -0.1965
     70  CA        33.7500   22.1370    6.4730 C.3    53  VAL53       0.1727
     71  C         34.6250   20.9410    6.8240 C.2    53  VAL53       0.2616
     72  O         35.8410   21.0800    7.0140 O.2    53  VAL53      -0.2715
     73  CB        33.1100   22.7580    7.7290 C.3    53  VAL53       0.0290
     74  CG1       34.1230   22.8650    8.8650 C.3    53  VAL53       0.0023
     75  CG2       32.5430   24.1170    7.3980 C.3    53  VAL53       0.0023
     76  N         34.0310   19.7560    6.9270 N.am   54  SER54      -0.1950
     77  CA        34.7500   18.6060    7.4500 C.3    54  SER54       0.1924
     78  C         33.9250   17.3520    7.2210 C.2    54  SER54       0.2314
     79  O         32.6930   17.3960    7.2120 O.2    54  SER54      -0.2863
     80  CB        35.0330   18.7620    8.9480 C.3    54  SER54       0.2116
     81  OG        33.8150   18.9220    9.6590 O.3    54  SER54      -0.2180
     82  N         37.6760   13.5890    9.2350 N.3    58  ASN58      -0.1225
     83  CA        38.6000   14.6980    9.4650 C.3    58  ASN58       0.1785
     84  C         38.8430   14.9410   10.9460 C.2    58  ASN58       0.2597
     85  O         39.9340   15.3780   11.3290 O.2    58  ASN58      -0.2718
     86  CB        38.0800   15.9800    8.8110 C.3    58  ASN58       0.1169
     87  CG        38.2320   15.9700    7.3100 C.2    58  ASN58       0.2627
     88  OD1       37.4410   16.5740    6.5910 O.2    58  ASN58      -0.2716
     89  ND2       39.2610   15.2850    6.8250 N.am   58  ASN58      -0.0877
     90  N         37.8550   14.6610   11.7940 N.am   59  TYR59      -0.1976
     91  CA        38.0160   14.8780   13.2250 C.3    59  TYR59       0.1639
     92  C         38.8670   13.8070   13.8920 C.2    59  TYR59       0.2290
     93  O         39.0840   13.8790   15.1070 O.2    59  TYR59      -0.2864
     94  CB        36.6450   14.9700   13.9010 C.3    59  TYR59       0.0560
     95  CG        35.8650   16.1890   13.4650 C.ar   59  TYR59      -0.0198
     96  CD1       36.1820   17.4490   13.9580 C.ar   59  TYR59      -0.0009
     97  CD2       34.8220   16.0840   12.5540 C.ar   59  TYR59      -0.0009
     98  CE1       35.4800   18.5710   13.5580 C.ar   59  TYR59       0.0417
     99  CE2       34.1110   17.1990   12.1500 C.ar   59  TYR59       0.0417
    100  CZ        34.4470   18.4400   12.6530 C.ar   59  TYR59       0.1957
    101  OH        33.7490   19.5560   12.2580 O.3    59  TYR59      -0.2866
    102  N         41.9580   13.5430   12.8150 N.3    61  ARG61      -0.1245
    103  CA        43.2680   14.1680   12.7610 C.3    61  ARG61       0.1563
    104  C         43.7000   14.6190   14.1560 C.2    61  ARG61       0.2260
    105  O         42.9520   14.5280   15.1330 O.2    61  ARG61      -0.2867
    106  CB        43.2590   15.3570   11.7970 C.3    61  ARG61       0.0307
    107  CG        43.1110   14.9820   10.3190 C.3    61  ARG61       0.0489
    108  CD        42.9680   16.2130    9.4180 C.3    61  ARG61       0.2205
    109  NE        42.7690   15.8790    8.0040 N.pl3  61  ARG61      -0.0865
    110  CZ        42.7560   16.7750    7.0160 C.cat  61  ARG61       0.5346
    111  NH1       42.9260   18.0630    7.2790 N.pl3  61  ARG61       0.1354
    112  NH2       42.5700   16.3880    5.7630 N.pl3  61  ARG61       0.1354
    113  N         45.4630   20.1640   14.3500 N.3    65  GLN65      -0.1231
    114  CA        44.9760   20.3820   12.9930 C.3    65  GLN65       0.1698
    115  C         43.4780   20.6720   12.9840 C.2    65  GLN65       0.2592
    116  O         43.0170   21.5700   12.2650 O.2    65  GLN65      -0.2718
    117  CB        45.3000   19.1620   12.1330 C.3    65  GLN65       0.0381
    118  CG        46.7900   18.9250   11.9270 C.3    65  GLN65       0.0905
    119  CD        47.0820   17.5650   11.3250 C.2    65  GLN65       0.2608
    120  OE1       46.1710   16.7710   11.0860 O.2    65  GLN65      -0.2717
    121  NE2       48.3570   17.2930   11.0680 N.am   65  GLN65      -0.0878
    122  N         42.7100   19.9410   13.7960 N.am   66  VAL66      -0.1980
    123  CA        41.2800   20.2110   13.9090 C.3    66  VAL66       0.1595
    124  C         41.0510   21.6270   14.4200 C.2    66  VAL66       0.2287
    125  O         40.1890   22.3550   13.9100 O.2    66  VAL66      -0.2864
    126  CB        40.6070   19.1610   14.8150 C.3    66  VAL66       0.0276
    127  CG1       39.1410   19.5120   15.0510 C.3    66  VAL66       0.0022
    128  CG2       40.7360   17.7730   14.2110 C.3    66  VAL66       0.0022
    129  N         41.8670   24.2150   11.5570 N.3    69  ALA69      -0.1231
    130  CA        40.8770   24.2700   10.4830 C.3    69  ALA69       0.1694
    131  C         39.5490   24.8320   10.9780 C.2    69  ALA69       0.2591
    132  O         38.9780   25.7450   10.3650 O.2    69  ALA69      -0.2718
    133  CB        40.6830   22.8820    9.8810 C.3    69  ALA69       0.0304
    134  N         39.0400   24.2920   12.0870 N.am   70  MET70      -0.1979
    135  CA        37.7650   24.7600   12.6220 C.3    70  MET70       0.1605
    136  C         37.8230   26.2410   12.9660 C.2    70  MET70       0.2287
    137  O         36.8450   26.9740   12.7660 O.2    70  MET70      -0.2864
    138  CB        37.3780   23.9320   13.8450 C.3    70  MET70       0.0413
    139  CG        36.9890   22.5030   13.5090 C.3    70  MET70       0.0598
    140  SD        35.6500   22.4290   12.3040 S.3    70  MET70      -0.1393
    141  CE        34.3870   23.3860   13.1460 C.3    70  MET70       0.0692
    142  N         37.5380   28.1680    9.4610 N.3    73  PHE73      -0.1241
    143  CA        36.1680   28.2440    8.9480 C.3    73  PHE73       0.1605
    144  C         35.3080   29.1450    9.8360 C.2    73  PHE73       0.2264
    145  O         34.5840   30.0360    9.3510 O.2    73  PHE73      -0.2867
    146  CB        35.5700   26.8350    8.8590 C.3    73  PHE73       0.0534
    147  CG        36.1130   25.9980    7.7160 C.ar   73  PHE73      -0.0203
    148  CD1       35.6700   26.1940    6.4150 C.ar   73  PHE73      -0.0042
    149  CD2       37.0590   25.0070    7.9530 C.ar   73  PHE73      -0.0042
    150  CE1       36.1580   25.4220    5.3660 C.ar   73  PHE73      -0.0003
    151  CE2       37.5540   24.2260    6.9100 C.ar   73  PHE73      -0.0003
    152  CZ        37.1010   24.4370    5.6090 C.ar   73  PHE73      -0.0000
    153  N         41.8850   16.5420   -6.8290 N.3   168  HIS168     -0.1241
    154  CA        41.3560   15.2160   -6.5320 C.3   168  HIS168      0.1621
    155  C         39.9410   15.0840   -7.0840 C.2   168  HIS168      0.2264
    156  O         39.0680   15.9000   -6.7700 O.2   168  HIS168     -0.2867
    157  CB        41.3900   14.9390   -5.0320 C.3   168  HIS168      0.0745
    158  CG        42.7640   14.6560   -4.5160 C.ar  168  HIS168      0.0817
    159  ND1       43.3930   15.4530   -3.5850 N.ar  168  HIS168     -0.2268
    160  CD2       43.6470   13.6790   -4.8330 C.ar  168  HIS168      0.1154
    161  CE1       44.5970   14.9690   -3.3360 C.ar  168  HIS168      0.1986
    162  NE2       44.7760   13.8940   -4.0820 N.ar  168  HIS168     -0.2212
    163  N         31.7640   13.7930    0.9750 N.3   174  PHE174     -0.1241
    164  CA        31.0540   15.0700    0.9060 C.3   174  PHE174      0.1605
    165  C         29.9180   15.0690   -0.1140 C.2   174  PHE174      0.2264
    166  O         29.4000   16.1410   -0.4470 O.2   174  PHE174     -0.2867
    167  CB        32.0190   16.2190    0.5990 C.3   174  PHE174      0.0534
    168  CG        33.1190   16.3670    1.6060 C.ar  174  PHE174     -0.0203
    169  CD1       32.8370   16.7710    2.8990 C.ar  174  PHE174     -0.0042
    170  CD2       34.4340   16.1090    1.2600 C.ar  174  PHE174     -0.0042
    171  CE1       33.8440   16.9010    3.8310 C.ar  174  PHE174     -0.0003
    172  CE2       35.4460   16.2370    2.1880 C.ar  174  PHE174     -0.0003
    173  CZ        35.1500   16.6310    3.4750 C.ar  174  PHE174     -0.0000
@<TRIPOS>BOND
     1   155   156    2
     2   155   154    1
     3   153   154    1
     4   154   157    1
     5   157   158    1
     6   160   158   ar
     7   160   162   ar
     8   158   159   ar
     9    49    47    1
    10   162   161   ar
    11   159   161   ar
    12    47    48    1
    13    47    46    2
    14    45    46    1
    15    45    44    1
    16    15    13   ar
    17    11    10    2
    18    44    43    1
    19    43    40    1
    20    12    13    1
    21    12     9    1
    22    13    14   ar
    23    42    41    2
    24    10     9    1
    25    10    16   am
    26    17    16    1
    27    17    18    1
    28     8     9    1
    29     8     3   am
    30    41    40    1
    31   166   165    2
    32    40    39    1
    33    19    18    2
    34     1     2    1
    35     1     7    1
    36   165   164    1
    37     2     3    1
    38     2     5    1
    39     3     4    2
    40    18    20   am
    41   167   164    1
    42   167   168    1
    43   164   163    1
    44     7     6    1
    45    39    30   am
    46     5     6    1
    47   170   168   ar
    48   170   172   ar
    49    68    66    1
    50    20    21    1
    51    67    66    1
    52   168   169   ar
    53    26    27    1
    54    26    25    1
    55    30    31    2
    56    30    29    1
    57   172   173   ar
    58    66    63    1
    59    21    22    1
    60    21    24    1
    61    62    63    1
    62    22    23    2
    63    22    28   am
    64   169   171   ar
    65    28    29    1
    66    63    64    1
    67    29    32    1
    68   173   171   ar
    69    25    24    1
    70    32    33    1
    71    65    64    2
    72    37    36    1
    73    64    69   am
    74    35    36    2
    75    35    34    1
    76    36    38    1
    77    33    34    1
    78   150   152   ar
    79   150   148   ar
    80    69    70    1
    81   152   151   ar
    82   112   110    1
    83    50    51    1
    84   148   147   ar
    85    70    71    1
    86    70    73    1
    87    53    52    2
    88    88    87    2
    89    51    52    1
    90    51    54    1
    91    71    76   am
    92    71    72    2
    93    89    87   am
    94   151   149   ar
    95    76    77    1
    96    61    60    1
    97    58    60   ar
    98    58    56   ar
    99   110   111    1
   100   110   109    2
   101    60    59   ar
   102    79    78    2
   103    56    55   ar
   104    78    77    1
   105    87    86    1
   106    75    73    1
   107    77    80    1
   108    59    57   ar
   109    55    57   ar
   110    55    54    1
   111   147   149   ar
   112   147   146    1
   113    73    74    1
   114   109   108    1
   115    86    83    1
   116   146   143    1
   117   143   142    1
   118   143   144    1
   119    80    81    1
   120    82    83    1
   121   145   144    2
   122   108   107    1
   123    83    84    1
   124   133   130    1
   125   107   106    1
   126   132   131    2
   127   130   131    1
   128   130   129    1
   129    84    85    2
   130    84    90   am
   131   131   134   am
   132   121   119   am
   133   120   119    2
   134   119   118    1
   135    90    91    1
   136   106   103    1
   137   118   117    1
   138   134   135    1
   139   117   114    1
   140    99    97   ar
   141    99   100   ar
   142   101   100    1
   143   116   115    2
   144   140   141    1
   145   140   139    1
   146    97    95   ar
   147   135   136    1
   148   135   138    1
   149   100    98   ar
   150   103   102    1
   151   103   104    1
   152   137   136    2
   153   115   114    1
   154   115   122   am
   155   114   113    1
   156    91    92    1
   157    91    94    1
   158    95    94    1
   159    95    96   ar
   160   139   138    1
   161    98    96   ar
   162   122   123    1
   163    92    93    2
   164   123   124    1
   165   123   126    1
   166   125   124    2
   167   104   105    2
   168   128   126    1
   169   126   127    1
