@<TRIPOS>MOLECULE
tmp/5xk9E01.pdb
 92 85 0 0 0
SMALL
GASTEIGER

@<TRIPOS>ATOM
      1  N         27.4150    4.6400  -20.6830 N.3     9  ASP9       -0.1239
      2  CA        26.7110    5.7940  -21.2220 C.3     9  ASP9        0.1674
      3  C         27.1260    6.0170  -22.6700 C.2     9  ASP9        0.2266
      4  O         28.2390    5.6700  -23.0720 O.2     9  ASP9       -0.2867
      5  CB        26.9870    7.0470  -20.3780 C.3     9  ASP9        0.1410
      6  CG        25.9640    8.1380  -20.5990 C.2     9  ASP9        0.3668
      7  OD1       24.8640    7.8250  -21.0980 O.co2   9  ASP9       -0.2456
      8  OD2       26.2500    9.3060  -20.2580 O.co2   9  ASP9       -0.2456
      9  N         22.8050    6.1620  -27.4020 N.3    12  ARG12      -0.1245
     10  CA        22.0600    6.9080  -28.4150 C.3    12  ARG12       0.1563
     11  C         22.9950    7.7250  -29.2990 C.2    12  ARG12       0.2260
     12  O         22.8950    7.6830  -30.5340 O.2    12  ARG12      -0.2867
     13  CB        21.0090    7.7990  -27.7530 C.3    12  ARG12       0.0307
     14  CG        19.8200    7.0200  -27.1930 C.3    12  ARG12       0.0489
     15  CD        18.7840    7.9430  -26.5580 C.3    12  ARG12       0.2205
     16  NE        19.2490    8.5080  -25.2930 N.pl3  12  ARG12      -0.0865
     17  CZ        18.5110    9.2860  -24.5060 C.cat  12  ARG12       0.5346
     18  NH1       19.0120    9.7540  -23.3690 N.pl3  12  ARG12       0.1354
     19  NH2       17.2720    9.6000  -24.8580 N.pl3  12  ARG12       0.1354
     20  N         14.8460    6.4950  -12.8590 N.3    56  ALA56      -0.1231
     21  CA        14.3210    7.3480  -13.9210 C.3    56  ALA56       0.1694
     22  C         14.3970    6.6790  -15.2870 C.2    56  ALA56       0.2592
     23  O         13.5510    6.9420  -16.1520 O.2    56  ALA56      -0.2718
     24  CB        15.0810    8.6740  -13.9450 C.3    56  ALA56       0.0304
     25  N         15.3960    5.8180  -15.5050 N.am   57  ASN57      -0.1974
     26  CA        15.5610    5.1870  -16.8110 C.3    57  ASN57       0.1688
     27  C         14.3440    4.3630  -17.2030 C.2    57  ASN57       0.2292
     28  O         14.0160    4.2690  -18.3910 O.2    57  ASN57      -0.2864
     29  CB        16.8110    4.3080  -16.8180 C.3    57  ASN57       0.1181
     30  CG        18.0930    5.1140  -16.8410 C.2    57  ASN57       0.2629
     31  OD1       19.1170    4.6840  -16.3120 O.2    57  ASN57      -0.2716
     32  ND2       18.0440    6.2880  -17.4540 N.am   57  ASN57      -0.0877
     33  N         11.5150    5.7700  -19.4640 N.3    60  ARG60      -0.1245
     34  CA        11.5750    5.8040  -20.9160 C.3    60  ARG60       0.1563
     35  C         10.5100    4.8780  -21.5040 C.2    60  ARG60       0.2260
     36  O          9.8230    4.1410  -20.7900 O.2    60  ARG60      -0.2867
     37  CB        12.9710    5.4190  -21.4040 C.3    60  ARG60       0.0307
     38  CG        14.0350    6.4450  -21.0510 C.3    60  ARG60       0.0489
     39  CD        15.4260    5.9970  -21.4590 C.3    60  ARG60       0.2205
     40  NE        16.4360    6.9700  -21.0540 N.pl3  60  ARG60      -0.0865
     41  CZ        17.7120    6.9300  -21.4260 C.cat  60  ARG60       0.5346
     42  NH1       18.1460    5.9640  -22.2250 N.pl3  60  ARG60       0.1354
     43  NH2       18.5550    7.8610  -21.0020 N.pl3  60  ARG60       0.1354
     44  N         33.1230    6.7460  -15.5210 N.3   163  ARG163     -0.1245
     45  CA        31.9570    7.1700  -16.2970 C.3   163  ARG163      0.1563
     46  C         32.3850    7.7270  -17.6490 C.2   163  ARG163      0.2260
     47  O         32.8520    8.8780  -17.7330 O.2   163  ARG163     -0.2867
     48  CB        31.1060    8.1950  -15.5650 C.3   163  ARG163      0.0307
     49  CG        29.9360    8.6200  -16.4390 C.3   163  ARG163      0.0489
     50  CD        28.8700    9.4040  -15.7170 C.3   163  ARG163      0.2205
     51  NE        27.7240    9.6240  -16.5960 N.pl3 163  ARG163     -0.0865
     52  CZ        26.5340   10.0550  -16.1900 C.cat 163  ARG163      0.5346
     53  NH1       26.3250   10.3220  -14.9060 N.pl3 163  ARG163      0.1354
     54  NH2       25.5540   10.2300  -17.0690 N.pl3 163  ARG163      0.1354
     55  N         29.9530   13.2990  -19.5120 N.3   167  HIS167     -0.1241
     56  CA        29.2070   14.0210  -18.4940 C.3   167  HIS167      0.1621
     57  C         29.9370   13.9130  -17.1630 C.2   167  HIS167      0.2264
     58  O         30.1860   12.8050  -16.6730 O.2   167  HIS167     -0.2867
     59  CB        27.7920   13.4620  -18.3830 C.3   167  HIS167      0.0745
     60  CG        26.9100   13.8290  -19.5330 C.ar  167  HIS167      0.0817
     61  ND1       26.3880   12.8900  -20.3980 N.ar  167  HIS167     -0.2268
     62  CD2       26.4450   15.0280  -19.9540 C.ar  167  HIS167      0.1154
     63  CE1       25.6480   13.4970  -21.3080 C.ar  167  HIS167      0.1986
     64  NE2       25.6640   14.7940  -21.0600 N.ar  167  HIS167     -0.2212
     65  N         29.2340   14.1490  -13.8260 N.3   169  ARG169     -0.1245
     66  CA        28.1930   14.1270  -12.8100 C.3   169  ARG169      0.1563
     67  C         27.9200   12.6710  -12.4780 C.2   169  ARG169      0.2260
     68  O         28.2160   11.7690  -13.2690 O.2   169  ARG169     -0.2867
     69  CB        26.9050   14.8050  -13.2830 C.3   169  ARG169      0.0307
     70  CG        26.3190   14.1530  -14.5100 C.3   169  ARG169      0.0489
     71  CD        25.1540   14.9350  -15.0710 C.3   169  ARG169      0.2205
     72  NE        24.5670   14.2430  -16.2110 N.pl3 169  ARG169     -0.0865
     73  CZ        23.9800   14.8520  -17.2340 C.cat 169  ARG169      0.5346
     74  NH1       23.9010   16.1760  -17.2670 N.pl3 169  ARG169      0.1354
     75  NH2       23.4720   14.1360  -18.2290 N.pl3 169  ARG169      0.1354
     76  N         24.6990   11.5750  -11.3730 N.3   171  SER171     -0.1217
     77  CA        23.2900   11.2470  -11.6540 C.3   171  SER171      0.1889
     78  C         22.7510   10.5110  -10.4270 C.2   171  SER171      0.2288
     79  O         22.9540   10.9890   -9.3000 O.2   171  SER171     -0.2866
     80  CB        23.1900   10.4870  -12.9740 C.3   171  SER171      0.2089
     81  OG        23.7330   11.2430  -14.0430 O.3   171  SER171     -0.2183
     82  N         23.7190    7.4950   -9.4850 N.3   173  PHE173     -0.1241
     83  CA        24.5900    6.3280   -9.4180 C.3   173  PHE173      0.1605
     84  C         25.6810    6.4090   -8.3550 C.2   173  PHE173      0.2264
     85  O         26.5680    5.5470   -8.3390 O.2   173  PHE173     -0.2867
     86  CB        25.2420    6.1160  -10.7840 C.3   173  PHE173      0.0534
     87  CG        24.2570    5.9680  -11.9060 C.ar  173  PHE173     -0.0203
     88  CD1       23.4570    4.8400  -12.0020 C.ar  173  PHE173     -0.0042
     89  CD2       24.1200    6.9700  -12.8550 C.ar  173  PHE173     -0.0042
     90  CE1       22.5440    4.7030  -13.0350 C.ar  173  PHE173     -0.0003
     91  CE2       23.2070    6.8460  -13.8850 C.ar  173  PHE173     -0.0003
     92  CZ        22.4170    5.7060  -13.9770 C.ar  173  PHE173     -0.0000
@<TRIPOS>BOND
     1    12    11    2
     2    11    10    1
     3    10    13    1
     4    10     9    1
     5    13    14    1
     6    14    15    1
     7    15    16    1
     8    16    17    2
     9    19    17    1
    10    17    18    1
    11     4     3    2
    12     3     2    1
    13    42    41    1
    14    35    34    1
    15    35    36    2
    16    39    40    1
    17    39    38    1
    18    41    40    2
    19    41    43    1
    20    37    38    1
    21    37    34    1
    22    63    64   ar
    23    63    61   ar
    24     2     1    1
    25     2     5    1
    26     7     6   ar
    27    64    62   ar
    28    34    33    1
    29     6     5    1
    30     6     8   ar
    31    61    60   ar
    32    62    60   ar
    33    60    59    1
    34    55    56    1
    35    56    59    1
    36    56    57    1
    37    28    27    2
    38    75    73    1
    39    47    46    2
    40    46    45    1
    41    32    30   am
    42    74    73    1
    43    73    72    2
    44    27    26    1
    45    57    58    2
    46    54    52    1
    47    30    29    1
    48    30    31    2
    49    29    26    1
    50    26    25    1
    51    51    52    2
    52    51    50    1
    53    49    50    1
    54    49    48    1
    55    45    48    1
    56    45    44    1
    57    72    71    1
    58    52    53    1
    59    23    22    2
    60    25    22   am
    61    22    21    1
    62    71    70    1
    63    70    69    1
    64    81    80    1
    65    92    91   ar
    66    92    90   ar
    67    24    21    1
    68    21    20    1
    69    91    89   ar
    70    65    66    1
    71    69    66    1
    72    68    67    2
    73    90    88   ar
    74    80    77    1
    75    89    87   ar
    76    66    67    1
    77    88    87   ar
    78    87    86    1
    79    77    76    1
    80    77    78    1
    81    86    83    1
    82    78    79    2
    83    82    83    1
    84    83    84    1
    85    84    85    2
