@<TRIPOS>MOLECULE
tmp/5xkdC00.pdb
 168 162 0 0 0
SMALL
GASTEIGER

@<TRIPOS>ATOM
      1  N        -35.5550  -53.6700   11.8930 N.3     8  PHE8       -0.1241
      2  CA       -35.4080  -55.1100   11.8140 C.3     8  PHE8        0.1605
      3  C        -34.2940  -55.4610   10.8370 C.2     8  PHE8        0.2264
      4  O        -34.3290  -55.0440    9.6880 O.2     8  PHE8       -0.2867
      5  CB       -36.7190  -55.7700   11.3840 C.3     8  PHE8        0.0534
      6  CG       -36.5980  -57.2590   11.1070 C.ar    8  PHE8       -0.0203
      7  CD1      -36.4660  -57.7330    9.8070 C.ar    8  PHE8       -0.0042
      8  CD2      -36.6490  -58.1780   12.1550 C.ar    8  PHE8       -0.0042
      9  CE1      -36.3710  -59.1040    9.5520 C.ar    8  PHE8       -0.0003
     10  CE2      -36.5430  -59.5470   11.9180 C.ar    8  PHE8       -0.0003
     11  CZ       -36.4050  -60.0110   10.6070 C.ar    8  PHE8       -0.0000
     12  N        -33.7830  -61.2150   13.7410 N.3    54  PRO54      -0.2102
     13  CA       -34.1800  -62.6010   13.4580 C.3    54  PRO54       0.1504
     14  C        -33.0790  -63.5470   13.8840 C.2    54  PRO54       0.2576
     15  O        -32.0140  -63.0930   14.3110 O.2    54  PRO54      -0.2718
     16  CB       -34.3420  -62.6210   11.9280 C.3    54  PRO54       0.0282
     17  CG       -33.3280  -61.6300   11.4570 C.3    54  PRO54       0.0208
     18  CD       -33.2960  -60.5340   12.5300 C.3    54  PRO54       0.0893
     19  N        -33.3090  -64.8440   13.7580 N.am   55  ASP55      -0.1960
     20  CA       -32.2230  -65.7850   13.9860 C.3    55  ASP55       0.1840
     21  C        -32.4920  -67.1430   13.3700 C.2    55  ASP55       0.2622
     22  O        -33.6360  -67.5990   13.2920 O.2    55  ASP55      -0.2715
     23  CB       -31.9460  -65.9610   15.4820 C.3    55  ASP55       0.1450
     24  CG       -30.6100  -66.6220   15.7390 C.2    55  ASP55       0.3671
     25  OD1      -29.7070  -66.4850   14.8760 O.co2  55  ASP55      -0.2456
     26  OD2      -30.4550  -67.2540   16.7990 O.co2  55  ASP55      -0.2456
     27  N        -31.3990  -67.7440   12.9140 N.am   56  GLY56      -0.1954
     28  CA       -31.3170  -69.1260   12.5040 C.3    56  GLY56       0.1869
     29  C        -30.0100  -69.6380   13.1020 C.2    56  GLY56       0.2309
     30  O        -29.0020  -68.9210   13.1040 O.2    56  GLY56      -0.2863
     31  N        -35.1410  -62.9140   18.4760 N.3   102  THR102     -0.1218
     32  CA       -35.8430  -64.1210   18.1080 C.3   102  THR102      0.1862
     33  C        -35.1450  -65.3240   18.7400 C.2   102  THR102      0.2287
     34  O        -33.9490  -65.5500   18.5460 O.2   102  THR102     -0.2866
     35  CB       -35.8890  -64.2920   16.5770 C.3   102  THR102      0.1770
     36  OG1      -36.5450  -63.1590   15.9850 O.3   102  THR102     -0.2211
     37  CG2      -36.6380  -65.5750   16.1770 C.3   102  THR102      0.0375
     38  N        -35.9900  -69.5360   19.3840 N.3   104  SER104     -0.1217
     39  CA       -36.9200  -70.6270   19.1580 C.3   104  SER104      0.1889
     40  C        -37.2140  -71.3820   20.4420 C.2   104  SER104      0.2288
     41  O        -36.3170  -71.6480   21.2450 O.2   104  SER104     -0.2866
     42  CB       -36.3800  -71.5920   18.1050 C.3   104  SER104      0.2089
     43  OG       -37.3440  -72.5870   17.8450 O.3   104  SER104     -0.2183
     44  N        -39.0510  -62.3230   20.6920 N.3   131  ASN131     -0.1240
     45  CA       -39.7900  -62.7150   19.5100 C.3   131  ASN131      0.1653
     46  C        -39.8790  -64.2280   19.4630 C.2   131  ASN131      0.2266
     47  O        -38.8780  -64.9030   19.1810 O.2   131  ASN131     -0.2867
     48  CB       -39.1260  -62.1860   18.2370 C.3   131  ASN131      0.1155
     49  CG       -39.8550  -62.6190   16.9810 C.2   131  ASN131      0.2627
     50  OD1      -41.0730  -62.7330   16.9650 O.2   131  ASN131     -0.2716
     51  ND2      -39.1070  -62.8670   15.9280 N.am  131  ASN131     -0.0877
     52  N        -40.6400  -67.8940   18.3160 N.3   133  VAL133     -0.1231
     53  CA       -40.5890  -68.6570   17.0890 C.3   133  VAL133      0.1692
     54  C        -40.5140  -70.1560   17.4550 C.2   133  VAL133      0.2593
     55  O        -40.0240  -70.5120   18.5300 O.2   133  VAL133     -0.2718
     56  CB       -39.4030  -68.1470   16.2430 C.3   133  VAL133      0.0266
     57  CG1      -38.4300  -69.2300   15.8570 C.3   133  VAL133      0.0020
     58  CG2      -39.9130  -67.3090   15.0690 C.3   133  VAL133      0.0020
     59  N        -41.0550  -71.0250   16.6010 N.am  134  THR134     -0.1939
     60  CA       -41.1660  -72.4600   16.9270 C.3   134  THR134      0.2028
     61  C        -40.4000  -73.3440   15.9490 C.2   134  THR134      0.2643
     62  O        -40.6580  -74.5390   15.8580 O.2   134  THR134     -0.2714
     63  CB       -42.6620  -72.9230   16.9790 C.3   134  THR134      0.1808
     64  OG1      -43.3310  -72.5190   15.7770 O.3   134  THR134     -0.2208
     65  CG2      -43.3850  -72.2610   18.1160 C.3   134  THR134      0.0379
     66  N        -39.4230  -72.7590   15.2620 N.am  135  SER135     -0.1935
     67  CA       -38.6990  -73.4590   14.2140 C.3   135  SER135      0.2055
     68  C        -37.9710  -74.7250   14.6720 C.2   135  SER135      0.2642
     69  O        -37.4860  -74.8210   15.7960 O.2   135  SER135     -0.2714
     70  CB       -37.6790  -72.5120   13.6110 C.3   135  SER135      0.2130
     71  OG       -38.3270  -71.3790   13.0630 O.3   135  SER135     -0.2179
     72  N        -37.8630  -75.6720   13.7460 N.am  136  LEU136     -0.1977
     73  CA       -37.0570  -76.8710   13.9110 C.3   136  LEU136      0.1596
     74  C        -36.6850  -77.3470   12.4990 C.2   136  LEU136      0.2287
     75  O        -37.5490  -77.6630   11.7020 O.2   136  LEU136     -0.2864
     76  CB       -37.8040  -77.9590   14.7010 C.3   136  LEU136      0.0297
     77  CG       -37.2240  -79.3850   14.6410 C.3   136  LEU136      0.0022
     78  CD1      -35.8140  -79.4370   15.2390 C.3   136  LEU136      0.0001
     79  CD2      -38.1230  -80.3670   15.3860 C.3   136  LEU136      0.0001
     80  N        -29.9550  -77.0050   11.9360 N.3   140  GLU140     -0.1245
     81  CA       -29.9600  -76.3790   13.2460 C.3   140  GLU140      0.1567
     82  C        -29.8780  -77.4780   14.2950 C.2   140  GLU140      0.2260
     83  O        -29.1940  -77.3790   15.2810 O.2   140  GLU140     -0.2867
     84  CB       -31.2870  -75.6560   13.4150 C.3   140  GLU140      0.0388
     85  CG       -31.2430  -74.2650   13.9460 C.3   140  GLU140      0.1160
     86  CD       -32.3080  -73.3850   13.3160 C.2   140  GLU140      0.3649
     87  OE1      -33.4190  -73.2430   13.8570 O.co2 140  GLU140     -0.2457
     88  OE2      -32.0320  -72.8610   12.2420 O.co2 140  GLU140     -0.2457
     89  N        -44.9520  -79.5280   12.5510 N.3   152  HIS152     -0.1241
     90  CA       -45.1230  -78.0780   12.5840 C.3   152  HIS152      0.1621
     91  C        -46.1680  -77.6020   13.6100 C.2   152  HIS152      0.2264
     92  O        -45.8450  -76.8260   14.5230 O.2   152  HIS152     -0.2867
     93  CB       -45.4770  -77.6110   11.1620 C.3   152  HIS152      0.0745
     94  CG       -45.8590  -76.1670   11.0550 C.ar  152  HIS152      0.0817
     95  ND1      -47.0610  -75.6710   11.5120 N.ar  152  HIS152     -0.2268
     96  CD2      -45.1940  -75.1110   10.5290 C.ar  152  HIS152      0.1154
     97  CE1      -47.1230  -74.3750   11.2700 C.ar  152  HIS152      0.1986
     98  NE2      -46.0020  -74.0100   10.6750 N.ar  152  HIS152     -0.2212
     99  N        -45.3510  -78.4490   17.3400 N.3   155  ARG155     -0.1231
    100  CA       -44.3610  -77.5450   17.9170 C.3   155  ARG155      0.1694
    101  C        -45.0200  -76.3390   18.5990 C.2   155  ARG155      0.2592
    102  O        -44.6060  -75.9230   19.6860 O.2   155  ARG155     -0.2718
    103  CB       -43.3700  -77.0960   16.8410 C.3   155  ARG155      0.0321
    104  CG       -42.5980  -78.2660   16.2700 C.3   155  ARG155      0.0489
    105  CD       -41.3000  -77.8520   15.6130 C.3   155  ARG155      0.2205
    106  NE       -41.5020  -76.9540   14.4890 N.pl3 155  ARG155     -0.0865
    107  CZ       -41.6270  -77.3550   13.2290 C.cat 155  ARG155      0.5346
    108  NH1      -41.5860  -78.6510   12.9350 N.pl3 155  ARG155      0.1354
    109  NH2      -41.8010  -76.4570   12.2670 N.pl3 155  ARG155      0.1354
    110  N        -46.0690  -75.8110   17.9760 N.am  156  TYR156     -0.1976
    111  CA       -46.8440  -74.7410   18.5710 C.3   156  TYR156      0.1639
    112  C        -47.6040  -75.1800   19.8270 C.2   156  TYR156      0.2290
    113  O        -47.6860  -74.4090   20.7990 O.2   156  TYR156     -0.2864
    114  CB       -47.8250  -74.1730   17.5470 C.3   156  TYR156      0.0560
    115  CG       -47.2250  -73.1380   16.6250 C.ar  156  TYR156     -0.0198
    116  CD1      -46.8910  -71.8610   17.0960 C.ar  156  TYR156     -0.0009
    117  CD2      -47.0160  -73.4200   15.2820 C.ar  156  TYR156     -0.0009
    118  CE1      -46.3470  -70.9010   16.2460 C.ar  156  TYR156      0.0417
    119  CE2      -46.4770  -72.4800   14.4270 C.ar  156  TYR156      0.0417
    120  CZ       -46.1410  -71.2280   14.9090 C.ar  156  TYR156      0.1957
    121  OH       -45.6110  -70.2960   14.0340 O.3   156  TYR156     -0.2866
    122  N        -43.5950  -64.2050   15.2680 N.3   224  ALA224     -0.1231
    123  CA       -43.5020  -64.2900   13.8620 C.3   224  ALA224      0.1694
    124  C        -43.8790  -65.6870   13.4780 C.2   224  ALA224      0.2593
    125  O        -43.3310  -66.6430   13.9600 O.2   224  ALA224     -0.2718
    126  CB       -42.1450  -63.9630   13.4140 C.3   224  ALA224      0.0304
    127  N        -44.8280  -65.7760   12.5870 N.am  225  GLY225     -0.1942
    128  CA       -45.3140  -67.0350   12.0980 C.3   225  GLY225      0.2014
    129  C        -46.7340  -66.8550   11.6670 C.2   225  GLY225      0.2639
    130  O        -47.6360  -66.7520   12.4590 O.2   225  GLY225     -0.2714
    131  N        -46.9040  -66.8710   10.3670 N.am  226  LEU226     -0.1963
    132  CA       -48.1620  -66.6200    9.7510 C.3   226  LEU226      0.1728
    133  C        -48.9970  -67.8120    9.3420 C.2   226  LEU226      0.2616
    134  O        -50.0290  -67.6450    8.7520 O.2   226  LEU226     -0.2715
    135  CB       -47.9400  -65.6910    8.5770 C.3   226  LEU226      0.0311
    136  CG       -47.7320  -64.2320    8.9110 C.3   226  LEU226      0.0022
    137  CD1      -47.6700  -63.4430    7.6820 C.3   226  LEU226      0.0001
    138  CD2      -48.7930  -63.7340    9.7800 C.3   226  LEU226      0.0001
    139  N        -48.5440  -69.0050    9.6350 N.am  227  SER227     -0.1950
    140  CA       -49.3080  -70.2150    9.3050 C.3   227  SER227      0.1924
    141  C        -50.6210  -70.2170   10.1040 C.2   227  SER227      0.2314
    142  O        -50.7580  -69.4630   11.0870 O.2   227  SER227     -0.2863
    143  CB       -48.4960  -71.4750    9.5960 C.3   227  SER227      0.2116
    144  OG       -48.4030  -71.6800   10.9910 O.3   227  SER227     -0.2180
    145  N        -45.0840  -59.6350   13.9360 N.3   242  PHE242     -0.1227
    146  CA       -44.2590  -59.3670   12.7500 C.3   242  PHE242      0.1736
    147  C        -44.9460  -59.9890   11.5370 C.2   242  PHE242      0.2596
    148  O        -44.9500  -61.2090   11.3910 O.2   242  PHE242     -0.2718
    149  CB       -42.8480  -59.9640   12.9810 C.3   242  PHE242      0.0547
    150  CG       -41.9040  -59.8980   11.7960 C.ar  242  PHE242     -0.0202
    151  CD1      -40.7400  -60.6670   11.8060 C.ar  242  PHE242     -0.0042
    152  CD2      -42.1360  -59.0600   10.7110 C.ar  242  PHE242     -0.0042
    153  CE1      -39.8380  -60.6200   10.7350 C.ar  242  PHE242     -0.0003
    154  CE2      -41.2450  -58.9990    9.6330 C.ar  242  PHE242     -0.0003
    155  CZ       -40.0900  -59.7850    9.6420 C.ar  242  PHE242     -0.0000
    156  N        -45.4980  -59.1640   10.6530 N.am  243  SER243     -0.1938
    157  CA       -46.1340  -59.6880    9.4480 C.3   243  SER243      0.2055
    158  C        -45.5310  -59.0950    8.1930 C.2   243  SER243      0.2642
    159  O        -44.8950  -58.0390    8.2520 O.2   243  SER243     -0.2714
    160  CB       -47.6370  -59.4250    9.4550 C.3   243  SER243      0.2130
    161  OG       -48.2040  -59.8910    8.2380 O.3   243  SER243     -0.2179
    162  N        -45.6960  -59.8050    7.0750 N.am  244  VAL244     -0.1977
    163  CA       -45.2590  -59.3530    5.7570 C.3   244  VAL244      0.1596
    164  C        -46.3620  -59.5510    4.6930 C.2   244  VAL244      0.2287
    165  O        -46.8400  -60.6630    4.5080 O.2   244  VAL244     -0.2864
    166  CB       -44.0090  -60.1020    5.2640 C.3   244  VAL244      0.0276
    167  CG1      -43.6460  -59.6000    3.8780 C.3   244  VAL244      0.0022
    168  CG2      -42.8390  -59.9120    6.2010 C.3   244  VAL244      0.0022
@<TRIPOS>BOND
     1   167   166    1
     2   165   164    2
     3   164   163    1
     4   166   163    1
     5   166   168    1
     6   163   162    1
     7   162   158   am
     8   137   136    1
     9   158   159    2
    10   158   157    1
    11   161   160    1
    12   135   136    1
    13   135   132    1
    14   134   133    2
    15   136   138    1
    16   140   143    1
    17   140   139    1
    18   140   141    1
    19   133   139   am
    20   133   132    1
    21   157   160    1
    22   157   156    1
    23     9     7   ar
    24     9    11   ar
    25   143   144    1
    26   154   155   ar
    27   154   152   ar
    28   155   153   ar
    29     4     3    2
    30   132   131    1
    31     7     6   ar
    32   141   142    2
    33   131   129   am
    34    96    98   ar
    35    96    94   ar
    36    11    10   ar
    37   156   147   am
    38    98    97   ar
    39   152   150   ar
    40   153   151   ar
    41     3     2    1
    42    94    93    1
    43    94    95   ar
    44     6     5    1
    45     6     8   ar
    46    93    90    1
    47    97    95   ar
    48     5     2    1
    49   148   147    2
    50    17    16    1
    51    17    18    1
    52   147   146    1
    53   129   128    1
    54   129   130    2
    55    75    74    2
    56   150   151   ar
    57   150   149    1
    58     2     1    1
    59    10     8   ar
    60    16    13    1
    61    80    81    1
    62   128   127    1
    63    88    86   ar
    64   109   107    1
    65    74    73    1
    66    28    27    1
    67    28    29    1
    68    18    12    1
    69    89    90    1
    70    90    91    1
    71   127   124   am
    72   146   149    1
    73   146   145    1
    74    27    21   am
    75   108   107    1
    76    71    70    1
    77    29    30    2
    78   107   106    2
    79    81    84    1
    80    81    82    1
    81    22    21    2
    82    86    87   ar
    83    86    85    1
    84    21    20    1
    85   126   123    1
    86    84    85    1
    87    13    12    1
    88    13    14    1
    89   124   123    1
    90   124   125    2
    91    91    92    2
    92    70    67    1
    93    72    73    1
    94    72    68   am
    95    19    14   am
    96    19    20    1
    97   123   122    1
    98    14    15    2
    99    73    76    1
   100    20    23    1
   101   121   120    1
   102    67    68    1
   103    67    66    1
   104    82    83    2
   105   119   120   ar
   106   119   117   ar
   107   106   105    1
   108    77    76    1
   109    77    78    1
   110    77    79    1
   111    68    69    2
   112    25    24   ar
   113   120   118   ar
   114    58    56    1
   115    66    61   am
   116   117   115   ar
   117    23    24    1
   118   105   104    1
   119    24    26   ar
   120    64    63    1
   121    57    56    1
   122    62    61    2
   123    51    49   am
   124    61    60    1
   125    36    35    1
   126    37    35    1
   127    56    53    1
   128   118   116   ar
   129   104   103    1
   130    35    32    1
   131    59    60    1
   132    59    54   am
   133   115   116   ar
   134   115   114    1
   135   103   100    1
   136    60    63    1
   137    50    49    2
   138    63    65    1
   139    49    48    1
   140    53    54    1
   141    53    52    1
   142    99   100    1
   143    54    55    2
   144   114   111    1
   145    43    42    1
   146   100   101    1
   147   110   111    1
   148   110   101   am
   149    42    39    1
   150    32    31    1
   151    32    33    1
   152    48    45    1
   153    34    33    2
   154   111   112    1
   155   101   102    2
   156    39    38    1
   157    39    40    1
   158    47    46    2
   159    46    45    1
   160    45    44    1
   161   112   113    2
   162    40    41    2
