@<TRIPOS>MOLECULE
tmp/5xkfB02.pdb
 152 142 0 0 0
SMALL
GASTEIGER

@<TRIPOS>ATOM
      1  N         11.5670  382.0660   33.2730 N.3   235  VAL235     -0.1245
      2  CA        12.8220  381.7570   33.9840 C.3   235  VAL235      0.1561
      3  C         13.9250  382.8080   33.7850 C.2   235  VAL235      0.2260
      4  O         14.8270  382.9280   34.6210 O.2   235  VAL235     -0.2867
      5  CB        13.3680  380.3340   33.6620 C.3   235  VAL235      0.0252
      6  CG1       12.3670  379.2570   34.0630 C.3   235  VAL235      0.0019
      7  CG2       13.7430  380.1920   32.1930 C.3   235  VAL235      0.0019
      8  N         14.0430  387.7130   35.5950 N.3   238  CYS238     -0.1221
      9  CA        14.9280  388.4170   36.5140 C.3   238  CYS238      0.1808
     10  C         16.3110  388.7400   35.9360 C.2   238  CYS238      0.2601
     11  O         17.0910  389.4610   36.5630 O.2   238  CYS238     -0.2717
     12  CB        15.0570  387.6310   37.8120 C.3   238  CYS238      0.0970
     13  SG        13.5250  387.6100   38.7610 S.3   238  CYS238     -0.0800
     14  N         16.6110  388.2040   34.7530 N.am  239  LEU239     -0.1979
     15  CA        17.8170  388.5690   34.0180 C.3   239  LEU239      0.1596
     16  C         17.5130  389.7330   33.0780 C.2   239  LEU239      0.2287
     17  O         18.3660  390.5980   32.8540 O.2   239  LEU239     -0.2864
     18  CB        18.3630  387.3810   33.2120 C.3   239  LEU239      0.0297
     19  CG        18.5760  385.9870   33.8160 C.3   239  LEU239      0.0022
     20  CD1       18.8160  384.9830   32.6990 C.3   239  LEU239      0.0001
     21  CD2       19.7290  385.9580   34.8040 C.3   239  LEU239      0.0001
     22  N         15.7440  392.4780   43.1940 N.3   245  LEU245     -0.1245
     23  CA        16.7870  391.4790   43.0080 C.3   245  LEU245      0.1561
     24  C         17.4000  391.6630   41.6210 C.2   245  LEU245      0.2260
     25  O         16.7990  391.2790   40.6090 O.2   245  LEU245     -0.2867
     26  CB        16.2040  390.0660   43.1660 C.3   245  LEU245      0.0270
     27  CG        17.0310  388.9530   43.8220 C.3   245  LEU245      0.0019
     28  CD1       16.1190  387.8160   44.2520 C.3   245  LEU245      0.0001
     29  CD2       18.1350  388.4270   42.9160 C.3   245  LEU245      0.0001
     30  N         19.4460  390.2570   39.3040 N.3   247  ALA247     -0.1231
     31  CA        19.8790  388.8680   39.1440 C.3   247  ALA247      0.1694
     32  C         20.7310  388.6390   37.9050 C.2   247  ALA247      0.2592
     33  O         20.5060  389.2450   36.8560 O.2   247  ALA247     -0.2718
     34  CB        18.6800  387.9300   39.1480 C.3   247  ALA247      0.0304
     35  N         21.7190  387.7610   38.0500 N.am  248  ASP248     -0.1974
     36  CA        22.5370  387.3070   36.9290 C.3   248  ASP248      0.1709
     37  C         22.6400  385.7760   36.9430 C.2   248  ASP248      0.2293
     38  O         22.1100  385.1210   37.8490 O.2   248  ASP248     -0.2864
     39  CB        23.9140  387.9990   36.9330 C.3   248  ASP248      0.1436
     40  CG        24.8870  387.3850   37.9260 C.2   248  ASP248      0.3671
     41  OD1       25.7220  386.5630   37.4990 O.co2 248  ASP248     -0.2456
     42  OD2       24.8230  387.7170   39.1240 O.co2 248  ASP248     -0.2456
     43  N         24.6860  384.3560   40.1770 N.3   251  LYS251     -0.1231
     44  CA        23.9030  384.4660   41.4180 C.3   251  LYS251      0.1693
     45  C         22.8470  383.3650   41.5140 C.2   251  LYS251      0.2591
     46  O         22.6260  382.8020   42.5950 O.2   251  LYS251     -0.2718
     47  CB        23.2470  385.8430   41.5410 C.3   251  LYS251      0.0285
     48  CG        24.0870  386.9090   42.2300 C.3   251  LYS251      0.0035
     49  CD        23.4340  388.2740   42.0490 C.3   251  LYS251      0.0206
     50  CE        24.1920  389.3860   42.7540 C.3   251  LYS251      0.1093
     51  NZ        23.6360  390.7240   42.3990 N.3   251  LYS251     -0.1314
     52  N         22.2150  383.0590   40.3770 N.am  252  LEU252     -0.1980
     53  CA        21.2630  381.9520   40.2730 C.3   252  LEU252      0.1596
     54  C         21.9430  380.6090   40.5540 C.2   252  LEU252      0.2287
     55  O         21.3770  379.7700   41.2520 O.2   252  LEU252     -0.2864
     56  CB        20.5740  381.9480   38.9020 C.3   252  LEU252      0.0297
     57  CG        19.5530  380.8530   38.5650 C.3   252  LEU252      0.0022
     58  CD1       18.2440  381.0110   39.3250 C.3   252  LEU252      0.0001
     59  CD2       19.2980  380.8400   37.0670 C.3   252  LEU252      0.0001
     60  N         23.0340  380.3160   44.4270 N.3   255  ASN255     -0.1225
     61  CA        21.8730  380.1680   45.3050 C.3   255  ASN255      0.1785
     62  C         20.9930  378.9460   45.0720 C.2   255  ASN255      0.2597
     63  O         20.2530  378.5410   45.9700 O.2   255  ASN255     -0.2718
     64  CB        21.0350  381.4440   45.2590 C.3   255  ASN255      0.1169
     65  CG        21.7040  382.5950   45.9800 C.2   255  ASN255      0.2627
     66  OD1       21.8380  382.5770   47.2030 O.2   255  ASN255     -0.2716
     67  ND2       22.1440  383.5950   45.2260 N.am  255  ASN255     -0.0877
     68  N         21.0800  378.3570   43.8800 N.am  256  MET256     -0.1979
     69  CA        20.2410  377.2090   43.5180 C.3   256  MET256      0.1605
     70  C         20.9510  375.8550   43.5930 C.2   256  MET256      0.2287
     71  O         20.2920  374.8220   43.7440 O.2   256  MET256     -0.2864
     72  CB        19.6310  377.4010   42.1270 C.3   256  MET256      0.0413
     73  CG        18.5110  378.4290   42.0480 C.3   256  MET256      0.0598
     74  SD        17.0170  377.9570   42.9380 S.3   256  MET256     -0.1393
     75  CE        16.3330  376.6920   41.8690 C.3   256  MET256      0.0692
     76  N         16.2640  373.7270   46.8090 N.3   311  THR311     -0.1203
     77  CA        16.0630  375.1740   46.6770 C.3   311  THR311      0.1994
     78  C         14.9090  375.4470   45.7080 C.2   311  THR311      0.2618
     79  O         14.6480  374.6420   44.8070 O.2   311  THR311     -0.2717
     80  CB        17.3140  375.9000   46.1340 C.3   311  THR311      0.1784
     81  OG1       17.7590  375.2570   44.9320 O.3   311  THR311     -0.2211
     82  CG2       18.4450  375.9280   47.1550 C.3   311  THR311      0.0376
     83  N         14.2240  376.5780   45.8990 N.am  312  VAL312     -0.1965
     84  CA        13.1260  377.0120   45.0220 C.3   312  VAL312      0.1727
     85  C         13.3080  378.4960   44.6670 C.2   312  VAL312      0.2616
     86  O         13.6630  379.3060   45.5290 O.2   312  VAL312     -0.2715
     87  CB        11.7310  376.7840   45.6740 C.3   312  VAL312      0.0290
     88  CG1       10.5980  377.2250   44.7520 C.3   312  VAL312      0.0023
     89  CG2       11.5230  375.3270   46.0670 C.3   312  VAL312      0.0023
     90  N         13.0870  378.8350   43.3980 N.am  313  ALA313     -0.1963
     91  CA        13.0060  380.2250   42.9570 C.3   313  ALA313      0.1728
     92  C         11.6850  380.4480   42.2290 C.2   313  ALA313      0.2616
     93  O         11.3430  379.7050   41.2990 O.2   313  ALA313     -0.2715
     94  CB        14.1830  380.5860   42.0710 C.3   313  ALA313      0.0334
     95  N         10.9480  381.4680   42.6730 N.am  314  ALA314     -0.1963
     96  CA         9.5900  381.7500   42.1960 C.3   314  ALA314      0.1728
     97  C          9.4780  383.1770   41.6830 C.2   314  ALA314      0.2616
     98  O          9.8560  384.1290   42.3670 O.2   314  ALA314     -0.2715
     99  CB         8.5740  381.4970   43.3050 C.3   314  ALA314      0.0334
    100  N          8.9630  383.3210   40.4710 N.am  315  ILE315     -0.1977
    101  CA         8.8360  384.6390   39.8530 C.3   315  ILE315      0.1596
    102  C          7.3890  384.9070   39.4410 C.2   315  ILE315      0.2287
    103  O          6.8200  384.1770   38.6200 O.2   315  ILE315     -0.2864
    104  CB         9.8810  384.8800   38.7120 C.3   315  ILE315      0.0276
    105  CG1        9.4640  386.0180   37.7610 C.3   315  ILE315      0.0022
    106  CG2       10.1560  383.6170   37.9110 C.3   315  ILE315      0.0022
    107  CD1        9.7910  387.4150   38.2540 C.3   315  ILE315      0.0001
    108  N         15.4040  378.8450   54.7300 N.3   346  ASN346     -0.1225
    109  CA        14.8100  379.8510   53.8350 C.3   346  ASN346      0.1785
    110  C         15.1650  379.6180   52.3680 C.2   346  ASN346      0.2597
    111  O         15.6000  380.5260   51.6580 O.2   346  ASN346     -0.2718
    112  CB        15.1420  381.2760   54.3160 C.3   346  ASN346      0.1169
    113  CG        15.0010  381.4230   55.8250 C.2   346  ASN346      0.2627
    114  OD1       15.9940  381.5580   56.5440 O.2   346  ASN346     -0.2716
    115  ND2       13.7640  381.3630   56.3150 N.am  346  ASN346     -0.0877
    116  N         14.9540  378.3770   51.9350 N.am  347  ASN347     -0.1974
    117  CA        15.3610  377.9060   50.6120 C.3   347  ASN347      0.1688
    118  C         14.4080  378.2700   49.4710 C.2   347  ASN347      0.2292
    119  O         14.5910  377.8100   48.3440 O.2   347  ASN347     -0.2864
    120  CB        15.6260  376.3930   50.6500 C.3   347  ASN347      0.1181
    121  CG        14.3840  375.5710   50.9730 C.2   347  ASN347      0.2629
    122  OD1       13.3760  376.0870   51.4650 O.2   347  ASN347     -0.2716
    123  ND2       14.4630  374.2710   50.7070 N.am  347  ASN347     -0.0877
    124  N         12.9050  381.5340   47.4580 N.3   349  LYS349     -0.1231
    125  CA        12.9810  382.9660   47.1730 C.3   349  LYS349      0.1693
    126  C         12.0370  383.3930   46.0590 C.2   349  LYS349      0.2593
    127  O         11.8160  382.6610   45.0860 O.2   349  LYS349     -0.2718
    128  CB        14.4160  383.4210   46.8830 C.3   349  LYS349      0.0285
    129  CG        15.0340  384.2500   48.0050 C.3   349  LYS349      0.0035
    130  CD        15.7320  383.3910   49.0600 C.3   349  LYS349      0.0206
    131  CE        15.1550  383.6060   50.4570 C.3   349  LYS349      0.1093
    132  NZ        15.1530  385.0230   50.9140 N.3   349  LYS349     -0.1314
    133  N         11.5010  384.6000   46.2240 N.am  350  THR350     -0.1939
    134  CA        10.4000  385.1040   45.4230 C.3   350  THR350      0.2028
    135  C         10.7560  386.4720   44.8570 C.2   350  THR350      0.2642
    136  O         11.3100  387.3170   45.5610 O.2   350  THR350     -0.2714
    137  CB         9.1130  385.2050   46.2710 C.3   350  THR350      0.1808
    138  OG1        8.9520  384.0150   47.0600 O.3   350  THR350     -0.2208
    139  CG2        7.8920  385.3830   45.3890 C.3   350  THR350      0.0379
    140  N         10.4420  386.6700   43.5810 N.am  351  ALA351     -0.1977
    141  CA        10.6200  387.9540   42.9180 C.3   351  ALA351      0.1597
    142  C          9.3550  388.3420   42.1640 C.2   351  ALA351      0.2287
    143  O          8.5780  387.4750   41.7480 O.2   351  ALA351     -0.2864
    144  CB        11.8080  387.9020   41.9770 C.3   351  ALA351      0.0319
    145  N         11.0200  377.6990   39.4050 N.3   367  ILE367     -0.1245
    146  CA        12.3120  377.0280   39.1740 C.3   367  ILE367      0.1561
    147  C         12.6560  376.2260   40.4280 C.2   367  ILE367      0.2260
    148  O         12.9760  376.8060   41.4720 O.2   367  ILE367     -0.2867
    149  CB        13.4640  378.0100   38.8220 C.3   367  ILE367      0.0252
    150  CG1       13.0980  378.8820   37.6210 C.3   367  ILE367      0.0019
    151  CG2       14.7450  377.2470   38.5090 C.3   367  ILE367      0.0019
    152  CD1       13.8880  380.1730   37.5020 C.3   367  ILE367      0.0001
@<TRIPOS>BOND
     1     7     5    1
     2    20    19    1
     3    17    16    2
     4    16    15    1
     5    18    19    1
     6    18    15    1
     7     1     2    1
     8     5     2    1
     9     5     6    1
    10     3     2    1
    11     3     4    2
    12    19    21    1
    13    15    14    1
    14    14    10   am
    15     8     9    1
    16    10     9    1
    17    10    11    2
    18     9    12    1
    19    33    32    2
    20    36    39    1
    21    36    37    1
    22    36    35    1
    23    39    40    1
    24    37    38    2
    25    59    57    1
    26    41    40   ar
    27   152   150    1
    28   150   149    1
    29   105   107    1
    30   105   104    1
    31    12    13    1
    32    32    35   am
    33    32    31    1
    34   106   104    1
    35    40    42   ar
    36   151   149    1
    37    57    56    1
    38    57    58    1
    39   103   102    2
    40   104   101    1
    41   149   146    1
    42    56    53    1
    43    31    34    1
    44    31    30    1
    45   146   145    1
    46   146   147    1
    47   102   101    1
    48   101   100    1
    49    43    44    1
    50    53    52    1
    51    53    54    1
    52    52    45   am
    53   147   148    2
    54   100    97   am
    55    54    55    2
    56    25    24    2
    57    93    92    2
    58    44    45    1
    59    44    47    1
    60    45    46    2
    61    47    48    1
    62    24    23    1
    63    97    96    1
    64    97    98    2
    65   143   142    2
    66    75    74    1
    67   144   141    1
    68    73    72    1
    69    73    74    1
    70    49    48    1
    71    49    50    1
    72    94    91    1
    73    72    69    1
    74   142   141    1
    75    96    95    1
    76    96    99    1
    77    92    95   am
    78    92    91    1
    79    51    50    1
    80    29    27    1
    81   141   140    1
    82    91    90    1
    83    23    26    1
    84    23    22    1
    85    26    27    1
    86    90    85   am
    87    69    70    1
    88    69    68    1
    89   140   135   am
    90    70    71    2
    91    27    28    1
    92    68    62   am
    93    60    61    1
    94    85    84    1
    95    85    86    2
    96    88    87    1
    97    79    78    2
    98   135   134    1
    99   135   136    2
   100    81    80    1
   101    84    87    1
   102    84    83    1
   103    62    61    1
   104    62    63    2
   105   127   126    2
   106    67    65   am
   107    64    61    1
   108    64    65    1
   109   139   137    1
   110   134   133    1
   111   134   137    1
   112    87    89    1
   113    78    83   am
   114    78    77    1
   115    65    66    2
   116   126   133   am
   117   126   125    1
   118    80    77    1
   119    80    82    1
   120   137   138    1
   121    77    76    1
   122   128   125    1
   123   128   129    1
   124   125   124    1
   125   129   130    1
   126   119   118    2
   127   130   131    1
   128   118   117    1
   129   131   132    1
   130   117   120    1
   131   117   116    1
   132   120   121    1
   133   123   121   am
   134   121   122    2
   135   111   110    2
   136   116   110   am
   137   110   109    1
   138   109   112    1
   139   109   108    1
   140   112   113    1
   141   113   115   am
   142   113   114    2
