@<TRIPOS>MOLECULE
tmp/5xkgB02.pdb
 145 134 0 0 0
SMALL
GASTEIGER

@<TRIPOS>ATOM
      1  N        116.5050  379.5380   33.2000 N.3   236  VAL236     -0.1245
      2  CA       117.7100  379.2620   33.9960 C.3   236  VAL236      0.1561
      3  C        118.8170  380.3200   33.8030 C.2   236  VAL236      0.2260
      4  O        119.6870  380.4360   34.6410 O.2   236  VAL236     -0.2867
      5  CB       118.2840  377.8080   33.8200 C.3   236  VAL236      0.0252
      6  CG1      117.2290  376.7380   34.1190 C.3   236  VAL236      0.0019
      7  CG2      118.9050  377.6120   32.4450 C.3   236  VAL236      0.0019
      8  N        119.0110  385.1490   35.6720 N.3   239  CYS239     -0.1221
      9  CA       119.9030  385.8450   36.5890 C.3   239  CYS239      0.1808
     10  C        121.2750  386.1760   36.0110 C.2   239  CYS239      0.2601
     11  O        122.0230  386.9590   36.6030 O.2   239  CYS239     -0.2717
     12  CB       120.0690  385.0340   37.8560 C.3   239  CYS239      0.0970
     13  SG       118.5550  384.9790   38.8290 S.3   239  CYS239     -0.0800
     14  N        121.6170  385.5750   34.8730 N.am  240  LEU240     -0.1979
     15  CA       122.8520  385.9360   34.1750 C.3   240  LEU240      0.1596
     16  C        122.6040  387.1470   33.2860 C.2   240  LEU240      0.2287
     17  O        123.5100  387.9430   33.0590 O.2   240  LEU240     -0.2864
     18  CB       123.3880  384.7580   33.3240 C.3   240  LEU240      0.0297
     19  CG       123.5040  383.3580   33.9300 C.3   240  LEU240      0.0022
     20  CD1      123.9240  382.3410   32.8610 C.3   240  LEU240      0.0001
     21  CD2      124.4720  383.3590   35.1010 C.3   240  LEU240      0.0001
     22  N        121.0560  389.8070   42.9990 N.3   246  LEU246     -0.1245
     23  CA       122.1470  388.8240   42.8750 C.3   246  LEU246      0.1561
     24  C        123.3460  389.1480   41.9790 C.2   246  LEU246      0.2260
     25  O        124.4650  388.8390   42.3620 O.2   246  LEU246     -0.2867
     26  CB       121.6110  387.4530   42.4830 C.3   246  LEU246      0.0270
     27  CG       121.3100  386.4320   43.5790 C.3   246  LEU246      0.0019
     28  CD1      120.6200  385.2760   42.8890 C.3   246  LEU246      0.0001
     29  CD2      122.5430  385.9280   44.3040 C.3   246  LEU246      0.0001
     30  N        124.2300  387.5680   39.3070 N.3   248  ALA248     -0.1231
     31  CA       124.7710  386.2180   39.1790 C.3   248  ALA248      0.1694
     32  C        125.7130  386.0690   37.9820 C.2   248  ALA248      0.2592
     33  O        125.6770  386.8490   37.0210 O.2   248  ALA248     -0.2718
     34  CB       123.6410  385.2060   39.1100 C.3   248  ALA248      0.0304
     35  N        126.5810  385.0770   38.0640 N.am  249  ASP249     -0.1974
     36  CA       127.3730  384.6390   36.9040 C.3   249  ASP249      0.1709
     37  C        127.5600  383.1260   36.9790 C.2   249  ASP249      0.2293
     38  O        127.1490  382.4870   37.9600 O.2   249  ASP249     -0.2864
     39  CB       128.7210  385.3980   36.7910 C.3   249  ASP249      0.1436
     40  CG       129.6170  385.2210   38.0010 C.2   249  ASP249      0.3671
     41  OD1      130.1940  386.2440   38.4350 O.co2 249  ASP249     -0.2456
     42  OD2      129.7630  384.1040   38.5510 O.co2 249  ASP249     -0.2456
     43  N        129.6290  381.8350   40.2290 N.3   252  LYS252     -0.1231
     44  CA       128.8290  381.9020   41.4640 C.3   252  LYS252      0.1693
     45  C        127.7200  380.8370   41.4440 C.2   252  LYS252      0.2591
     46  O        127.4210  380.2210   42.4770 O.2   252  LYS252     -0.2718
     47  CB       128.3210  383.3470   41.7370 C.3   252  LYS252      0.0285
     48  CG       129.4250  384.2740   42.3010 C.3   252  LYS252      0.0035
     49  CD       128.9670  385.6920   42.6910 C.3   252  LYS252      0.0206
     50  CE       128.6010  386.5640   41.4930 C.3   252  LYS252      0.1093
     51  NZ       128.3910  388.0200   41.7840 N.3   252  LYS252     -0.1314
     52  N        127.1450  380.5740   40.2660 N.am  253  LEU253     -0.1980
     53  CA       126.2010  379.4160   40.1270 C.3   253  LEU253      0.1596
     54  C        126.8800  378.1150   40.5540 C.2   253  LEU253      0.2287
     55  O        126.3330  377.3450   41.3700 O.2   253  LEU253     -0.2864
     56  CB       125.6280  379.3150   38.7000 C.3   253  LEU253      0.0297
     57  CG       124.5900  378.1980   38.4340 C.3   253  LEU253      0.0022
     58  CD1      123.2970  378.3440   39.2260 C.3   253  LEU253      0.0001
     59  CD2      124.2970  378.0930   36.9380 C.3   253  LEU253      0.0001
     60  N        127.8550  377.8760   44.4280 N.3   256  ASN256     -0.1225
     61  CA       126.7010  377.7400   45.3380 C.3   256  ASN256      0.1785
     62  C        125.8540  376.4970   45.1110 C.2   256  ASN256      0.2597
     63  O        125.1160  376.0770   46.0180 O.2   256  ASN256     -0.2718
     64  CB       125.8770  379.0530   45.3030 C.3   256  ASN256      0.1169
     65  CG       126.6530  380.2080   45.9550 C.2   256  ASN256      0.2627
     66  OD1      126.9170  380.1370   47.1370 O.2   256  ASN256     -0.2716
     67  ND2      127.1030  381.1970   45.1760 N.am  256  ASN256     -0.0877
     68  N        125.9720  375.9000   43.9110 N.am  257  MET257     -0.1979
     69  CA       125.1230  374.7520   43.5500 C.3   257  MET257      0.1605
     70  C        125.8160  373.4040   43.6830 C.2   257  MET257      0.2287
     71  O        125.1320  372.3820   43.7990 O.2   257  MET257     -0.2864
     72  CB       124.5310  374.9190   42.1370 C.3   257  MET257      0.0413
     73  CG       123.4260  375.9940   42.0460 C.3   257  MET257      0.0598
     74  SD       121.9380  375.5750   42.9850 S.3   257  MET257     -0.1393
     75  CE       121.2320  374.2560   41.9690 C.3   257  MET257      0.0692
     76  N        121.0330  371.2110   46.7990 N.3   312  THR312     -0.1203
     77  CA       120.9110  372.6620   46.6050 C.3   312  THR312      0.1994
     78  C        119.7880  372.8920   45.6010 C.2   312  THR312      0.2618
     79  O        119.5340  372.0170   44.7460 O.2   312  THR312     -0.2717
     80  CB       122.1970  373.2740   45.9740 C.3   312  THR312      0.1784
     81  OG1      122.5590  372.4920   44.8180 O.3   312  THR312     -0.2211
     82  CG2      123.3890  373.2920   46.9460 C.3   312  THR312      0.0376
     83  N        119.1600  374.0810   45.6760 N.am  313  VAL313     -0.1965
     84  CA       118.1130  374.5110   44.7590 C.3   313  VAL313      0.1727
     85  C        118.2510  375.9930   44.4880 C.2   313  VAL313      0.2616
     86  O        118.4270  376.7780   45.4370 O.2   313  VAL313     -0.2715
     87  CB       116.6850  374.2930   45.3400 C.3   313  VAL313      0.0290
     88  CG1      115.6160  374.8390   44.3860 C.3   313  VAL313      0.0023
     89  CG2      116.4120  372.8360   45.6520 C.3   313  VAL313      0.0023
     90  N        118.1910  376.3720   43.2120 N.am  314  ALA314     -0.1963
     91  CA       118.0100  377.7670   42.7990 C.3   314  ALA314      0.1728
     92  C        116.6360  377.9060   42.1180 C.2   314  ALA314      0.2616
     93  O        116.2920  377.0900   41.2590 O.2   314  ALA314     -0.2715
     94  CB       119.1290  378.2070   41.8580 C.3   314  ALA314      0.0334
     95  N        115.8640  378.9250   42.5210 N.am  315  ALA315     -0.1963
     96  CA       114.4650  379.1930   42.0650 C.3   315  ALA315      0.1728
     97  C        114.3770  380.6240   41.5860 C.2   315  ALA315      0.2616
     98  O        114.8390  381.5460   42.2650 O.2   315  ALA315     -0.2715
     99  CB       113.4800  378.9510   43.2020 C.3   315  ALA315      0.0334
    100  N        113.8610  380.8100   40.3830 N.am  316  ILE316     -0.1977
    101  CA       113.7540  382.1330   39.8000 C.3   316  ILE316      0.1596
    102  C        112.2850  382.3810   39.5620 C.2   316  ILE316      0.2287
    103  O        111.6210  381.5760   38.9000 O.2   316  ILE316     -0.2864
    104  CB       114.4680  382.2580   38.4320 C.3   316  ILE316      0.0276
    105  CG1      115.9290  381.8480   38.5280 C.3   316  ILE316      0.0022
    106  CG2      114.4410  383.7020   37.9570 C.3   316  ILE316      0.0022
    107  CD1      116.2160  380.3960   38.1840 C.3   316  ILE316      0.0001
    108  N        120.3490  376.3280   54.7010 N.3   347  ASN347     -0.1225
    109  CA       119.8090  377.3550   53.8260 C.3   347  ASN347      0.1785
    110  C        120.1640  377.0490   52.3590 C.2   347  ASN347      0.2597
    111  O        120.6090  377.9040   51.5970 O.2   347  ASN347     -0.2718
    112  CB       120.2440  378.7660   54.3310 C.3   347  ASN347      0.1169
    113  CG       120.1140  378.8930   55.8750 C.2   347  ASN347      0.2627
    114  OD1      121.1180  379.0040   56.5880 O.2   347  ASN347     -0.2716
    115  ND2      118.8720  378.8210   56.3950 N.am  347  ASN347     -0.0877
    116  N        119.9220  375.8030   51.9660 N.am  348  ASN348     -0.1974
    117  CA       120.3690  375.3250   50.6560 C.3   348  ASN348      0.1688
    118  C        119.4120  375.6480   49.5090 C.2   348  ASN348      0.2292
    119  O        119.5700  375.0950   48.4040 O.2   348  ASN348     -0.2864
    120  CB       120.7120  373.8320   50.7270 C.3   348  ASN348      0.1181
    121  CG       119.4940  372.9340   50.9870 C.2   348  ASN348      0.2629
    122  OD1      118.4430  373.3800   51.4540 O.2   348  ASN348     -0.2716
    123  ND2      119.6450  371.6530   50.6820 N.am  348  ASN348     -0.0877
    124  N        117.7650  378.9110   47.4070 N.3   350  LYS350     -0.1245
    125  CA       117.9090  380.3120   47.1500 C.3   350  LYS350      0.1561
    126  C        116.9370  380.7880   46.0700 C.2   350  LYS350      0.2260
    127  O        116.8100  380.1520   45.0060 O.2   350  LYS350     -0.2867
    128  CB       119.3730  380.6130   46.7790 C.3   350  LYS350      0.0271
    129  CG       119.6930  382.0600   46.4270 C.3   350  LYS350      0.0035
    130  CD       119.4870  383.0230   47.5920 C.3   350  LYS350      0.0206
    131  CE       119.8430  384.4190   47.0990 C.3   350  LYS350      0.1093
    132  NZ       119.2450  385.5340   47.8810 N.3   350  LYS350     -0.1314
    133  N        115.3890  384.0270   43.5740 N.3   352  ALA352     -0.1245
    134  CA       115.6480  385.2890   42.9340 C.3   352  ALA352      0.1562
    135  C        114.3890  385.6880   42.1840 C.2   352  ALA352      0.2260
    136  O        113.6000  384.8240   41.7850 O.2   352  ALA352     -0.2867
    137  CB       116.8200  385.1690   41.9780 C.3   352  ALA352      0.0290
    138  N        115.9390  375.1000   39.3390 N.3   368  ILE368     -0.1245
    139  CA       117.2470  374.4190   39.1290 C.3   368  ILE368      0.1561
    140  C        117.5830  373.6040   40.3650 C.2   368  ILE368      0.2260
    141  O        117.9750  374.1720   41.3950 O.2   368  ILE368     -0.2867
    142  CB       118.4080  375.4080   38.8950 C.3   368  ILE368      0.0252
    143  CG1      118.0420  376.3880   37.8000 C.3   368  ILE368      0.0019
    144  CG2      119.7300  374.6580   38.5420 C.3   368  ILE368      0.0019
    145  CD1      119.0990  377.4360   37.5920 C.3   368  ILE368      0.0001
@<TRIPOS>BOND
     1     7     5    1
     2    20    19    1
     3    17    16    2
     4     1     2    1
     5    16    15    1
     6    18    19    1
     7    18    15    1
     8     3     2    1
     9     3     4    2
    10     5     2    1
    11     5     6    1
    12    19    21    1
    13    15    14    1
    14    14    10   am
    15     8     9    1
    16    10     9    1
    17    10    11    2
    18     9    12    1
    19    39    36    1
    20    39    40    1
    21    36    37    1
    22    36    35    1
    23    59    57    1
    24    37    38    2
    25    33    32    2
    26   145   143    1
    27   143   142    1
    28    12    13    1
    29   106   104    1
    30    32    35   am
    31    32    31    1
    32    40    41   ar
    33    40    42   ar
    34   107   105    1
    35   104   105    1
    36   104   101    1
    37    57    56    1
    38    57    58    1
    39   144   142    1
    40    56    53    1
    41   142   139    1
    42   103   102    2
    43    34    31    1
    44   139   138    1
    45   139   140    1
    46    31    30    1
    47   102   101    1
    48   101   100    1
    49    53    52    1
    50    53    54    1
    51    43    44    1
    52    52    45   am
    53   140   141    2
    54   100    97   am
    55    54    55    2
    56    93    92    2
    57    45    44    1
    58    45    46    2
    59    44    47    1
    60    50    51    1
    61    50    49    1
    62    97    96    1
    63    97    98    2
    64    47    48    1
    65   136   135    2
    66    94    91    1
    67    75    74    1
    68   137   134    1
    69    24    25    2
    70    24    23    1
    71    73    72    1
    72    73    74    1
    73    96    95    1
    74    96    99    1
    75    92    95   am
    76    92    91    1
    77    72    69    1
    78   135   134    1
    79    48    49    1
    80    26    23    1
    81    26    27    1
    82    91    90    1
    83    23    22    1
    84    28    27    1
    85   134   133    1
    86    90    85   am
    87    69    70    1
    88    69    68    1
    89    27    29    1
    90    70    71    2
    91    68    62   am
    92    88    87    1
    93    60    61    1
    94    85    84    1
    95    85    86    2
    96    79    78    2
    97    84    87    1
    98    84    83    1
    99    81    80    1
   100   127   126    2
   101    62    61    1
   102    62    63    2
   103    67    65   am
   104    64    61    1
   105    64    65    1
   106    87    89    1
   107    78    83   am
   108    78    77    1
   109    65    66    2
   110    80    77    1
   111    80    82    1
   112   126   125    1
   113   129   128    1
   114   129   130    1
   115    77    76    1
   116   128   125    1
   117   131   130    1
   118   131   132    1
   119   125   124    1
   120   119   118    2
   121   118   117    1
   122   117   120    1
   123   117   116    1
   124   123   121   am
   125   120   121    1
   126   121   122    2
   127   111   110    2
   128   116   110   am
   129   110   109    1
   130   109   112    1
   131   109   108    1
   132   112   113    1
   133   113   115   am
   134   113   114    2
