@<TRIPOS>MOLECULE
tmp/5xkmF00.pdb
 180 171 0 0 0
SMALL
GASTEIGER

@<TRIPOS>ATOM
      1  N        -41.9390   10.5310  -14.3870 N.3    71  TYR71      -0.1227
      2  CA       -41.0080   10.7870  -15.4840 C.3    71  TYR71       0.1736
      3  C        -41.2560    9.9540  -16.7450 C.2    71  TYR71       0.2595
      4  O        -41.3390   10.5010  -17.8420 O.2    71  TYR71      -0.2718
      5  CB       -39.5550   10.6260  -15.0200 C.3    71  TYR71       0.0548
      6  CG       -38.5470   10.8980  -16.1130 C.ar   71  TYR71      -0.0200
      7  CD1      -38.3230   12.1990  -16.5680 C.ar   71  TYR71      -0.0009
      8  CD2      -37.8250    9.8590  -16.7000 C.ar   71  TYR71      -0.0009
      9  CE1      -37.4090   12.4580  -17.5750 C.ar   71  TYR71       0.0417
     10  CE2      -36.9050   10.1060  -17.7080 C.ar   71  TYR71       0.0417
     11  CZ       -36.6970   11.4080  -18.1360 C.ar   71  TYR71       0.1957
     12  OH       -35.7850   11.6750  -19.1270 O.3    71  TYR71      -0.2866
     13  N        -41.3630    8.6390  -16.5880 N.am   72  HIS72      -0.1975
     14  CA       -41.4620    7.7340  -17.7360 C.3    72  HIS72       0.1656
     15  C        -42.8790    7.6300  -18.3100 C.2    72  HIS72       0.2291
     16  O        -43.4990    6.5630  -18.3210 O.2    72  HIS72      -0.2864
     17  CB       -40.8700    6.3670  -17.3950 C.3    72  HIS72       0.0771
     18  CG       -39.3810    6.3870  -17.2330 C.ar   72  HIS72       0.0820
     19  ND1      -38.7660    6.3600  -16.0010 N.ar   72  HIS72      -0.2267
     20  CD2      -38.3850    6.4570  -18.1480 C.ar   72  HIS72       0.1154
     21  CE1      -37.4560    6.3970  -16.1630 C.ar   72  HIS72       0.1986
     22  NE2      -37.1980    6.4560  -17.4580 N.ar   72  HIS72      -0.2212
     23  N        -30.3110   -0.8950  -26.1510 N.3   171  ALA171     -0.1231
     24  CA       -29.2090    0.0430  -25.9360 C.3   171  ALA171      0.1694
     25  C        -29.5300    1.1130  -24.8870 C.2   171  ALA171      0.2592
     26  O        -28.6270    1.8060  -24.4130 O.2   171  ALA171     -0.2718
     27  CB       -28.7950    0.6850  -27.2480 C.3   171  ALA171      0.0304
     28  N        -30.8070    1.2410  -24.5190 N.am  172  THR172     -0.1953
     29  CA       -31.2240    2.2220  -23.5060 C.3   172  THR172      0.1897
     30  C        -30.8830    1.7870  -22.0780 C.2   172  THR172      0.2313
     31  O        -30.9600    2.5860  -21.1390 O.2   172  THR172     -0.2863
     32  CB       -32.7280    2.5780  -23.5940 C.3   172  THR172      0.1794
     33  OG1      -33.5240    1.3950  -23.4530 O.3   172  THR172     -0.2208
     34  CG2      -33.0520    3.2600  -24.9170 C.3   172  THR172      0.0378
     35  N        -28.4900    1.2400  -19.2260 N.3   174  LEU174     -0.1245
     36  CA       -27.2110    1.8140  -18.8190 C.3   174  LEU174      0.1561
     37  C        -26.0750    0.7930  -18.8800 C.2   174  LEU174      0.2260
     38  O        -24.9800    1.1110  -19.3440 O.2   174  LEU174     -0.2867
     39  CB       -27.3240    2.4170  -17.4130 C.3   174  LEU174      0.0270
     40  CG       -26.0900    3.0860  -16.7960 C.3   174  LEU174      0.0019
     41  CD1      -25.5290    4.1810  -17.6960 C.3   174  LEU174      0.0001
     42  CD2      -26.4450    3.6400  -15.4250 C.3   174  LEU174      0.0001
     43  N        -24.7820    0.3040  -22.3450 N.3   177  HIS177     -0.1241
     44  CA       -23.9510    1.4550  -22.7030 C.3   177  HIS177      0.1621
     45  C        -22.5410    1.3530  -22.1280 C.2   177  HIS177      0.2264
     46  O        -21.5590    1.6850  -22.8000 O.2   177  HIS177     -0.2867
     47  CB       -24.6130    2.7620  -22.2540 C.3   177  HIS177      0.0745
     48  CG       -23.7190    3.9570  -22.3550 C.ar  177  HIS177      0.0817
     49  ND1      -23.3330    4.4980  -23.5630 N.ar  177  HIS177     -0.2268
     50  CD2      -23.1270    4.7100  -21.3990 C.ar  177  HIS177      0.1154
     51  CE1      -22.5410    5.5320  -23.3460 C.ar  177  HIS177      0.1986
     52  NE2      -22.4010    5.6830  -22.0420 N.ar  177  HIS177     -0.2212
     53  N        -28.9660    6.6130  -26.7250 N.3   209  THR209     -0.1218
     54  CA       -28.6740    7.0600  -25.3600 C.3   209  THR209      0.1862
     55  C        -28.6370    8.5790  -25.2740 C.2   209  THR209      0.2287
     56  O        -29.0260    9.1510  -24.2550 O.2   209  THR209     -0.2866
     57  CB       -27.3670    6.4680  -24.8010 C.3   209  THR209      0.1770
     58  OG1      -26.2680    6.8280  -25.6480 O.3   209  THR209     -0.2211
     59  CG2      -27.4670    4.9500  -24.6980 C.3   209  THR209      0.0375
     60  N        -32.1930    9.6020  -25.2220 N.3   212  ASP212     -0.1225
     61  CA       -32.7860    9.2150  -23.9410 C.3   212  ASP212      0.1805
     62  C        -32.4450   10.2070  -22.8280 C.2   212  ASP212      0.2597
     63  O        -33.2480   10.4220  -21.9210 O.2   212  ASP212     -0.2718
     64  CB       -32.3300    7.8020  -23.5440 C.3   212  ASP212      0.1424
     65  CG       -33.3390    7.0780  -22.6620 C.2   212  ASP212      0.3668
     66  OD1      -34.4200    7.6350  -22.3730 O.co2 212  ASP212     -0.2456
     67  OD2      -33.0480    5.9340  -22.2570 O.co2 212  ASP212     -0.2456
     68  N        -31.2630   10.8190  -22.9110 N.am  213  LEU213     -0.1979
     69  CA       -30.8090   11.7760  -21.8990 C.3   213  LEU213      0.1596
     70  C        -30.8880   13.2360  -22.3640 C.2   213  LEU213      0.2287
     71  O        -30.2800   14.1270  -21.7560 O.2   213  LEU213     -0.2864
     72  CB       -29.3780   11.4380  -21.4530 C.3   213  LEU213      0.0297
     73  CG       -29.1300   10.0180  -20.9270 C.3   213  LEU213      0.0022
     74  CD1      -27.6760    9.8500  -20.5380 C.3   213  LEU213      0.0001
     75  CD2      -30.0440    9.6710  -19.7540 C.3   213  LEU213      0.0001
     76  N        -31.0550   16.9200  -20.6250 N.3   216  GLN216     -0.1245
     77  CA       -29.8710   17.5370  -20.0330 C.3   216  GLN216      0.1566
     78  C        -29.1630   18.5020  -20.9840 C.2   216  GLN216      0.2260
     79  O        -28.2220   19.1890  -20.5860 O.2   216  GLN216     -0.2867
     80  CB       -28.8890   16.4550  -19.5570 C.3   216  GLN216      0.0367
     81  CG       -29.5030   15.3680  -18.6830 C.3   216  GLN216      0.0905
     82  CD       -30.2450   15.9150  -17.4770 C.2   216  GLN216      0.2608
     83  OE1      -29.7980   16.8670  -16.8340 O.2   216  GLN216     -0.2717
     84  NE2      -31.3870   15.3100  -17.1630 N.am  216  GLN216     -0.0878
     85  N        -36.9320   18.0590  -14.8000 N.3   226  ILE226     -0.1231
     86  CA       -36.7480   16.6310  -15.0600 C.3   226  ILE226      0.1692
     87  C        -36.1830   15.9130  -13.8340 C.2   226  ILE226      0.2591
     88  O        -36.5920   14.7890  -13.5230 O.2   226  ILE226     -0.2718
     89  CB       -35.8780   16.4040  -16.3180 C.3   226  ILE226      0.0266
     90  CG1      -36.6510   16.8140  -17.5790 C.3   226  ILE226      0.0019
     91  CG2      -35.3830   14.9680  -16.4290 C.3   226  ILE226      0.0020
     92  CD1      -38.1150   16.4330  -17.5880 C.3   226  ILE226      0.0001
     93  N        -35.2650   16.5800  -13.1350 N.am  227  ALA227     -0.1980
     94  CA       -34.7250   16.0850  -11.8670 C.3   227  ALA227      0.1597
     95  C        -35.8200   15.8730  -10.8200 C.2   227  ALA227      0.2287
     96  O        -35.8570   14.8260  -10.1680 O.2   227  ALA227     -0.2864
     97  CB       -33.6510   17.0210  -11.3370 C.3   227  ALA227      0.0319
     98  N        -37.7370   12.7570  -11.9110 N.3   230  ILE230     -0.1231
     99  CA       -36.9420   11.5390  -11.7370 C.3   230  ILE230      0.1692
    100  C        -36.8230   11.1250  -10.2720 C.2   230  ILE230      0.2592
    101  O        -37.0330    9.9580   -9.9390 O.2   230  ILE230     -0.2718
    102  CB       -35.5760   11.6320  -12.4620 C.3   230  ILE230      0.0266
    103  CG1      -35.6880   10.9450  -13.8210 C.3   230  ILE230      0.0019
    104  CG2      -34.4530   10.9760  -11.6650 C.3   230  ILE230      0.0020
    105  CD1      -35.0090   11.6850  -14.9460 C.3   230  ILE230      0.0001
    106  N        -36.5120   12.0810   -9.4020 N.am  231  TYR231     -0.1976
    107  CA       -36.3710   11.7830   -7.9820 C.3   231  TYR231      0.1639
    108  C        -37.7180   11.4400   -7.3530 C.2   231  TYR231      0.2290
    109  O        -37.8020   10.5170   -6.5440 O.2   231  TYR231     -0.2864
    110  CB       -35.6550   12.9160   -7.2400 C.3   231  TYR231      0.0560
    111  CG       -34.2070   13.0510   -7.6510 C.ar  231  TYR231     -0.0198
    112  CD1      -33.3040   12.0010   -7.4580 C.ar  231  TYR231     -0.0009
    113  CD2      -33.7400   14.2170   -8.2480 C.ar  231  TYR231     -0.0009
    114  CE1      -31.9790   12.1170   -7.8460 C.ar  231  TYR231      0.0417
    115  CE2      -32.4170   14.3430   -8.6330 C.ar  231  TYR231      0.0417
    116  CZ       -31.5410   13.2930   -8.4300 C.ar  231  TYR231      0.1957
    117  OH       -30.2250   13.4210   -8.8200 O.3   231  TYR231     -0.2866
    118  N        -38.1030    7.9910   -8.3400 N.3   234  PHE234     -0.1241
    119  CA       -37.1450    7.1150   -7.6610 C.3   234  PHE234      0.1605
    120  C        -37.5590    6.8580   -6.2220 C.2   234  PHE234      0.2264
    121  O        -37.5230    5.7170   -5.7550 O.2   234  PHE234     -0.2867
    122  CB       -35.7270    7.7100   -7.6950 C.3   234  PHE234      0.0534
    123  CG       -35.0040    7.5220   -9.0080 C.ar  234  PHE234     -0.0203
    124  CD1      -35.6400    6.9600  -10.1130 C.ar  234  PHE234     -0.0042
    125  CD2      -33.6860    7.9450   -9.1480 C.ar  234  PHE234     -0.0042
    126  CE1      -34.9700    6.8040  -11.3170 C.ar  234  PHE234     -0.0003
    127  CE2      -33.0130    7.7940  -10.3500 C.ar  234  PHE234     -0.0003
    128  CZ       -33.6540    7.2200  -11.4340 C.ar  234  PHE234     -0.0000
    129  N        -30.0720    5.7300   -3.3920 N.3   251  MET251     -0.1245
    130  CA       -30.6080    6.7590   -4.2790 C.3   251  MET251      0.1570
    131  C        -32.1290    6.6880   -4.4470 C.2   251  MET251      0.2261
    132  O        -32.7370    7.5930   -5.0250 O.2   251  MET251     -0.2867
    133  CB       -29.9040    6.7220   -5.6380 C.3   251  MET251      0.0387
    134  CG       -30.2050    5.5030   -6.4950 C.3   251  MET251      0.0595
    135  SD       -29.4040    5.5590   -8.1150 S.3   251  MET251     -0.1393
    136  CE       -30.0750    7.0670   -8.8080 C.3   251  MET251      0.0692
    137  N        -26.0880   13.0230   -6.1710 N.3   262  LEU262     -0.1231
    138  CA       -26.6460   12.1380   -7.1970 C.3   262  LEU262      0.1693
    139  C        -26.7720   12.7820   -8.5860 C.2   262  LEU262      0.2591
    140  O        -26.4840   12.1270   -9.5920 O.2   262  LEU262     -0.2718
    141  CB       -27.9990   11.5650   -6.7470 C.3   262  LEU262      0.0284
    142  CG       -28.0340   10.6640   -5.5040 C.3   262  LEU262      0.0019
    143  CD1      -29.4770   10.4010   -5.0930 C.3   262  LEU262      0.0001
    144  CD2      -27.2810    9.3520   -5.7160 C.3   262  LEU262      0.0001
    145  N        -27.2060   14.0440   -8.6430 N.am  263  GLN263     -0.1979
    146  CA       -27.3160   14.7730   -9.9170 C.3   263  GLN263      0.1601
    147  C        -25.9630   14.8980  -10.5930 C.2   263  GLN263      0.2287
    148  O        -25.7870   14.4420  -11.7210 O.2   263  GLN263     -0.2864
    149  CB       -27.8890   16.1840   -9.7290 C.3   263  GLN263      0.0394
    150  CG       -29.3620   16.3660  -10.0590 C.3   263  GLN263      0.0908
    151  CD       -29.7910   15.7330  -11.3720 C.2   263  GLN263      0.2608
    152  OE1      -30.6510   14.8610  -11.3810 O.2   263  GLN263     -0.2717
    153  NE2      -29.2020   16.1710  -12.4820 N.am  263  GLN263     -0.0878
    154  N        -24.3720   11.7370  -11.8450 N.3   266  PHE266     -0.1241
    155  CA       -25.0510   11.3570  -13.0800 C.3   266  PHE266      0.1605
    156  C        -24.5970   12.2380  -14.2480 C.2   266  PHE266      0.2264
    157  O        -24.2040   11.7270  -15.2910 O.2   266  PHE266     -0.2867
    158  CB       -26.5790   11.3950  -12.9140 C.3   266  PHE266      0.0534
    159  CG       -27.3280   11.3680  -14.2190 C.ar  266  PHE266     -0.0203
    160  CD1      -27.5150   10.1730  -14.9050 C.ar  266  PHE266     -0.0042
    161  CD2      -27.8340   12.5440  -14.7690 C.ar  266  PHE266     -0.0042
    162  CE1      -28.1910   10.1490  -16.1140 C.ar  266  PHE266     -0.0003
    163  CE2      -28.5100   12.5270  -15.9790 C.ar  266  PHE266     -0.0003
    164  CZ       -28.6880   11.3280  -16.6520 C.ar  266  PHE266     -0.0000
    165  N        -22.0460    9.9970  -16.4110 N.3   270  ILE270     -0.1245
    166  CA       -22.9070    9.3150  -17.3810 C.3   270  ILE270      0.1561
    167  C        -23.3120   10.2120  -18.5450 C.2   270  ILE270      0.2260
    168  O        -23.0000    9.9070  -19.6900 O.2   270  ILE270     -0.2867
    169  CB       -24.1420    8.6550  -16.7120 C.3   270  ILE270      0.0252
    170  CG1      -23.6860    7.5520  -15.7460 C.3   270  ILE270      0.0019
    171  CG2      -25.0820    8.0700  -17.7610 C.3   270  ILE270      0.0019
    172  CD1      -24.7740    7.0170  -14.8360 C.3   270  ILE270      0.0001
    173  N        -21.3970   10.8740  -22.7980 N.3   274  ILE274     -0.1245
    174  CA       -22.2340   10.5380  -23.9530 C.3   274  ILE274      0.1561
    175  C        -22.2280   11.6590  -24.9920 C.2   274  ILE274      0.2260
    176  O        -22.0510   11.4010  -26.1840 O.2   274  ILE274     -0.2867
    177  CB       -23.6680   10.1490  -23.5220 C.3   274  ILE274      0.0252
    178  CG1      -23.6680    8.7020  -23.0110 C.3   274  ILE274      0.0019
    179  CG2      -24.6600   10.3190  -24.6670 C.3   274  ILE274      0.0019
    180  CD1      -24.8490    8.3260  -22.1410 C.3   274  ILE274      0.0001
@<TRIPOS>BOND
     1    27    24    1
     2    53    54    1
     3   176   175    2
     4    23    24    1
     5    24    25    1
     6    58    57    1
     7    54    55    1
     8    54    57    1
     9    55    56    2
    10    60    61    1
    11   175   174    1
    12    34    32    1
    13    25    28   am
    14    25    26    2
    15    57    59    1
    16   179   177    1
    17    28    29    1
    18   174   177    1
    19   174   173    1
    20    61    64    1
    21    61    62    1
    22    32    29    1
    23    32    33    1
    24    49    51   ar
    25    49    48   ar
    26    64    65    1
    27   177   178    1
    28    29    30    1
    29    51    52   ar
    30   178   180    1
    31    68    62   am
    32    68    69    1
    33    62    63    2
    34    46    45    2
    35    44    43    1
    36    44    47    1
    37    44    45    1
    38    65    66   ar
    39    65    67   ar
    40    70    69    1
    41    70    71    2
    42    48    47    1
    43    48    50   ar
    44    30    31    2
    45    52    50   ar
    46    69    72    1
    47    72    73    1
    48    78    79    2
    49    78    77    1
    50    73    74    1
    51    73    75    1
    52    76    77    1
    53    77    80    1
    54   168   167    2
    55    80    81    1
    56    38    37    2
    57    35    36    1
    58    12    11    1
    59    37    36    1
    60    36    39    1
    61    81    82    1
    62   167   166    1
    63    16    15    2
    64    15    14    1
    65    20    22   ar
    66    20    18   ar
    67    11    10   ar
    68    11     9   ar
    69     4     3    2
    70   171   169    1
    71    14    17    1
    72    14    13    1
    73    10     8   ar
    74    41    40    1
    75    92    90    1
    76    90    89    1
    77     9     7   ar
    78    82    84   am
    79    82    83    2
    80    22    21   ar
    81    39    40    1
    82    17    18    1
    83   166   169    1
    84   166   165    1
    85    18    19   ar
    86    40    42    1
    87     3    13   am
    88     3     2    1
    89   169   170    1
    90     8     6   ar
    91   164   162   ar
    92   164   163   ar
    93     7     6   ar
    94    91    89    1
    95    89    86    1
    96    21    19   ar
    97   162   160   ar
    98     6     5    1
    99   163   161   ar
   100   170   172    1
   101     2     5    1
   102     2     1    1
   103   157   156    2
   104    86    85    1
   105    86    87    1
   106   105   103    1
   107   160   159   ar
   108   161   159   ar
   109   156   155    1
   110   159   158    1
   111    87    88    2
   112    87    93   am
   113   103   102    1
   114    93    94    1
   115   155   158    1
   116   155   154    1
   117   153   151   am
   118   102    99    1
   119   102   104    1
   120    98    99    1
   121    94    97    1
   122    94    95    1
   123    99   100    1
   124   148   147    2
   125   128   126   ar
   126   128   127   ar
   127   152   151    2
   128   151   150    1
   129   126   124   ar
   130    95    96    2
   131   147   146    1
   132   127   125   ar
   133   100   101    2
   134   100   106   am
   135   124   123   ar
   136   150   149    1
   137   146   149    1
   138   146   145    1
   139   140   139    2
   140   106   107    1
   141   125   123   ar
   142   123   122    1
   143   117   116    1
   144   136   135    1
   145   145   139   am
   146   115   116   ar
   147   115   113   ar
   148   139   138    1
   149   116   114   ar
   150   118   119    1
   151   113   111   ar
   152   135   134    1
   153   107   108    1
   154   107   110    1
   155   114   112   ar
   156   122   119    1
   157   119   120    1
   158   111   112   ar
   159   111   110    1
   160   108   109    2
   161   138   141    1
   162   138   137    1
   163   141   142    1
   164   134   133    1
   165   120   121    2
   166   144   142    1
   167   133   130    1
   168   142   143    1
   169   132   131    2
   170   131   130    1
   171   130   129    1
