@<TRIPOS>MOLECULE
tmp/5xkpB00.pdb
 81 77 0 0 0
SMALL
GASTEIGER

@<TRIPOS>ATOM
      1  N        -24.6710    3.9360  -28.1980 N.3    26  GLU26      -0.1245
      2  CA       -25.4240    3.7660  -29.4520 C.3    26  GLU26       0.1567
      3  C        -26.9280    3.6400  -29.1690 C.2    26  GLU26       0.2260
      4  O        -27.2970    3.0330  -28.1770 O.2    26  GLU26      -0.2867
      5  CB       -24.9390    2.5320  -30.2150 C.3    26  GLU26       0.0388
      6  CG       -23.4540    2.5620  -30.5620 C.3    26  GLU26       0.1160
      7  CD       -23.0270    1.4610  -31.5110 C.2    26  GLU26       0.3649
      8  OE1      -23.8470    0.6140  -31.9510 O.co2  26  GLU26      -0.2457
      9  OE2      -21.8140    1.4080  -31.7440 O.co2  26  GLU26      -0.2457
     10  N        -29.8960    2.0950  -28.9650 N.3    28  PHE28      -0.1241
     11  CA       -30.6270    0.8280  -28.9950 C.3    28  PHE28       0.1605
     12  C        -31.2690    0.5880  -27.6430 C.2    28  PHE28       0.2264
     13  O        -30.5960    0.6510  -26.5990 O.2    28  PHE28      -0.2867
     14  CB       -29.7120   -0.3530  -29.3340 C.3    28  PHE28       0.0534
     15  CG       -29.0880   -0.2770  -30.7140 C.ar   28  PHE28      -0.0203
     16  CD1      -27.8710    0.3810  -30.9470 C.ar   28  PHE28      -0.0042
     17  CD2      -29.7250   -0.8600  -31.7910 C.ar   28  PHE28      -0.0042
     18  CE1      -27.3150    0.4160  -32.2290 C.ar   28  PHE28      -0.0003
     19  CE2      -29.1860   -0.8030  -33.0710 C.ar   28  PHE28      -0.0003
     20  CZ       -27.9800   -0.1810  -33.2970 C.ar   28  PHE28      -0.0000
     21  N        -28.1940   -0.0490  -24.7880 N.3    45  ASN45      -0.1240
     22  CA       -26.7930   -0.2490  -25.2030 C.3    45  ASN45       0.1653
     23  C        -25.7890    0.3570  -24.2130 C.2    45  ASN45       0.2266
     24  O        -26.0590    1.4060  -23.6380 O.2    45  ASN45      -0.2867
     25  CB       -26.6120    0.3800  -26.5830 C.3    45  ASN45       0.1155
     26  CG       -25.2230    0.1810  -27.1530 C.2    45  ASN45       0.2627
     27  OD1      -24.2980    0.8870  -26.7690 O.2    45  ASN45      -0.2716
     28  ND2      -25.0910   -0.7240  -28.1390 N.am   45  ASN45      -0.0877
     29  N        -25.1130   -5.4420  -25.7870 N.3    55  HIS55      -0.1227
     30  CA       -26.3770   -5.1080  -26.4560 C.3    55  HIS55       0.1737
     31  C        -27.4910   -5.4610  -25.4960 C.2    55  HIS55       0.2438
     32  O        -27.3770   -6.4520  -24.7750 O.2    55  HIS55      -0.2733
     33  CB       -26.5760   -5.8930  -27.7610 C.3    55  HIS55       0.0758
     34  CG       -25.5800   -5.5720  -28.8360 C.ar   55  HIS55       0.0818
     35  ND1      -25.6720   -6.1050  -30.0980 N.ar   55  HIS55      -0.2268
     36  CD2      -24.4950   -4.7650  -28.8540 C.ar   55  HIS55       0.1154
     37  CE1      -24.6680   -5.6720  -30.8400 C.ar   55  HIS55       0.1986
     38  NE2      -23.9370   -4.8570  -30.1050 N.ar   55  HIS55      -0.2212
     39  N        -28.5750   -4.6700  -25.4890 N.am   56  PRO56      -0.2718
     40  CA       -29.6730   -4.9230  -24.5720 C.3    56  PRO56       0.1535
     41  C        -30.4730   -6.1910  -24.8660 C.2    56  PRO56       0.2598
     42  O        -31.0270   -6.7390  -23.9290 O.2    56  PRO56      -0.2715
     43  CB       -30.5900   -3.7280  -24.7880 C.3    56  PRO56       0.0310
     44  CG       -30.3710   -3.3420  -26.2080 C.3    56  PRO56       0.0237
     45  CD       -28.9030   -3.5970  -26.4470 C.3    56  PRO56       0.0939
     46  N        -30.5720   -6.5980  -26.1460 N.am   57  GLU57      -0.1978
     47  CA       -31.2870   -7.8240  -26.5530 C.3    57  GLU57       0.1602
     48  C        -30.5800   -9.0810  -26.0470 C.2    57  GLU57       0.2287
     49  O        -31.2420  -10.0560  -25.6640 O.2    57  GLU57      -0.2864
     50  CB       -31.4640   -7.9390  -28.0770 C.3    57  GLU57       0.0415
     51  CG       -32.0320   -6.7400  -28.8090 C.3    57  GLU57       0.1163
     52  CD       -30.9580   -5.8980  -29.4830 C.2    57  GLU57       0.3649
     53  OE1      -30.1520   -5.3130  -28.7430 O.co2  57  GLU57      -0.2457
     54  OE2      -30.8820   -5.8150  -30.7310 O.co2  57  GLU57      -0.2457
     55  N        -34.3200   -1.3490  -32.6000 N.3    82  GLY82      -0.1210
     56  CA       -33.7860   -1.8770  -33.8510 C.3    82  GLY82       0.1956
     57  C        -33.7110   -3.3870  -33.8400 C.2    82  GLY82       0.2611
     58  O        -33.2710   -3.9880  -32.8390 O.2    82  GLY82      -0.2717
     59  N        -34.1250   -3.9830  -34.9600 N.am   83  GLU83      -0.1979
     60  CA       -34.0130   -5.4200  -35.1940 C.3    83  GLU83       0.1602
     61  C        -32.7220   -6.0020  -34.6320 C.2    83  GLU83       0.2287
     62  O        -31.6470   -5.4760  -34.8760 O.2    83  GLU83      -0.2864
     63  CB       -34.1110   -5.7320  -36.6960 C.3    83  GLU83       0.0415
     64  CG       -33.8310   -7.1860  -37.1040 C.3    83  GLU83       0.1163
     65  CD       -34.3460   -7.5080  -38.4970 C.2    83  GLU83       0.3649
     66  OE1      -34.3440   -6.5950  -39.3540 O.co2  83  GLU83      -0.2457
     67  OE2      -34.7180   -8.6620  -38.7550 O.co2  83  GLU83      -0.2457
     68  N        -29.4020   -7.9740  -33.9150 N.3    85  CYS85      -0.1235
     69  CA       -28.3050   -8.3670  -34.7850 C.3    85  CYS85       0.1677
     70  C        -28.1030   -9.8670  -34.6020 C.2    85  CYS85       0.2270
     71  O        -28.5420  -10.4370  -33.5970 O.2    85  CYS85      -0.2867
     72  CB       -27.0410   -7.6050  -34.4550 C.3    85  CYS85       0.0956
     73  SG       -26.2190   -8.2610  -33.0120 S.3    85  CYS85      -0.0801
     74  N        -31.6630    0.0650  -41.3500 N.3   109  LEU109     -0.1245
     75  CA       -30.4610    0.6060  -40.7750 C.3   109  LEU109      0.1561
     76  C        -29.2850    0.5860  -41.7440 C.2   109  LEU109      0.2260
     77  O        -28.5730    1.5750  -41.8770 O.2   109  LEU109     -0.2867
     78  CB       -30.0920   -0.1570  -39.4980 C.3   109  LEU109      0.0270
     79  CG       -28.7950    0.2580  -38.7780 C.3   109  LEU109      0.0019
     80  CD1      -28.6440    1.7720  -38.5770 C.3   109  LEU109      0.0001
     81  CD2      -28.7260   -0.4470  -37.4280 C.3   109  LEU109      0.0001
@<TRIPOS>BOND
     1    77    76    2
     2    76    75    1
     3    74    75    1
     4    75    78    1
     5    78    79    1
     6    66    65   ar
     7    79    80    1
     8    79    81    1
     9    67    65   ar
    10    65    64    1
    11    64    63    1
    12    63    60    1
    13    60    59    1
    14    60    61    1
    15    59    57   am
    16    62    61    2
    17    69    70    1
    18    69    72    1
    19    69    68    1
    20    70    71    2
    21    72    73    1
    22    56    57    1
    23    56    55    1
    24    57    58    2
    25    20    19   ar
    26    20    18   ar
    27    19    17   ar
    28    18    16   ar
    29     8     7   ar
    30    17    15   ar
    31     9     7   ar
    32     7     6    1
    33    16    15   ar
    34    37    38   ar
    35    37    35   ar
    36    54    52   ar
    37    15    14    1
    38     6     5    1
    39     5     2    1
    40    38    36   ar
    41    35    34   ar
    42    52    51    1
    43    52    53   ar
    44     2     3    1
    45     2     1    1
    46    14    11    1
    47     3     4    2
    48    11    10    1
    49    11    12    1
    50    36    34   ar
    51    34    33    1
    52    51    50    1
    53    28    26   am
    54    50    47    1
    55    33    30    1
    56    12    13    2
    57    26    27    2
    58    26    25    1
    59    25    22    1
    60    47    46    1
    61    47    48    1
    62    30    29    1
    63    30    31    1
    64    45    44    1
    65    45    39    1
    66    44    43    1
    67    46    41   am
    68    48    49    2
    69    31    39   am
    70    31    32    2
    71    39    40    1
    72    22    21    1
    73    22    23    1
    74    41    40    1
    75    41    42    2
    76    43    40    1
    77    23    24    2
