@<TRIPOS>MOLECULE
tmp/5xkqD00.pdb
 95 91 0 0 0
SMALL
GASTEIGER

@<TRIPOS>ATOM
      1  N          1.7910   31.9070   32.3850 N.3    26  GLU26      -0.1245
      2  CA         1.0910   33.1710   32.1570 C.3    26  GLU26       0.1567
      3  C         -0.4280   32.9220   32.0640 C.2    26  GLU26       0.2260
      4  O         -0.8450   31.9060   31.5240 O.2    26  GLU26      -0.2867
      5  CB         1.6190   33.8480   30.8860 C.3    26  GLU26       0.0388
      6  CG         3.0920   34.2650   30.9240 C.3    26  GLU26       0.1160
      7  CD         3.5590   34.9470   29.6240 C.2    26  GLU26       0.3649
      8  OE1        3.1170   34.5380   28.5220 O.co2  26  GLU26      -0.2457
      9  OE2        4.3840   35.8870   29.6760 O.co2  26  GLU26      -0.2457
     10  N         -3.3520   32.8470   30.4280 N.3    28  PHE28      -0.1241
     11  CA        -4.0420   32.8530   29.1480 C.3    28  PHE28       0.1605
     12  C         -4.6500   31.4590   28.8830 C.2    28  PHE28       0.2264
     13  O         -3.9660   30.4410   29.0310 O.2    28  PHE28      -0.2867
     14  CB        -3.0740   33.1690   28.0160 C.3    28  PHE28       0.0534
     15  CG        -2.4840   34.5460   28.0670 C.ar   28  PHE28      -0.0203
     16  CD1       -3.1210   35.6150   27.4670 C.ar   28  PHE28      -0.0042
     17  CD2       -1.2510   34.7700   28.6740 C.ar   28  PHE28      -0.0042
     18  CE1       -2.5560   36.8910   27.4750 C.ar   28  PHE28      -0.0003
     19  CE2       -0.6870   36.0290   28.6890 C.ar   28  PHE28      -0.0003
     20  CZ        -1.3340   37.0950   28.0840 C.ar   28  PHE28      -0.0000
     21  N         -1.5290   28.5590   28.4150 N.3    45  ASN45      -0.1240
     22  CA        -0.1400   28.9350   28.2260 C.3    45  ASN45       0.1653
     23  C          0.8410   27.8990   28.8000 C.2    45  ASN45       0.2266
     24  O          0.5470   27.2480   29.8080 O.2    45  ASN45      -0.2867
     25  CB         0.0870   30.2970   28.8840 C.3    45  ASN45       0.1155
     26  CG         1.4830   30.8260   28.6780 C.2    45  ASN45       0.2627
     27  OD1        2.4180   30.4660   29.4120 O.2    45  ASN45      -0.2716
     28  ND2        1.6430   31.7010   27.6830 N.am   45  ASN45      -0.0877
     29  N          1.4400   29.5240   22.8800 N.3    52  HIS52      -0.1227
     30  CA         0.2280   30.2840   23.1640 C.3    52  HIS52       0.1737
     31  C         -0.9150   29.3390   22.8670 C.2    52  HIS52       0.2438
     32  O         -0.9190   28.7050   21.8190 O.2    52  HIS52      -0.2733
     33  CB         0.1400   31.5230   22.2740 C.3    52  HIS52       0.0758
     34  CG         1.1080   32.5970   22.6360 C.ar   52  HIS52       0.0818
     35  ND1        0.9830   33.9100   22.2180 N.ar   52  HIS52      -0.2268
     36  CD2        2.2420   32.5480   23.3580 C.ar   52  HIS52       0.1154
     37  CE1        1.9940   34.6170   22.6780 C.ar   52  HIS52       0.1986
     38  NE2        2.7790   33.8120   23.3630 N.ar   52  HIS52      -0.2212
     39  N         -1.9110   29.2700   23.7500 N.am   53  PRO53      -0.2718
     40  CA        -3.0370   28.3560   23.4780 C.3    53  PRO53       0.1535
     41  C         -3.8160   28.6060   22.1800 C.2    53  PRO53       0.2598
     42  O         -4.3290   27.6580   21.6080 O.2    53  PRO53      -0.2715
     43  CB        -3.9510   28.5270   24.6940 C.3    53  PRO53       0.0310
     44  CG        -3.5940   29.8710   25.2770 C.3    53  PRO53       0.0237
     45  CD        -2.1470   30.1160   24.9260 C.3    53  PRO53       0.0939
     46  N         -3.8710   29.8470   21.7160 N.am   54  GLU54      -0.1978
     47  CA        -4.5590   30.1880   20.4740 C.3    54  GLU54       0.1602
     48  C         -3.8070   29.6010   19.2740 C.2    54  GLU54       0.2287
     49  O         -4.4120   29.1480   18.3200 O.2    54  GLU54      -0.2864
     50  CB        -4.6480   31.7000   20.3110 C.3    54  GLU54       0.0415
     51  CG        -5.3490   32.4310   21.4550 C.3    54  GLU54       0.1163
     52  CD        -4.4060   32.9570   22.5390 C.2    54  GLU54       0.3649
     53  OE1       -3.3350   32.3570   22.7930 O.co2  54  GLU54      -0.2457
     54  OE2       -4.7620   33.9840   23.1480 O.co2  54  GLU54      -0.2457
     55  N         -7.4380   38.6990   24.0430 N.3    80  GLU80      -0.1245
     56  CA        -7.3600   38.8530   22.5820 C.3    80  GLU80       0.1567
     57  C         -6.0460   38.3520   21.9930 C.2    80  GLU80       0.2260
     58  O         -4.9920   38.6360   22.5140 O.2    80  GLU80      -0.2867
     59  CB        -7.5450   40.3230   22.2060 C.3    80  GLU80       0.0388
     60  CG        -7.3050   40.6850   20.7350 C.3    80  GLU80       0.1160
     61  CD        -7.7880   42.0730   20.3810 C.2    80  GLU80       0.3649
     62  OE1       -7.8370   42.9580   21.2670 O.co2  80  GLU80      -0.2457
     63  OE2       -8.1730   42.2750   19.2150 O.co2  80  GLU80      -0.2457
     64  N         -2.6650   37.6920   20.2480 N.3    82  CYS82      -0.1235
     65  CA        -1.5380   38.4970   19.7650 C.3    82  CYS82       0.1677
     66  C         -1.4470   38.3410   18.2510 C.2    82  CYS82       0.2270
     67  O         -2.0860   37.4670   17.6750 O.2    82  CYS82      -0.2867
     68  CB        -0.2310   38.0760   20.4410 C.3    82  CYS82       0.0956
     69  SG         0.5510   36.5610   19.7860 S.3    82  CYS82      -0.0801
     70  N         -5.1450   45.0660   28.1870 N.3   106  LEU106     -0.1245
     71  CA        -3.9500   44.5230   28.7500 C.3   106  LEU106      0.1561
     72  C         -2.7750   45.5150   28.6600 C.2   106  LEU106      0.2260
     73  O         -2.0530   45.7050   29.6400 O.2   106  LEU106     -0.2867
     74  CB        -3.5760   43.2000   28.0570 C.3   106  LEU106      0.0270
     75  CG        -2.2430   42.5610   28.5240 C.3   106  LEU106      0.0019
     76  CD1       -2.2250   42.3200   30.0320 C.3   106  LEU106      0.0001
     77  CD2       -2.0120   41.2600   27.7770 C.3   106  LEU106      0.0001
     78  N          5.4740   44.1150   25.9680 N.3   118  PRO118     -0.2116
     79  CA         5.9710   42.9640   25.2050 C.3   118  PRO118      0.1372
     80  C          6.7080   43.3650   23.9220 C.2   118  PRO118      0.2244
     81  O          6.4700   44.4600   23.3980 O.2   118  PRO118     -0.2868
     82  CB         4.7070   42.1940   24.8580 C.3   118  PRO118      0.0268
     83  CG         3.6010   43.1880   24.9990 C.3   118  PRO118      0.0207
     84  CD         4.0160   44.1150   26.0730 C.3   118  PRO118      0.0892
     85  N          1.8530   39.9240   36.1340 N.3   153  PHE153     -0.1241
     86  CA         2.6130   40.9810   35.4770 C.3   153  PHE153      0.1605
     87  C          2.7810   42.2700   36.2860 C.2   153  PHE153      0.2264
     88  O          3.6590   43.0440   35.9740 O.2   153  PHE153     -0.2867
     89  CB         1.9340   41.3110   34.1410 C.3   153  PHE153      0.0534
     90  CG         1.9010   40.1510   33.1650 C.ar  153  PHE153     -0.0203
     91  CD1        3.0520   39.5150   32.7910 C.ar  153  PHE153     -0.0042
     92  CD2        0.7010   39.7120   32.6280 C.ar  153  PHE153     -0.0042
     93  CE1        3.0240   38.4440   31.9170 C.ar  153  PHE153     -0.0003
     94  CE2        0.6500   38.6570   31.7280 C.ar  153  PHE153     -0.0003
     95  CZ         1.8180   38.0190   31.3700 C.ar  153  PHE153     -0.0000
@<TRIPOS>BOND
     1    67    66    2
     2    66    65    1
     3    49    48    2
     4    63    61   ar
     5    48    47    1
     6    65    64    1
     7    65    68    1
     8    69    68    1
     9    50    47    1
    10    50    51    1
    11    61    60    1
    12    61    62   ar
    13    47    46    1
    14    60    59    1
    15    51    52    1
    16    42    41    2
    17    46    41   am
    18    32    31    2
    19    57    58    2
    20    57    56    1
    21    41    40    1
    22    59    56    1
    23    35    34   ar
    24    35    37   ar
    25    33    34    1
    26    33    30    1
    27    52    53   ar
    28    52    54   ar
    29    56    55    1
    30    34    36   ar
    31    37    38   ar
    32    31    30    1
    33    31    39   am
    34    29    30    1
    35    36    38   ar
    36    81    80    2
    37    40    39    1
    38    40    43    1
    39    39    45    1
    40    80    79    1
    41    43    44    1
    42    82    83    1
    43    82    79    1
    44    45    44    1
    45    83    84    1
    46    79    78    1
    47    78    84    1
    48    16    18   ar
    49    16    15   ar
    50    18    20   ar
    51    28    26   am
    52    77    75    1
    53    14    15    1
    54    14    11    1
    55    74    75    1
    56    74    71    1
    57    15    17   ar
    58    20    19   ar
    59    70    71    1
    60    22    21    1
    61    22    23    1
    62    22    25    1
    63     8     7   ar
    64    75    76    1
    65    72    71    1
    66    72    73    2
    67    17    19   ar
    68    26    25    1
    69    26    27    2
    70    23    24    2
    71    12    13    2
    72    12    11    1
    73    11    10    1
    74     7     9   ar
    75     7     6    1
    76     5     6    1
    77     5     2    1
    78    95    94   ar
    79    95    93   ar
    80     4     3    2
    81    94    92   ar
    82    93    91   ar
    83     3     2    1
    84     2     1    1
    85    92    90   ar
    86    91    90   ar
    87    90    89    1
    88    89    86    1
    89    86    85    1
    90    86    87    1
    91    88    87    2
