@<TRIPOS>MOLECULE
tmp/5xkrA00.pdb
 133 127 0 0 0
SMALL
GASTEIGER

@<TRIPOS>ATOM
      1  N          5.1890   -7.9900   -2.4660 N.3    26  GLU26      -0.1196
      2  CA         5.2840   -6.5720   -2.7540 C.3    26  GLU26       0.1783
      3  C          6.7050   -6.0490   -2.5380 C.2    26  GLU26       0.2306
      4  O          7.4210   -6.4830   -1.6470 O.2    26  GLU26      -0.2863
      5  CB         4.3120   -5.8270   -1.8630 C.2    26  GLU26       0.0071
      6  CG         2.8540   -6.1260   -2.0650 C.2    26  GLU26       0.0834
      7  CD         1.9280   -5.4760   -1.0730 C.2    26  GLU26       0.3877
      8  OE1        2.4330   -5.2070    0.0270 O.co2  26  GLU26      -0.2406
      9  OE2        0.7080   -5.3070   -1.4040 O.co2  26  GLU26      -0.2406
     10  N          9.0830   -4.1770   -1.0950 N.3    28  PHE28      -0.1241
     11  CA         9.5410   -3.4510    0.0910 C.3    28  PHE28       0.1605
     12  C         10.6150   -4.2670    0.7560 C.2    28  PHE28       0.2264
     13  O         10.3300   -5.4230    1.1070 O.2    28  PHE28      -0.2867
     14  CB         8.3800   -3.1490    1.0460 C.3    28  PHE28       0.0534
     15  CG         7.2790   -2.3230    0.4450 C.ar   28  PHE28      -0.0203
     16  CD1        6.2710   -2.8870   -0.2860 C.ar   28  PHE28      -0.0042
     17  CD2        7.2230   -0.9060    0.6360 C.ar   28  PHE28      -0.0042
     18  CE1        5.2610   -2.1280   -0.8350 C.ar   28  PHE28      -0.0003
     19  CE2        6.1680   -0.1610    0.1390 C.ar   28  PHE28      -0.0003
     20  CZ         5.2080   -0.7340   -0.5790 C.ar   28  PHE28      -0.0000
     21  N          8.6940   -7.6740    2.2500 N.3    45  ASN45      -0.1240
     22  CA         7.2720   -7.9260    2.4540 C.3    45  ASN45       0.1653
     23  C          6.9740   -9.4130    2.2410 C.2    45  ASN45       0.2266
     24  O          7.5300  -10.0530    1.3120 O.2    45  ASN45      -0.2867
     25  CB         6.3660   -7.1050    1.5580 C.3    45  ASN45       0.1155
     26  CG         5.8910   -5.8080    2.1780 C.2    45  ASN45       0.2627
     27  OD1        6.6270   -5.2250    2.9610 O.2    45  ASN45      -0.2716
     28  ND2        4.6990   -5.3700    1.8110 N.am   45  ASN45      -0.0877
     29  N          5.1940   -6.7410    7.0710 N.3    55  HIS55      -0.1241
     30  CA         6.1690   -5.7610    6.6080 C.3    55  HIS55       0.1621
     31  C          7.5190   -5.9850    7.2500 C.2    55  HIS55       0.2264
     32  O          7.6210   -6.3540    8.4230 O.2    55  HIS55      -0.2867
     33  CB         5.7170   -4.3570    6.9780 C.3    55  HIS55       0.0745
     34  CG         4.5050   -3.9160    6.2750 C.ar   55  HIS55       0.0817
     35  ND1        4.0190   -2.6200    6.4080 N.ar   55  HIS55      -0.2268
     36  CD2        3.6740   -4.5530    5.4150 C.ar   55  HIS55       0.1154
     37  CE1        2.9400   -2.5100    5.6450 C.ar   55  HIS55       0.1986
     38  NE2        2.6910   -3.6670    5.0310 N.ar   55  HIS55      -0.2212
     39  N          9.9330   -3.8940    8.1280 N.3    57  GLU57      -0.1245
     40  CA        10.3290   -2.9970    9.2170 C.3    57  GLU57       0.1567
     41  C          9.7540   -3.4630   10.5270 C.2    57  GLU57       0.2260
     42  O         10.3710   -3.3160   11.5900 O.2    57  GLU57      -0.2867
     43  CB         9.8650   -1.5870    8.9440 C.3    57  GLU57       0.0388
     44  CG        10.2030   -1.0790    7.5560 C.3    57  GLU57       0.1160
     45  CD         8.9830   -1.2130    6.6280 C.2    57  GLU57       0.3649
     46  OE1        8.5470   -2.3040    6.3130 O.co2  57  GLU57      -0.2457
     47  OE2        8.3280   -0.1900    6.2880 O.co2  57  GLU57      -0.2457
     48  N          9.8100    4.3840    2.8300 N.3    83  GLU83      -0.1231
     49  CA         9.5500    4.9200    4.1470 C.3    83  GLU83       0.1699
     50  C          8.4660    4.1020    4.8830 C.2    83  GLU83       0.2592
     51  O          7.4080    3.8580    4.3200 O.2    83  GLU83      -0.2718
     52  CB         9.0700    6.3720    4.0100 C.3    83  GLU83       0.0402
     53  CG         8.7430    7.0930    5.3460 C.3    83  GLU83       0.1161
     54  CD         8.3730    8.5450    5.2080 C.2    83  GLU83       0.3649
     55  OE1        8.0760    9.0220    4.0820 O.co2  83  GLU83      -0.2457
     56  OE2        8.3700    9.2320    6.2840 O.co2  83  GLU83      -0.2457
     57  N          8.7350    3.8540    6.1580 N.am   84  HIS84      -0.1962
     58  CA         7.8170    3.0990    7.0230 C.3    84  HIS84       0.1787
     59  C          6.4020    3.6310    6.9490 C.2    84  HIS84       0.2620
     60  O          6.1420    4.8530    7.0990 O.2    84  HIS84      -0.2715
     61  CB         8.2540    3.2910    8.4690 C.3    84  HIS84       0.0785
     62  CG         9.5610    2.7150    8.8160 C.ar   84  HIS84       0.0821
     63  ND1       10.6890    2.9060    8.0490 N.ar   84  HIS84      -0.2267
     64  CD2        9.9460    1.9410    9.8610 C.ar   84  HIS84       0.1154
     65  CE1       11.6870    2.2380    8.5940 C.ar   84  HIS84       0.1986
     66  NE2       11.2690    1.6380    9.7030 N.ar   84  HIS84      -0.2212
     67  N          5.4230    2.7410    6.8760 N.am   85  CYS85      -0.1954
     68  CA         4.0380    3.0690    7.1540 C.3    85  CYS85       0.1828
     69  C          3.8920    3.3550    8.6470 C.2    85  CYS85       0.2467
     70  O          4.7760    3.0740    9.4370 O.2    85  CYS85      -0.2730
     71  CB         3.1090    1.9090    6.7130 C.3    85  CYS85       0.0996
     72  SG         2.9980    0.4810    7.8370 S.3    85  CYS85      -0.0797
     73  N          2.7230    3.8700    9.0490 N.am   86  PRO86      -0.2726
     74  CA         2.5870    4.1800   10.4750 C.3    86  PRO86       0.1402
     75  C          2.7360    3.0060   11.3960 C.2    86  PRO86       0.2269
     76  O          3.1730    3.1460   12.5470 O.2    86  PRO86      -0.2865
     77  CB         1.2050    4.8440   10.5430 C.3    86  PRO86       0.0296
     78  CG         1.0590    5.5110    9.1720 C.3    86  PRO86       0.0237
     79  CD         1.6860    4.5040    8.2210 C.3    86  PRO86       0.0939
     80  N          7.0720    7.9540    1.6540 N.3   106  SER106     -0.1217
     81  CA         5.7180    7.4500    1.5240 C.3   106  SER106      0.1889
     82  C          4.8400    8.4260    0.7020 C.2   106  SER106      0.2288
     83  O          3.9060    7.9960    0.0390 O.2   106  SER106     -0.2866
     84  CB         5.1200    7.0240    2.9000 C.3   106  SER106      0.2089
     85  OG         4.9300    8.1750    3.6530 O.3   106  SER106     -0.2183
     86  N          5.5010    7.2360   -2.9050 N.3   109  LEU109     -0.1245
     87  CA         4.6720    6.0870   -3.2160 C.3   109  LEU109      0.1561
     88  C          3.2030    6.4400   -3.3840 C.2   109  LEU109      0.2260
     89  O          2.5580    6.0290   -4.3510 O.2   109  LEU109     -0.2867
     90  CB         4.8490    5.0610   -2.1360 C.3   109  LEU109      0.0270
     91  CG         3.9550    3.8280   -2.1910 C.3   109  LEU109      0.0019
     92  CD1        4.0960    3.0690   -3.4800 C.3   109  LEU109      0.0001
     93  CD2        4.2470    2.9430   -0.9810 C.3   109  LEU109      0.0001
     94  N         -3.4620    2.8170   -0.0120 N.3   121  PRO121     -0.2116
     95  CA        -3.3410    2.0730    1.2520 C.3   121  PRO121      0.1372
     96  C         -4.5140    2.4900    2.2210 C.2   121  PRO121      0.2244
     97  O         -4.9880    3.6570    2.1790 O.2   121  PRO121     -0.2868
     98  CB        -1.9570    2.5300    1.7460 C.3   121  PRO121      0.0268
     99  CG        -1.2970    3.2540    0.7050 C.3   121  PRO121      0.0207
    100  CD        -2.3340    3.7220   -0.2240 C.3   121  PRO121      0.0892
    101  N         -4.0790    2.9510    5.2460 N.3   123  VAL123     -0.1245
    102  CA        -3.3750    3.7560    6.1970 C.3   123  VAL123      0.1561
    103  C         -2.9250    5.0140    5.5270 C.2   123  VAL123      0.2260
    104  O         -2.5470    4.9930    4.3290 O.2   123  VAL123     -0.2867
    105  CB        -2.2150    3.0520    6.8720 C.3   123  VAL123      0.0252
    106  CG1       -2.7270    1.8070    7.5720 C.3   123  VAL123      0.0019
    107  CG2       -1.0930    2.7210    5.8960 C.3   123  VAL123      0.0019
    108  N         -0.4200    8.0270    4.6120 N.3   125  THR125     -0.1203
    109  CA         1.0000    8.0600    4.3190 C.3   125  THR125      0.1994
    110  C          1.6880    9.0970    5.1990 C.2   125  THR125      0.2617
    111  O          2.3250   10.0320    4.7480 O.2   125  THR125     -0.2717
    112  CB         1.2610    8.3240    2.8310 C.3   125  THR125      0.1784
    113  OG1        0.5700    9.4670    2.4070 O.3   125  THR125     -0.2211
    114  CG2        0.8240    7.1400    1.9690 C.3   125  THR125      0.0376
    115  N          1.5750    8.9140    6.5030 N.am  126  LEU126     -0.1979
    116  CA         2.1330    9.8780    7.4650 C.3   126  LEU126      0.1596
    117  C          3.6260    9.8320    7.4330 C.2   126  LEU126      0.2287
    118  O          4.2040    8.7300    7.4840 O.2   126  LEU126     -0.2864
    119  CB         1.6480    9.5730    8.8640 C.3   126  LEU126      0.0297
    120  CG         0.1670    9.4870    9.0400 C.3   126  LEU126      0.0022
    121  CD1       -0.1550    9.0620   10.4610 C.3   126  LEU126      0.0001
    122  CD2       -0.5660   10.7950    8.7070 C.3   126  LEU126      0.0001
    123  N          2.2390   -2.4490   -8.9270 N.3   156  PHE156     -0.1241
    124  CA         1.0390   -1.6750   -8.7000 C.3   156  PHE156      0.1605
    125  C          0.5760   -0.8850   -9.9080 C.2   156  PHE156      0.2264
    126  O         -0.4910   -0.2800   -9.8990 O.2   156  PHE156     -0.2867
    127  CB         1.2840   -0.6870   -7.5260 C.3   156  PHE156      0.0534
    128  CG         1.6940   -1.3270   -6.2540 C.ar  156  PHE156     -0.0203
    129  CD1        0.8730   -2.2860   -5.6710 C.ar  156  PHE156     -0.0042
    130  CD2        2.8650   -1.0150   -5.6000 C.ar  156  PHE156     -0.0042
    131  CE1        1.2250   -2.8970   -4.4570 C.ar  156  PHE156     -0.0003
    132  CE2        3.2260   -1.6310   -4.4140 C.ar  156  PHE156     -0.0003
    133  CZ         2.3830   -2.5800   -3.8370 C.ar  156  PHE156     -0.0000
@<TRIPOS>BOND
     1   125   126    2
     2   125   124    1
     3   123   124    1
     4   124   127    1
     5   127   128    1
     6   128   129   ar
     7   128   130   ar
     8   129   131   ar
     9   130   132   ar
    10   131   133   ar
    11   132   133   ar
    12    89    88    2
    13    92    91    1
    14    88    87    1
    15    87    86    1
    16    87    90    1
    17     2     3    1
    18     2     1    1
    19     2     5    1
    20     3     4    2
    21    91    90    1
    22    91    93    1
    23     6     5    2
    24     6     7    1
    25     9     7   ar
    26    10    11    1
    27     7     8   ar
    28    18    20   ar
    29    18    16   ar
    30    20    19   ar
    31    16    15   ar
    32   100    94    1
    33   100    99    1
    34    94    95    1
    35    83    82    2
    36    11    12    1
    37    11    14    1
    38    19    17   ar
    39    15    17   ar
    40    15    14    1
    41    82    81    1
    42    99    98    1
    43    12    13    2
    44    95    98    1
    45    95    96    1
    46    24    23    2
    47    81    80    1
    48    81    84    1
    49    25    26    1
    50    25    22    1
    51    28    26   am
    52   114   112    1
    53    26    27    2
    54    97    96    2
    55    23    22    1
    56    21    22    1
    57   113   112    1
    58    48    49    1
    59   112   109    1
    60    84    85    1
    61    52    49    1
    62    52    53    1
    63    55    54   ar
    64    49    50    1
    65   109   108    1
    66   109   110    1
    67    51    50    2
    68   104   103    2
    69   111   110    2
    70    50    57   am
    71    38    36   ar
    72    38    37   ar
    73   110   115   am
    74    54    53    1
    75    54    56   ar
    76   101   102    1
    77    36    34   ar
    78   103   102    1
    79    37    35   ar
    80   107   105    1
    81    57    58    1
    82   102   105    1
    83    34    35   ar
    84    34    33    1
    85    47    45   ar
    86    46    45   ar
    87   115   116    1
    88    30    33    1
    89    30    29    1
    90    30    31    1
    91    45    44    1
    92    71    68    1
    93    71    72    1
    94   105   106    1
    95    67    59   am
    96    67    68    1
    97    59    58    1
    98    59    60    2
    99    58    61    1
   100    68    69    1
   101    31    32    2
   102   117   116    1
   103   117   118    2
   104   116   119    1
   105    44    43    1
   106    63    65   ar
   107    63    62   ar
   108    39    40    1
   109    79    73    1
   110    79    78    1
   111    61    62    1
   112    65    66   ar
   113    69    73   am
   114    69    70    2
   115   122   120    1
   116    62    64   ar
   117   119   120    1
   118    43    40    1
   119   120   121    1
   120    73    74    1
   121    78    77    1
   122    40    41    1
   123    66    64   ar
   124    74    77    1
   125    74    75    1
   126    41    42    2
   127    75    76    2
