@<TRIPOS>MOLECULE
tmp/5xktB01.pdb
 143 134 0 0 0
SMALL
GASTEIGER

@<TRIPOS>ATOM
      1  N        -13.8240    7.9180  -12.5930 N.3    11  VAL11      -0.1231
      2  CA       -14.7940    8.5550  -13.4900 C.3    11  VAL11       0.1692
      3  C        -15.1710    7.6090  -14.6240 C.2    11  VAL11       0.2593
      4  O        -14.3030    7.0510  -15.3330 O.2    11  VAL11      -0.2718
      5  CB       -14.2300    9.8780  -14.0270 C.3    11  VAL11       0.0266
      6  CG1      -15.2000   10.4660  -15.0670 C.3    11  VAL11       0.0020
      7  CG2      -13.9720   10.9270  -12.9080 C.3    11  VAL11       0.0020
      8  N        -16.4810    7.4200  -14.8160 N.am   12  GLY12      -0.1942
      9  CA       -16.9840    6.7310  -15.9990 C.3    12  GLY12       0.2014
     10  C        -16.8890    5.2190  -15.9840 C.2    12  GLY12       0.2640
     11  O        -17.1710    4.5810  -17.0020 O.2    12  GLY12      -0.2714
     12  N        -16.5640    4.6050  -14.8460 N.am   13  SER13      -0.1935
     13  CA       -16.3800    3.1630  -14.8540 C.3    13  SER13       0.2055
     14  C        -17.6920    2.3990  -14.9950 C.2    13  SER13       0.2644
     15  O        -17.6470    1.2350  -15.3770 O.2    13  SER13      -0.2714
     16  CB       -15.6630    2.7150  -13.5710 C.3    13  SER13       0.2130
     17  OG       -16.4670    3.0680  -12.4670 O.3    13  SER13      -0.2179
     18  N        -18.8550    3.0140  -14.6800 N.am   14  GLY14      -0.1939
     19  CA       -20.1350    2.3170  -14.7910 C.3    14  GLY14       0.2014
     20  C        -20.9090    2.2460  -13.4520 C.2    14  GLY14       0.2639
     21  O        -21.7840    1.3790  -13.2980 O.2    14  GLY14      -0.2714
     22  N        -20.5920    3.1300  -12.4930 N.am   15  LYS15      -0.1963
     23  CA       -21.3030    3.1490  -11.1910 C.3    15  LYS15       0.1728
     24  C        -22.8160    3.3760  -11.3620 C.2    15  LYS15       0.2617
     25  O        -23.6460    2.6910  -10.7420 O.2    15  LYS15      -0.2715
     26  CB       -20.7170    4.2640  -10.3150 C.3    15  LYS15       0.0311
     27  CG       -19.1810    4.1390   -9.9820 C.3    15  LYS15       0.0038
     28  CD       -18.6730    5.3210   -9.1420 C.3    15  LYS15       0.0206
     29  CE       -18.6170    6.6980   -9.9150 C.3    15  LYS15       0.1093
     30  NZ       -17.6310    6.5870  -11.0710 N.3    15  LYS15      -0.1314
     31  N        -23.1860    4.3880  -12.1390 N.am   16  THR16      -0.1937
     32  CA       -24.6060    4.6860  -12.3650 C.3    16  THR16       0.2028
     33  C        -25.2860    3.5710  -13.1420 C.2    16  THR16       0.2642
     34  O        -26.4330    3.2100  -12.8500 O.2    16  THR16      -0.2714
     35  CB       -24.7410    6.0180  -13.1070 C.3    16  THR16       0.1808
     36  OG1      -24.2340    7.0620  -12.2710 O.3    16  THR16      -0.2208
     37  CG2      -26.2180    6.3380  -13.4370 C.3    16  THR16       0.0379
     38  N        -24.6250    3.0550  -14.1760 N.am   17  ALA17      -0.1977
     39  CA       -25.1790    1.8750  -14.8570 C.3    17  ALA17       0.1597
     40  C        -25.3950    0.7200  -13.8830 C.2    17  ALA17       0.2287
     41  O        -26.3790   -0.0300  -14.0030 O.2    17  ALA17      -0.2864
     42  CB       -24.2600    1.4120  -15.9800 C.3    17  ALA17       0.0319
     43  N        -22.0250   14.1530   -7.3260 N.3    38  ASP38      -0.1239
     44  CA       -21.0310   14.6310   -8.2770 C.3    38  ASP38       0.1674
     45  C        -20.5430   15.9930   -7.8120 C.2    38  ASP38       0.2266
     46  O        -21.1110   16.6160   -6.9150 O.2    38  ASP38      -0.2867
     47  CB       -21.5630   14.6550   -9.7130 C.3    38  ASP38       0.1410
     48  CG       -21.1490   13.4020  -10.5080 C.2    38  ASP38       0.3668
     49  OD1      -19.9510   12.9970  -10.4680 O.co2  38  ASP38      -0.2456
     50  OD2      -21.9900   12.8190  -11.1640 O.co2  38  ASP38      -0.2456
     51  N        -26.3050   12.7030  -12.4060 N.3    44  ASP44      -0.1239
     52  CA       -26.6090   11.2820  -12.2390 C.3    44  ASP44       0.1674
     53  C        -27.9800   11.0710  -11.6100 C.2    44  ASP44       0.2266
     54  O        -28.6220   10.0480  -11.8560 O.2    44  ASP44      -0.2867
     55  CB       -25.5430   10.6010  -11.4130 C.3    44  ASP44       0.1410
     56  CG       -24.3080   10.2570  -12.2620 C.2    44  ASP44       0.3668
     57  OD1      -24.3820   10.5310  -13.4880 O.co2  44  ASP44      -0.2456
     58  OD2      -23.3100    9.8040  -11.7020 O.co2  44  ASP44      -0.2456
     59  N        -30.2090   11.1950  -14.6430 N.3    47  ILE47      -0.1245
     60  CA       -30.0430    9.9940  -15.4660 C.3    47  ILE47       0.1561
     61  C        -30.8080    8.8250  -14.8730 C.2    47  ILE47       0.2260
     62  O        -31.5160    8.1170  -15.5940 O.2    47  ILE47      -0.2867
     63  CB       -28.5540    9.6630  -15.6270 C.3    47  ILE47       0.0252
     64  CG1      -27.8820   10.7050  -16.5370 C.3    47  ILE47       0.0019
     65  CG2      -28.3580    8.1960  -16.0900 C.3    47  ILE47       0.0019
     66  CD1      -26.4200   10.6730  -16.4000 C.3    47  ILE47       0.0001
     67  N        -23.7900    6.7060   -4.5340 N.3    99  GLU99      -0.1231
     68  CA       -22.7860    6.7190   -5.6020 C.3    99  GLU99       0.1699
     69  C        -21.8060    7.8730   -5.3920 C.2    99  GLU99       0.2592
     70  O        -22.2030    9.0410   -5.3770 O.2    99  GLU99      -0.2718
     71  CB       -23.4850    6.8610   -6.9630 C.3    99  GLU99       0.0402
     72  CG       -22.4020    6.8490   -8.1110 C.3    99  GLU99       0.1161
     73  CD       -22.9370    7.1210   -9.5290 C.2    99  GLU99       0.3649
     74  OE1      -24.1400    6.9260   -9.8420 O.co2  99  GLU99      -0.2457
     75  OE2      -22.0740    7.4380  -10.3670 O.co2  99  GLU99      -0.2457
     76  N        -20.5220    7.5580   -5.2490 N.am  100  SER100     -0.1952
     77  CA       -19.5310    8.6180   -5.1540 C.3   100  SER100      0.1924
     78  C        -19.3740    9.3580   -6.4840 C.2   100  SER100      0.2314
     79  O        -19.6700    8.8400   -7.5600 O.2   100  SER100     -0.2863
     80  CB       -18.1770    7.9980   -4.7710 C.3   100  SER100      0.2116
     81  OG       -17.1720    9.0250   -4.6410 O.3   100  SER100     -0.2180
     82  N        -16.9070   10.2960   -9.3870 N.3   102  GLY102     -0.1225
     83  CA       -15.7860    9.5020   -9.8860 C.3   102  GLY102      0.1811
     84  C        -14.4840   10.0560   -9.3320 C.2   102  GLY102      0.2280
     85  O        -14.3120   11.2770   -9.2210 O.2   102  GLY102     -0.2866
     86  N        -15.9780   -3.7760  -14.9430 N.3   146  ASN146     -0.1225
     87  CA       -17.0630   -3.5610  -15.8830 C.3   146  ASN146      0.1785
     88  C        -16.5230   -3.3820  -17.3210 C.2   146  ASN146      0.2597
     89  O        -15.3150   -3.2690  -17.5540 O.2   146  ASN146     -0.2718
     90  CB       -17.8460   -2.3250  -15.4450 C.3   146  ASN146      0.1169
     91  CG       -19.1120   -2.1450  -16.2110 C.2   146  ASN146      0.2627
     92  OD1      -19.8280   -3.1180  -16.5250 O.2   146  ASN146     -0.2716
     93  ND2      -19.4330   -0.9000  -16.4890 N.am  146  ASN146     -0.0877
     94  N        -17.4410   -3.3740  -18.2830 N.am  147  LYS147     -0.1980
     95  CA       -17.1580   -3.1320  -19.7060 C.3   147  LYS147      0.1596
     96  C        -16.2410   -4.2030  -20.3130 C.2   147  LYS147      0.2287
     97  O        -15.3390   -3.8880  -21.0940 O.2   147  LYS147     -0.2864
     98  CB       -16.5620   -1.7410  -19.9300 C.3   147  LYS147      0.0298
     99  CG       -17.3490   -0.6080  -19.2600 C.3   147  LYS147      0.0038
    100  CD       -16.9000    0.7310  -19.7720 C.3   147  LYS147      0.0206
    101  CE       -17.4930    1.8590  -18.9130 C.3   147  LYS147      0.1093
    102  NZ       -17.0370    3.2350  -19.3030 N.3   147  LYS147     -0.1314
    103  N        -16.9020   -6.0460  -22.6410 N.3   149  ASP149     -0.1225
    104  CA       -17.0410   -6.0420  -24.1000 C.3   149  ASP149      0.1805
    105  C        -16.0510   -5.0870  -24.7660 C.2   149  ASP149      0.2597
    106  O        -15.8480   -5.1830  -25.9810 O.2   149  ASP149     -0.2718
    107  CB       -18.4850   -5.6520  -24.5070 C.3   149  ASP149      0.1424
    108  CG       -18.9490   -4.2950  -23.9300 C.2   149  ASP149      0.3668
    109  OD1      -18.6400   -3.9810  -22.7470 O.co2 149  ASP149     -0.2456
    110  OD2      -19.7230   -3.5620  -24.6380 O.co2 149  ASP149     -0.2456
    111  N        -15.4470   -4.1530  -24.0150 N.am  150  LEU150     -0.1979
    112  CA       -14.4770   -3.2350  -24.6130 C.3   150  LEU150      0.1596
    113  C        -13.0460   -3.7830  -24.6270 C.2   150  LEU150      0.2287
    114  O        -12.1700   -3.1230  -25.1930 O.2   150  LEU150     -0.2864
    115  CB       -14.4640   -1.8710  -23.8960 C.3   150  LEU150      0.0297
    116  CG       -15.8550   -1.2240  -23.8880 C.3   150  LEU150      0.0022
    117  CD1      -15.7440    0.1500  -23.3420 C.3   150  LEU150      0.0001
    118  CD2      -16.5160   -1.2120  -25.2850 C.3   150  LEU150      0.0001
    119  N        -20.7230   -6.8640  -17.7770 N.3   178  ASN178     -0.1225
    120  CA       -21.0110   -6.0980  -18.9930 C.3   178  ASN178      0.1785
    121  C        -22.3610   -5.4650  -18.7030 C.2   178  ASN178      0.2597
    122  O        -23.3870   -6.1190  -18.8890 O.2   178  ASN178     -0.2718
    123  CB       -21.0670   -6.9900  -20.2420 C.3   178  ASN178      0.1169
    124  CG       -21.4950   -6.2280  -21.4960 C.2   178  ASN178      0.2627
    125  OD1      -22.0730   -5.1460  -21.4030 O.2   178  ASN178     -0.2716
    126  ND2      -21.2140   -6.8030  -22.6740 N.am  178  ASN178     -0.0877
    127  N        -22.3610   -4.2140  -18.2480 N.am  179  LEU179     -0.1966
    128  CA       -23.6080   -3.5940  -17.8270 C.3   179  LEU179      0.1728
    129  C        -24.4040   -3.0490  -19.0040 C.2   179  LEU179      0.2616
    130  O        -25.5750   -2.7260  -18.8200 O.2   179  LEU179     -0.2715
    131  CB       -23.3240   -2.4960  -16.7850 C.3   179  LEU179      0.0311
    132  CG       -22.8930   -3.0950  -15.4310 C.3   179  LEU179      0.0022
    133  CD1      -22.4790   -2.0330  -14.4290 C.3   179  LEU179      0.0001
    134  CD2      -24.0450   -3.9130  -14.8660 C.3   179  LEU179      0.0001
    135  N        -23.8070   -2.9800  -20.2060 N.am  180  LYS180     -0.1977
    136  CA       -24.5770   -2.6780  -21.4180 C.3   180  LYS180      0.1596
    137  C        -25.5740   -3.7820  -21.6860 C.2   180  LYS180      0.2287
    138  O        -26.7280   -3.5220  -22.0240 O.2   180  LYS180     -0.2864
    139  CB       -23.6390   -2.4770  -22.6150 C.3   180  LYS180      0.0298
    140  CG       -24.3500   -2.2380  -23.9820 C.3   180  LYS180      0.0038
    141  CD       -23.2990   -1.8820  -25.0580 C.3   180  LYS180      0.0206
    142  CE       -23.9210   -2.0550  -26.5050 C.3   180  LYS180      0.1093
    143  NZ       -22.9690   -1.5240  -27.5540 N.3   180  LYS180     -0.1314
@<TRIPOS>BOND
     1   143   142    1
     2   142   141    1
     3   106   105    2
     4   118   116    1
     5   114   113    2
     6   141   140    1
     7   105   104    1
     8   105   111   am
     9   110   108   ar
    10   113   112    1
    11   112   111    1
    12   112   115    1
    13   107   104    1
    14   107   108    1
    15   104   103    1
    16   140   139    1
    17   108   109   ar
    18   115   116    1
    19   116   117    1
    20   126   124   am
    21   139   136    1
    22   138   137    2
    23   137   136    1
    24   124   125    2
    25   124   123    1
    26   136   135    1
    27    97    96    2
    28    96    95    1
    29   123   120    1
    30   135   129   am
    31    98    95    1
    32    98    99    1
    33   100    99    1
    34   100   101    1
    35    95    94    1
    36   102   101    1
    37   129   130    2
    38   129   128    1
    39   120   121    1
    40   120   119    1
    41   122   121    2
    42   121   127   am
    43    94    88   am
    44   127   128    1
    45   128   131    1
    46    89    88    2
    47    88    87    1
    48    11    10    2
    49   131   132    1
    50    64    66    1
    51    64    63    1
    52    92    91    2
    53    93    91   am
    54    91    90    1
    55    65    63    1
    56     9    10    1
    57     9     8    1
    58    10    12   am
    59    42    39    1
    60    87    90    1
    61    87    86    1
    62    63    60    1
    63    62    61    2
    64    60    61    1
    65    60    59    1
    66   132   134    1
    67   132   133    1
    68    15    14    2
    69     4     3    2
    70     6     5    1
    71    14    13    1
    72    14    18   am
    73    39    38    1
    74    39    40    1
    75    13    12    1
    76    13    16    1
    77     8     3   am
    78    19    18    1
    79    19    20    1
    80     3     2    1
    81    38    33   am
    82     5     2    1
    83     5     7    1
    84    41    40    2
    85    16    17    1
    86     2     1    1
    87    57    56   ar
    88    20    21    2
    89    20    22   am
    90    37    35    1
    91    33    34    2
    92    33    32    1
    93    35    32    1
    94    35    36    1
    95    22    23    1
    96    51    52    1
    97    32    31    1
    98    56    58   ar
    99    56    55    1
   100    52    53    1
   101    52    55    1
   102    31    24   am
   103    54    53    2
   104    24    23    1
   105    24    25    2
   106    23    26    1
   107    50    48   ar
   108    30    29    1
   109    48    49   ar
   110    48    47    1
   111    75    73   ar
   112    26    27    1
   113    27    28    1
   114    29    28    1
   115    83    82    1
   116    83    84    1
   117    74    73   ar
   118    47    44    1
   119    73    72    1
   120    84    85    2
   121    44    45    1
   122    44    43    1
   123    72    71    1
   124    45    46    2
   125    79    78    2
   126    71    68    1
   127    78    77    1
   128    68    69    1
   129    68    67    1
   130    69    70    2
   131    69    76   am
   132    76    77    1
   133    77    80    1
   134    80    81    1
