@<TRIPOS>MOLECULE
tmp/5xktB00.pdb
 85 81 0 0 0
SMALL
GASTEIGER

@<TRIPOS>ATOM
      1  N         -7.6640    6.4640   -7.3380 N.3   105  LEU105     -0.1245
      2  CA        -7.6540    5.1030   -6.7670 C.3   105  LEU105      0.1561
      3  C         -7.4480    5.0520   -5.2460 C.2   105  LEU105      0.2260
      4  O         -7.4760    3.9510   -4.6620 O.2   105  LEU105     -0.2867
      5  CB        -6.5610    4.2780   -7.4460 C.3   105  LEU105      0.0270
      6  CG        -6.8380    4.0110   -8.9350 C.3   105  LEU105      0.0019
      7  CD1       -5.5750    3.2660   -9.5170 C.3   105  LEU105      0.0001
      8  CD2       -8.1210    3.1770   -9.1350 C.3   105  LEU105      0.0001
      9  N        -11.7680   -0.6750  -20.0180 N.3   124  ALA124     -0.1231
     10  CA       -11.2190    0.3250  -20.9410 C.3   124  ALA124      0.1694
     11  C        -10.2570    1.2810  -20.2540 C.2   124  ALA124      0.2592
     12  O         -9.5470    2.0170  -20.9520 O.2   124  ALA124     -0.2718
     13  CB       -12.3340    1.1280  -21.5990 C.3   124  ALA124      0.0304
     14  N        -10.2280    1.2980  -18.9230 N.am  125  GLU125     -0.1966
     15  CA        -9.1890    2.0450  -18.1980 C.3   125  GLU125      0.1733
     16  C         -7.8140    1.3920  -18.3320 C.2   125  GLU125      0.2617
     17  O         -6.8120    2.0380  -18.0030 O.2   125  GLU125     -0.2715
     18  CB        -9.5370    2.1900  -16.7120 C.3   125  GLU125      0.0429
     19  CG       -10.7730    3.0700  -16.4950 C.3   125  GLU125      0.1163
     20  CD       -11.4570    2.8270  -15.1160 C.2   125  GLU125      0.3649
     21  OE1      -11.1140    1.8560  -14.4390 O.co2 125  GLU125     -0.2457
     22  OE2      -12.3320    3.6190  -14.7580 O.co2 125  GLU125     -0.2457
     23  N         -7.7410    0.1380  -18.7980 N.am  126  GLY126     -0.1940
     24  CA        -6.4600   -0.5010  -19.0240 C.3   126  GLY126      0.2014
     25  C         -6.3470   -1.8390  -18.3280 C.2   126  GLY126      0.2639
     26  O         -6.8720   -2.0410  -17.2300 O.2   126  GLY126     -0.2714
     27  N         -5.6610   -2.7620  -18.9880 N.am  127  GLU127     -0.1963
     28  CA        -5.4080   -4.0740  -18.4160 C.3   127  GLU127      0.1733
     29  C         -4.7440   -3.9770  -17.0540 C.2   127  GLU127      0.2616
     30  O         -4.9750   -4.8310  -16.1910 O.2   127  GLU127     -0.2715
     31  CB        -4.4980   -4.8470  -19.3770 C.3   127  GLU127      0.0429
     32  CG        -4.2830   -6.2820  -19.0820 C.3   127  GLU127      0.1163
     33  CD        -3.3130   -6.8660  -20.1150 C.2   127  GLU127      0.3649
     34  OE1       -2.0750   -6.8060  -19.8980 O.co2 127  GLU127     -0.2457
     35  OE2       -3.7930   -7.3060  -21.1840 O.co2 127  GLU127     -0.2457
     36  N         -3.9310   -2.9400  -16.8420 N.am  128  LYS128     -0.1963
     37  CA        -3.0750   -2.8690  -15.6660 C.3   128  LYS128      0.1728
     38  C         -3.7470   -2.2070  -14.4670 C.2   128  LYS128      0.2616
     39  O         -3.1010   -2.0460  -13.4200 O.2   128  LYS128     -0.2715
     40  CB        -1.7950   -2.0870  -16.0360 C.3   128  LYS128      0.0311
     41  CG        -2.1200   -0.6280  -16.3210 C.3   128  LYS128      0.0038
     42  CD        -1.1000   -0.0230  -17.2570 C.3   128  LYS128      0.0206
     43  CE        -1.5420    1.3590  -17.7930 C.3   128  LYS128      0.1093
     44  NZ        -2.5830    1.3160  -18.8760 N.3   128  LYS128     -0.1314
     45  N         -5.0180   -1.7770  -14.5670 N.am  129  ILE129     -0.1977
     46  CA        -5.6340   -1.0480  -13.4440 C.3   129  ILE129      0.1596
     47  C         -5.6660   -1.8730  -12.1680 C.2   129  ILE129      0.2287
     48  O         -5.3870   -1.3140  -11.0880 O.2   129  ILE129     -0.2864
     49  CB        -7.0210   -0.5210  -13.8400 C.3   129  ILE129      0.0276
     50  CG1       -6.8930    0.6080  -14.8630 C.3   129  ILE129      0.0022
     51  CG2       -7.7290    0.0690  -12.6170 C.3   129  ILE129      0.0022
     52  CD1       -6.2060    1.8470  -14.3150 C.3   129  ILE129      0.0001
     53  N         -2.4640   -1.4270  -10.3760 N.3   132  LYS132     -0.1245
     54  CA        -2.2030   -0.1040   -9.8200 C.3   132  LYS132      0.1561
     55  C         -2.7860    0.0620   -8.4310 C.2   132  LYS132      0.2260
     56  O         -2.4160    1.0160   -7.7310 O.2   132  LYS132     -0.2867
     57  CB        -2.7220    0.9890  -10.7780 C.3   132  LYS132      0.0271
     58  CG        -1.8440    1.1380  -12.0260 C.3   132  LYS132      0.0035
     59  CD        -2.0490    2.5400  -12.6340 C.3   132  LYS132      0.0206
     60  CE        -1.1140    2.7480  -13.7870 C.3   132  LYS132      0.1093
     61  NZ        -1.2160    4.1350  -14.3160 N.3   132  LYS132     -0.1314
     62  N        -11.0580   -3.7700  -28.0110 N.3   153  TYR153     -0.1227
     63  CA       -10.7770   -2.4560  -28.5940 C.3   153  TYR153      0.1736
     64  C         -9.6600   -1.7320  -27.8540 C.2   153  TYR153      0.2595
     65  O         -8.9670   -0.8740  -28.4380 O.2   153  TYR153     -0.2718
     66  CB       -12.0380   -1.5720  -28.5500 C.3   153  TYR153      0.0548
     67  CG       -13.2590   -2.2340  -29.0870 C.ar  153  TYR153     -0.0200
     68  CD1      -13.3570   -2.5350  -30.4430 C.ar  153  TYR153     -0.0009
     69  CD2      -14.3170   -2.5950  -28.2320 C.ar  153  TYR153     -0.0009
     70  CE1      -14.4900   -3.1840  -30.9450 C.ar  153  TYR153      0.0417
     71  CE2      -15.4560   -3.2520  -28.7130 C.ar  153  TYR153      0.0417
     72  CZ       -15.5500   -3.4980  -30.0770 C.ar  153  TYR153      0.1957
     73  OH       -16.6760   -4.1260  -30.5410 O.3   153  TYR153     -0.2866
     74  N         -9.4430   -2.0380  -26.5770 N.am  154  VAL154     -0.1980
     75  CA        -8.3310   -1.4000  -25.8850 C.3   154  VAL154      0.1595
     76  C         -7.1210   -2.3010  -25.7930 C.2   154  VAL154      0.2287
     77  O         -6.0730   -1.8570  -25.2980 O.2   154  VAL154     -0.2864
     78  CB        -8.7180   -0.9100  -24.4710 C.3   154  VAL154      0.0276
     79  CG1       -9.9000    0.0800  -24.5400 C.3   154  VAL154      0.0022
     80  CG2       -9.0890   -2.1050  -23.5410 C.3   154  VAL154      0.0022
     81  N         -6.8500   -5.2090  -23.9990 N.3   156  ALA156     -0.1245
     82  CA        -6.7160   -5.7790  -22.6680 C.3   156  ALA156      0.1562
     83  C         -7.0920   -7.2590  -22.6740 C.2   156  ALA156      0.2260
     84  O         -8.0400   -7.6730  -23.3460 O.2   156  ALA156     -0.2867
     85  CB        -7.6020   -5.0200  -21.6680 C.3   156  ALA156      0.0290
@<TRIPOS>BOND
     1    70    68   ar
     2    70    72   ar
     3    73    72    1
     4    68    67   ar
     5    72    71   ar
     6    67    66    1
     7    67    69   ar
     8    71    69   ar
     9    63    66    1
    10    63    62    1
    11    63    64    1
    12    65    64    2
    13    64    74   am
    14    74    75    1
    15    75    76    1
    16    75    78    1
    17    76    77    2
    18    79    78    1
    19    78    80    1
    20    81    82    1
    21    84    83    2
    22    83    82    1
    23    82    85    1
    24    13    10    1
    25    35    33   ar
    26    12    11    2
    27    10    11    1
    28    10     9    1
    29    11    14   am
    30    33    34   ar
    31    33    32    1
    32    31    32    1
    33    31    28    1
    34    24    23    1
    35    24    25    1
    36    27    28    1
    37    27    25   am
    38    14    15    1
    39    44    43    1
    40    23    16   am
    41    28    29    1
    42    16    15    1
    43    16    17    2
    44    25    26    2
    45    15    18    1
    46    43    42    1
    47    42    41    1
    48    29    36   am
    49    29    30    2
    50    36    37    1
    51    18    19    1
    52    19    20    1
    53    41    40    1
    54    40    37    1
    55    37    38    1
    56    20    22   ar
    57    20    21   ar
    58    50    52    1
    59    50    49    1
    60    45    38   am
    61    45    46    1
    62    38    39    2
    63    61    60    1
    64    49    46    1
    65    49    51    1
    66    60    59    1
    67    46    47    1
    68    59    58    1
    69    47    48    2
    70    58    57    1
    71    57    54    1
    72    53    54    1
    73    54    55    1
    74     7     6    1
    75     8     6    1
    76     6     5    1
    77    55    56    2
    78     5     2    1
    79     1     2    1
    80     2     3    1
    81     3     4    2
