@<TRIPOS>MOLECULE
tmp/5xl2B00.pdb
 77 77 0 0 0
SMALL
GASTEIGER

@<TRIPOS>ATOM
      1  N          5.6330   -7.2250  -81.2590 N.3   179  SER179     -0.1202
      2  CA         4.7440   -6.0920  -81.0450 C.3   179  SER179      0.2020
      3  C          3.6440   -5.9870  -82.1000 C.2   179  SER179      0.2619
      4  O          2.6020   -5.3910  -81.8520 O.2   179  SER179     -0.2717
      5  CB         5.5510   -4.7880  -81.0320 C.3   179  SER179      0.2103
      6  OG         6.2890   -4.6580  -79.8320 O.3   179  SER179     -0.2182
      7  N          3.8950   -6.5220  -83.2900 N.am  180  THR180     -0.1938
      8  CA         2.9600   -6.3780  -84.4110 C.3   180  THR180      0.2028
      9  C          2.9610   -7.6170  -85.2970 C.2   180  THR180      0.2642
     10  O          3.9190   -8.3980  -85.2900 O.2   180  THR180     -0.2714
     11  CB         3.3050   -5.1690  -85.3110 C.3   180  THR180      0.1808
     12  OG1        4.5850   -5.3880  -85.9130 O.3   180  THR180     -0.2208
     13  CG2        3.3340   -3.8530  -84.5280 C.3   180  THR180      0.0379
     14  N          1.8960   -7.7810  -86.0730 N.am  181  ASP181     -0.1971
     15  CA         1.8460   -8.8290  -87.0950 C.3   181  ASP181      0.1709
     16  C          3.0090   -8.7210  -88.0680 C.2   181  ASP181      0.2293
     17  O          3.5540   -9.7310  -88.5130 O.2   181  ASP181     -0.2864
     18  CB         0.5320   -8.7710  -87.8740 C.3   181  ASP181      0.1436
     19  CG        -0.6590   -9.2110  -87.0420 C.2   181  ASP181      0.3671
     20  OD1       -0.4970  -10.1180  -86.1960 O.co2 181  ASP181     -0.2456
     21  OD2       -1.7600   -8.6550  -87.2420 O.co2 181  ASP181     -0.2456
     22  N          0.7790  -11.5060  -79.5100 N.3   210  ILE210     -0.1231
     23  CA         1.2980  -10.3710  -80.2470 C.3   210  ILE210      0.1692
     24  C          0.6610   -9.0620  -79.7980 C.2   210  ILE210      0.2593
     25  O         -0.5610   -8.9510  -79.7370 O.2   210  ILE210     -0.2718
     26  CB         1.0620  -10.5520  -81.7770 C.3   210  ILE210      0.0266
     27  CG1        1.7180  -11.8360  -82.2850 C.3   210  ILE210      0.0019
     28  CG2        1.5570   -9.3420  -82.5760 C.3   210  ILE210      0.0020
     29  CD1        1.3950  -12.1250  -83.7470 C.3   210  ILE210      0.0001
     30  N          1.4980   -8.0730  -79.5000 N.am  211  GLY211     -0.1942
     31  CA         1.0550   -6.6950  -79.3740 C.3   211  GLY211      0.2014
     32  C          0.2370   -6.3050  -78.1560 C.2   211  GLY211      0.2640
     33  O         -0.4440   -5.2880  -78.1780 O.2   211  GLY211     -0.2714
     34  N          0.3260   -7.0780  -77.0810 N.am  212  SER212     -0.1935
     35  CA        -0.4940   -6.8210  -75.9040 C.3   212  SER212      0.2055
     36  C          0.2870   -6.3250  -74.6850 C.2   212  SER212      0.2643
     37  O         -0.2600   -6.2400  -73.5880 O.2   212  SER212     -0.2714
     38  CB        -1.2600   -8.0900  -75.5410 C.3   212  SER212      0.2130
     39  OG        -0.3830   -9.2000  -75.4600 O.3   212  SER212     -0.2179
     40  N          1.5580   -5.9860  -74.8680 N.am  213  ARG213     -0.1963
     41  CA         2.3970   -5.6030  -73.7340 C.3   213  ARG213      0.1714
     42  C          2.8630   -4.1460  -73.7890 C.2   213  ARG213      0.2458
     43  O          3.0930   -3.6040  -74.8710 O.2   213  ARG213     -0.2730
     44  CB         3.6090   -6.5300  -73.6540 C.3   213  ARG213      0.0347
     45  CG         3.3170   -7.9400  -73.1830 C.3   213  ARG213      0.0492
     46  CD         4.5670   -8.7890  -73.3080 C.3   213  ARG213      0.2205
     47  NE         4.5730  -10.0020  -72.4850 N.pl3 213  ARG213     -0.0865
     48  CZ         4.0880  -11.1840  -72.8690 C.cat 213  ARG213      0.5346
     49  NH1        3.5150  -11.3130  -74.0580 N.pl3 213  ARG213      0.1354
     50  NH2        4.1600  -12.2360  -72.0580 N.pl3 213  ARG213      0.1354
     51  N          3.0120   -3.5090  -72.6150 N.am  214  PRO214     -0.2716
     52  CA         3.5560   -2.1450  -72.5450 C.3   214  PRO214      0.1536
     53  C          5.0650   -2.1240  -72.8130 C.2   214  PRO214      0.2598
     54  O          5.6880   -3.1820  -72.8200 O.2   214  PRO214     -0.2715
     55  CB         3.2600   -1.7280  -71.1060 C.3   214  PRO214      0.0310
     56  CG         3.3330   -3.0190  -70.3430 C.3   214  PRO214      0.0237
     57  CD         2.8210   -4.0920  -71.2720 C.3   214  PRO214      0.0939
     58  N          5.6420   -0.9440  -73.0090 N.am  215  TRP215     -0.1974
     59  CA         7.0810   -0.8330  -73.2240 C.3   215  TRP215      0.1640
     60  C          7.9130   -1.1580  -71.9770 C.2   215  TRP215      0.2290
     61  O          7.5580   -0.7840  -70.8560 O.2   215  TRP215     -0.2864
     62  CB         7.4370    0.5700  -73.6980 C.3   215  TRP215      0.0576
     63  CG         6.6390    1.0420  -74.8760 C.ar  215  TRP215      0.0006
     64  CD1        6.8500    0.7360  -76.1900 C.ar  215  TRP215      0.0946
     65  CD2        5.5100    1.9190  -74.8450 C.ar  215  TRP215      0.0152
     66  NE1        5.9170    1.3660  -76.9780 N.ar  215  TRP215     -0.2442
     67  CE2        5.0820    2.0990  -76.1750 C.ar  215  TRP215      0.0810
     68  CE3        4.8130    2.5670  -73.8180 C.ar  215  TRP215      0.0012
     69  CZ2        3.9930    2.9030  -76.5080 C.ar  215  TRP215      0.0191
     70  CZ3        3.7260    3.3640  -74.1530 C.ar  215  TRP215      0.0001
     71  CH2        3.3300    3.5240  -75.4880 C.ar  215  TRP215      0.0015
     72  N          8.1570   -3.0400  -76.6410 N.3   220  SER220     -0.1217
     73  CA         6.9240   -3.6890  -76.2090 C.3   220  SER220      0.1889
     74  C          6.9290   -5.1530  -76.6370 C.2   220  SER220      0.2288
     75  O          5.9980   -5.8910  -76.3310 O.2   220  SER220     -0.2866
     76  CB         5.6930   -2.9790  -76.7730 C.3   220  SER220      0.2089
     77  OG         5.7590   -2.8970  -78.1840 O.3   220  SER220     -0.2183
@<TRIPOS>BOND
     1    17    16    2
     2    16    15    1
     3    18    15    1
     4    18    19    1
     5    21    19   ar
     6    15    14    1
     7    19    20   ar
     8    14     9   am
     9    12    11    1
    10    11    13    1
    11    11     8    1
    12     9    10    2
    13     9     8    1
    14     8     7    1
    15    29    27    1
    16     7     3   am
    17    28    26    1
    18    27    26    1
    19     3     4    2
    20     3     2    1
    21    26    23    1
    22     1     2    1
    23     2     5    1
    24     5     6    1
    25    23    24    1
    26    23    22    1
    27    24    25    2
    28    24    30   am
    29    30    31    1
    30    31    32    1
    31    77    76    1
    32    33    32    2
    33    32    34   am
    34    34    35    1
    35    66    64   ar
    36    66    67   ar
    37    76    73    1
    38    72    73    1
    39    74    75    2
    40    74    73    1
    41    69    67   ar
    42    69    71   ar
    43    64    63   ar
    44    67    65   ar
    45    35    38    1
    46    35    36    1
    47    38    39    1
    48    71    70   ar
    49    63    65   ar
    50    63    62    1
    51    43    42    2
    52    40    36   am
    53    40    41    1
    54    65    68   ar
    55    36    37    2
    56    70    68   ar
    57    49    48    1
    58    42    41    1
    59    42    51   am
    60    41    44    1
    61    62    59    1
    62    44    45    1
    63    46    45    1
    64    46    47    1
    65    59    58    1
    66    59    60    1
    67    58    53   am
    68    48    47    2
    69    48    50    1
    70    54    53    2
    71    53    52    1
    72    51    52    1
    73    51    57    1
    74    52    55    1
    75    60    61    2
    76    57    56    1
    77    55    56    1
