@<TRIPOS>MOLECULE
tmp/5xlaA01.pdb
 113 107 0 0 0
SMALL
GASTEIGER

@<TRIPOS>ATOM
      1  N         30.4310  334.4570  658.3350 N.3    90  TYR90      -0.1241
      2  CA        30.9270  333.3710  657.4900 C.3    90  TYR90       0.1605
      3  C         31.4700  332.2090  658.3130 C.2    90  TYR90       0.2264
      4  O         32.3150  332.4120  659.1830 O.2    90  TYR90      -0.2867
      5  CB        32.0220  333.8940  656.5570 C.3    90  TYR90       0.0534
      6  CG        32.1320  333.1730  655.2300 C.ar   90  TYR90      -0.0201
      7  CD1       32.7050  331.9080  655.1400 C.ar   90  TYR90      -0.0009
      8  CD2       31.6790  333.7700  654.0600 C.ar   90  TYR90      -0.0009
      9  CE1       32.8090  331.2550  653.9190 C.ar   90  TYR90       0.0417
     10  CE2       31.7790  333.1280  652.8410 C.ar   90  TYR90       0.0417
     11  CZ        32.3430  331.8740  652.7730 C.ar   90  TYR90       0.1957
     12  OH        32.4370  331.2500  651.5500 O.3    90  TYR90      -0.2866
     13  N         35.2380  342.1390  649.9810 N.3   126  GLY126     -0.1210
     14  CA        34.2740  341.1250  649.5910 C.3   126  GLY126      0.1956
     15  C         33.3550  340.7160  650.7280 C.2   126  GLY126      0.2612
     16  O         33.7920  340.5840  651.8720 O.2   126  GLY126     -0.2717
     17  N         32.0780  340.5090  650.4120 N.am  127  LYS127     -0.1965
     18  CA        31.0610  340.2500  651.4310 C.3   127  LYS127      0.1728
     19  C         30.2520  338.9800  651.1430 C.2   127  LYS127      0.2617
     20  O         30.4530  338.3290  650.1170 O.2   127  LYS127     -0.2715
     21  CB        30.1310  341.4600  651.5500 C.3   127  LYS127      0.0311
     22  CG        30.8680  342.8000  651.5500 C.3   127  LYS127      0.0038
     23  CD        29.8990  343.9690  651.5370 C.3   127  LYS127      0.0206
     24  CE        30.5980  345.3180  651.5090 C.3   127  LYS127      0.1093
     25  NZ        31.9680  345.2670  652.0800 N.3   127  LYS127     -0.1314
     26  N         29.3410  338.6330  652.0520 N.am  128  SER128     -0.1936
     27  CA        28.5790  337.3850  651.9440 C.3   128  SER128      0.2055
     28  C         27.1920  337.4740  652.5850 C.2   128  SER128      0.2643
     29  O         26.9760  338.2480  653.5160 O.2   128  SER128     -0.2714
     30  CB        29.3620  336.2330  652.5800 C.3   128  SER128      0.2130
     31  OG        28.6680  335.0040  652.4410 O.3   128  SER128     -0.2179
     32  N         26.2620  336.6630  652.0830 N.am  129  GLY129     -0.1954
     33  CA        24.8910  336.6560  652.5680 C.3   129  GLY129      0.1869
     34  C         24.7300  335.8770  653.8580 C.2   129  GLY129      0.2309
     35  O         23.6480  335.8240  654.4440 O.2   129  GLY129     -0.2863
     36  N         24.6580  342.1670  653.0730 N.3   137  ASN137     -0.1240
     37  CA        25.8100  341.2810  652.9680 C.3   137  ASN137      0.1653
     38  C         27.0780  342.0100  653.3960 C.2   137  ASN137      0.2266
     39  O         27.4160  343.0580  652.8570 O.2   137  ASN137     -0.2867
     40  CB        25.9900  340.7330  651.5540 C.3   137  ASN137      0.1155
     41  CG        24.6760  340.3730  650.8750 C.2   137  ASN137      0.2627
     42  OD1       23.5820  340.5590  651.4390 O.2   137  ASN137     -0.2716
     43  ND2       24.7820  339.8100  649.6540 N.am  137  ASN137     -0.0877
     44  N         38.3490  340.9490  652.5230 N.3   145  TRP145     -0.1241
     45  CA        38.2190  339.8700  651.5480 C.3   145  TRP145      0.1605
     46  C         38.7310  340.3340  650.1900 C.2   145  TRP145      0.2264
     47  O         38.1700  341.2400  649.5750 O.2   145  TRP145     -0.2867
     48  CB        36.7700  339.3910  651.4380 C.3   145  TRP145      0.0550
     49  CG        36.6360  338.0410  650.7880 C.ar  145  TRP145      0.0003
     50  CD1       37.6110  337.3480  650.1300 C.ar  145  TRP145      0.0946
     51  CD2       35.4630  337.2180  650.7460 C.ar  145  TRP145      0.0152
     52  NE1       37.1180  336.1480  649.6780 N.ar  145  TRP145     -0.2442
     53  CE2       35.8010  336.0440  650.0440 C.ar  145  TRP145      0.0810
     54  CE3       34.1600  337.3610  651.2330 C.ar  145  TRP145      0.0012
     55  CZ2       34.8830  335.0190  649.8160 C.ar  145  TRP145      0.0191
     56  CZ3       33.2500  336.3430  651.0060 C.ar  145  TRP145      0.0001
     57  CH2       33.6160  335.1870  650.3040 C.ar  145  TRP145      0.0015
     58  N         39.5240  339.7780  646.2630 N.3   147  VAL147     -0.1245
     59  CA        38.9600  339.0740  645.1160 C.3   147  VAL147      0.1561
     60  C         39.7440  339.4450  643.8610 C.2   147  VAL147      0.2260
     61  O         40.5700  340.3350  643.8900 O.2   147  VAL147     -0.2867
     62  CB        37.4530  339.4290  644.9460 C.3   147  VAL147      0.0252
     63  CG1       37.3080  340.8220  644.3680 C.3   147  VAL147      0.0019
     64  CG2       36.7330  338.4260  644.0460 C.3   147  VAL147      0.0019
     65  N         40.5900  331.6630  652.9400 N.3   176  HIS176     -0.1241
     66  CA        39.3490  331.1560  652.3640 C.3   176  HIS176      0.1621
     67  C         39.5830  329.7930  651.6970 C.2   176  HIS176      0.2264
     68  O         40.6220  329.6220  651.0560 O.2   176  HIS176     -0.2867
     69  CB        38.8110  332.1770  651.3390 C.3   176  HIS176      0.0745
     70  CG        37.4140  331.8990  650.8770 C.ar  176  HIS176      0.0817
     71  ND1       37.1340  331.2930  649.6710 N.ar  176  HIS176     -0.2268
     72  CD2       36.2160  332.1590  651.4530 C.ar  176  HIS176      0.1154
     73  CE1       35.8250  331.1710  649.5340 C.ar  176  HIS176      0.1986
     74  NE2       35.2450  331.6910  650.6000 N.ar  176  HIS176     -0.2212
     75  N         37.2000  327.1210  649.0470 N.3   178  PRO178     -0.2116
     76  CA        35.9740  326.8380  648.2750 C.3   178  PRO178      0.1372
     77  C         35.3510  325.4050  648.3070 C.2   178  PRO178      0.2244
     78  O         35.4860  324.6990  649.3070 O.2   178  PRO178     -0.2868
     79  CB        36.4230  327.1760  646.8630 C.3   178  PRO178      0.0268
     80  CG        37.7070  327.8640  646.9520 C.3   178  PRO178      0.0207
     81  CD        38.3470  327.3700  648.1630 C.3   178  PRO178      0.0892
     82  N         34.7610  327.3410  641.5750 N.3   183  GLU183     -0.1245
     83  CA        35.0110  328.0970  642.8260 C.3   183  GLU183      0.1567
     84  C         36.0660  329.1850  642.8240 C.2   183  GLU183      0.2260
     85  O         35.8510  330.3960  643.0020 O.2   183  GLU183     -0.2867
     86  CB        35.5510  327.1270  643.8420 C.3   183  GLU183      0.0388
     87  CG        34.6420  325.9960  644.2800 C.3   183  GLU183      0.1160
     88  CD        33.1540  326.3800  644.4050 C.2   183  GLU183      0.3649
     89  OE1       32.7830  327.1180  645.3740 O.co2 183  GLU183     -0.2457
     90  OE2       32.3630  325.8620  643.5820 O.co2 183  GLU183     -0.2457
     91  N         36.8130  333.1100  641.7480 N.3   187  LEU187     -0.1245
     92  CA        37.0660  333.9820  642.8850 C.3   187  LEU187      0.1561
     93  C         38.5530  334.4230  643.0880 C.2   187  LEU187      0.2260
     94  O         38.8210  335.4400  643.7340 O.2   187  LEU187     -0.2867
     95  CB        36.4950  333.3170  644.1740 C.3   187  LEU187      0.0270
     96  CG        36.6230  334.1170  645.4970 C.3   187  LEU187      0.0019
     97  CD1       35.8530  335.4410  645.4230 C.3   187  LEU187      0.0001
     98  CD2       36.2810  333.3910  646.8300 C.3   187  LEU187      0.0001
     99  N         26.2650  328.1960  653.1240 N.3   219  GLN219     -0.1245
    100  CA        27.5010  328.0620  652.3410 C.3   219  GLN219      0.1566
    101  C         28.1570  326.6930  652.5430 C.2   219  GLN219      0.2260
    102  O         28.1360  326.1460  653.6470 O.2   219  GLN219     -0.2867
    103  CB        28.5320  329.1440  652.7030 C.3   219  GLN219      0.0367
    104  CG        28.1080  330.6270  652.7240 C.3   219  GLN219      0.0905
    105  CD        26.8850  330.9660  651.8920 C.2   219  GLN219      0.2608
    106  OE1       26.7490  330.5510  650.7420 O.2   219  GLN219     -0.2717
    107  NE2       25.9790  331.7340  652.4870 N.am  219  GLN219     -0.0878
    108  N         31.3230  326.5720  651.8420 N.3   221  SER221     -0.1217
    109  CA        32.6920  327.0690  651.8850 C.3   221  SER221      0.1889
    110  C         33.0800  327.4610  653.3070 C.2   221  SER221      0.2288
    111  O         32.2140  327.6230  654.1700 O.2   221  SER221     -0.2866
    112  CB        32.8480  328.2650  650.9490 C.3   221  SER221      0.2089
    113  OG        32.0110  328.1320  649.8120 O.3   221  SER221     -0.2183
@<TRIPOS>BOND
     1    82    83    1
     2    91    92    1
     3    84    83    1
     4    84    85    2
     5    83    86    1
     6    92    93    1
     7    92    95    1
     8    93    94    2
     9    90    88   ar
    10    86    87    1
    11    60    61    2
    12    60    59    1
    13    64    62    1
    14    95    96    1
    15    87    88    1
    16    63    62    1
    17    88    89   ar
    18    62    59    1
    19    59    58    1
    20    97    96    1
    21    96    98    1
    22    79    80    1
    23    79    76    1
    24    80    81    1
    25    81    75    1
    26    76    77    1
    27    76    75    1
    28    77    78    2
    29    73    71   ar
    30    73    74   ar
    31    47    46    2
    32    14    13    1
    33    14    15    1
    34    43    41   am
    35    71    70   ar
    36    52    53   ar
    37    52    50   ar
    38   113   112    1
    39    55    53   ar
    40    55    57   ar
    41    53    51   ar
    42    20    19    2
    43    50    49   ar
    44    46    45    1
    45    57    56   ar
    46    17    15   am
    47    17    18    1
    48    74    72   ar
    49    15    16    2
    50   106   105    2
    51    51    49   ar
    52    51    54   ar
    53    49    48    1
    54    41    42    2
    55    41    40    1
    56    70    69    1
    57    70    72   ar
    58   112   109    1
    59    56    54   ar
    60    68    67    2
    61    19    18    1
    62    19    26   am
    63    69    66    1
    64    18    21    1
    65    48    45    1
    66    24    23    1
    67    24    25    1
    68    23    22    1
    69    45    44    1
    70    12    11    1
    71    21    22    1
    72    40    37    1
    73    67    66    1
    74   108   109    1
    75   109   110    1
    76   105   107   am
    77   105   104    1
    78    27    26    1
    79    27    30    1
    80    27    28    1
    81    32    33    1
    82    32    28   am
    83   100   101    1
    84   100   103    1
    85   100    99    1
    86    66    65    1
    87    31    30    1
    88   101   102    2
    89    33    34    1
    90    28    29    2
    91   103   104    1
    92    11    10   ar
    93    11     9   ar
    94    10     8   ar
    95    39    38    2
    96    37    36    1
    97    37    38    1
    98   110   111    2
    99    34    35    2
   100     9     7   ar
   101     8     6   ar
   102     7     6   ar
   103     6     5    1
   104     5     2    1
   105     2     3    1
   106     2     1    1
   107     3     4    2
