@<TRIPOS>MOLECULE
tmp/5xluB00.pdb
 76 68 0 0 0
SMALL
GASTEIGER

@<TRIPOS>ATOM
      1  N         -8.9730   -0.2220  -19.9600 N.3     1  THR1       -0.1218
      2  CA        -9.6880    0.7130  -19.0590 C.3     1  THR1        0.1862
      3  C         -8.9980    2.0540  -19.1950 C.2     1  THR1        0.2287
      4  O         -7.8340    2.1810  -19.5410 O.2     1  THR1       -0.2866
      5  CB        -9.6340    0.2300  -17.6630 C.3     1  THR1        0.1770
      6  OG1      -10.0970   -1.1240  -17.7140 O.3     1  THR1       -0.2211
      7  CG2      -10.4060    1.0690  -16.6650 C.3     1  THR1        0.0375
      8  N        -14.4920    1.3570  -19.2340 N.3    19  THR19      -0.1218
      9  CA       -13.7630    0.1880  -19.7340 C.3    19  THR19       0.1862
     10  C        -14.5520   -0.6680  -20.7170 C.2    19  THR19       0.2287
     11  O        -15.8080   -0.5840  -20.7710 O.2    19  THR19      -0.2866
     12  CB       -13.3400   -0.6490  -18.5410 C.3    19  THR19       0.1770
     13  OG1      -12.4280   -1.6780  -18.9830 O.3    19  THR19      -0.2211
     14  CG2      -14.5130   -1.2910  -17.7910 C.3    19  THR19       0.0375
     15  N        -13.1200   -3.9200  -20.5700 N.3    21  GLU21      -0.1245
     16  CA       -12.4800   -5.0860  -19.9670 C.3    21  GLU21       0.1567
     17  C        -11.0260   -5.1280  -20.4910 C.2    21  GLU21       0.2260
     18  O        -10.2370   -4.3040  -20.1670 O.2    21  GLU21      -0.2867
     19  CB       -13.3290   -6.3440  -19.9290 C.3    21  GLU21       0.0388
     20  CG       -13.0510   -7.2760  -18.7600 C.3    21  GLU21       0.1160
     21  CD       -11.5650   -7.4120  -18.3970 C.2    21  GLU21       0.3649
     22  OE1      -11.0020   -8.4900  -18.8480 O.co2  21  GLU21      -0.2457
     23  OE2      -10.9620   -6.5300  -17.7460 O.co2  21  GLU21      -0.2457
     24  N        -16.6000   -8.0150  -20.4440 N.3    40  GLU40      -0.1245
     25  CA       -16.7160   -7.7470  -19.0200 C.3    40  GLU40       0.1567
     26  C        -17.0960   -8.9400  -18.1680 C.2    40  GLU40       0.2260
     27  O        -16.7870   -8.9820  -16.9540 O.2    40  GLU40      -0.2867
     28  CB       -17.6640   -6.5760  -18.7080 C.3    40  GLU40       0.0388
     29  CG       -17.1170   -5.5900  -17.6090 C.3    40  GLU40       0.1160
     30  CD       -15.9950   -4.7360  -18.1210 C.2    40  GLU40       0.3649
     31  OE1      -16.1890   -3.9760  -19.1360 O.co2  40  GLU40      -0.2457
     32  OE2      -14.8850   -4.7750  -17.5180 O.co2  40  GLU40      -0.2457
     33  N        -14.9900  -10.9580  -15.7790 N.3    43  ASP43      -0.1239
     34  CA       -14.7530  -10.5230  -14.3840 C.3    43  ASP43       0.1674
     35  C        -15.5450  -11.3030  -13.3150 C.2    43  ASP43       0.2266
     36  O        -15.2620  -11.1900  -12.1500 O.2    43  ASP43      -0.2867
     37  CB       -14.9760   -9.0230  -14.1890 C.3    43  ASP43       0.1410
     38  CG       -13.8460   -8.1460  -14.6890 C.2    43  ASP43       0.3668
     39  OD1      -12.7840   -8.6300  -15.1380 O.co2  43  ASP43      -0.2456
     40  OD2      -14.0710   -6.8760  -14.5980 O.co2  43  ASP43      -0.2456
     41  N        -16.2300   -5.5020  -10.2330 N.3    62  SER62      -0.1202
     42  CA       -15.1790   -4.6200  -10.7130 C.3    62  SER62       0.2020
     43  C        -14.1520   -4.3250   -9.6510 C.2    62  SER62       0.2619
     44  O        -14.4090   -4.6090   -8.4660 O.2    62  SER62      -0.2717
     45  CB       -15.7880   -3.2920  -11.1840 C.3    62  SER62       0.2103
     46  OG       -14.9020   -2.4440  -11.8610 O.3    62  SER62      -0.2182
     47  N        -13.0230   -3.7410  -10.0720 N.am   63  SER63      -0.1937
     48  CA       -12.0870   -3.1410   -9.1590 C.3    63  SER63       0.2055
     49  C        -11.9370   -1.6650   -9.4490 C.2    63  SER63       0.2642
     50  O        -11.0830   -1.0210   -8.8250 O.2    63  SER63      -0.2714
     51  CB       -10.7240   -3.8180   -9.2330 C.3    63  SER63       0.2130
     52  OG       -10.8200   -5.2050   -9.0240 O.3    63  SER63      -0.2179
     53  N        -12.7230   -1.1020  -10.3730 N.am   64  MET64      -0.1976
     54  CA       -12.6170    0.3320  -10.6610 C.3    64  MET64       0.1605
     55  C        -12.9030    1.1950   -9.4470 C.2    64  MET64       0.2287
     56  O        -13.8490    0.9240   -8.7130 O.2    64  MET64      -0.2864
     57  CB       -13.4700    0.6810  -11.8760 C.3    64  MET64       0.0413
     58  CG       -12.9780    0.0310  -13.1800 C.3    64  MET64       0.0598
     59  SD       -13.8700    0.5720  -14.6590 S.3    64  MET64      -0.1393
     60  CE       -15.4590   -0.1930  -14.4500 C.3    64  MET64       0.0692
     61  N         -6.5460   -0.7180  -14.7210 N.3    83  GLY83      -0.1210
     62  CA        -5.6230   -1.8350  -14.3170 C.3    83  GLY83       0.1956
     63  C         -6.2660   -3.0440  -13.7450 C.2    83  GLY83       0.2612
     64  O         -5.5910   -3.8920  -13.1550 O.2    83  GLY83      -0.2717
     65  N         -7.5830   -3.1570  -13.8090 N.am   84  GLY84      -0.1956
     66  CA        -8.2030   -4.3370  -13.1540 C.3    84  GLY84       0.1869
     67  C         -7.9020   -4.3970  -11.6750 C.2    84  GLY84       0.2309
     68  O         -8.0620   -3.4340  -10.9510 O.2    84  GLY84      -0.2863
     69  N         -5.9970   -1.7150   -9.6750 N.3    87  ILE87      -0.1245
     70  CA        -6.5080   -0.3620   -9.4510 C.3    87  ILE87       0.1561
     71  C         -6.4740   -0.0130   -7.9840 C.2    87  ILE87       0.2260
     72  O         -6.1200    1.0980   -7.6180 O.2    87  ILE87      -0.2867
     73  CB        -7.9390   -0.2170  -10.0070 C.3    87  ILE87       0.0252
     74  CG1       -7.9000   -0.2970  -11.5180 C.3    87  ILE87       0.0019
     75  CG2       -8.5780    1.0940   -9.5500 C.3    87  ILE87       0.0019
     76  CD1       -9.2290   -0.4320  -12.1680 C.3    87  ILE87       0.0001
@<TRIPOS>BOND
     1    11    10    2
     2    10     9    1
     3    15    16    1
     4    17    18    2
     5    17    16    1
     6    24    25    1
     7    16    19    1
     8     1     2    1
     9    19    20    1
    10     9     8    1
    11     9    12    1
    12     4     3    2
    13     3     2    1
    14    31    30   ar
    15     2     5    1
    16    25    28    1
    17    25    26    1
    18    13    12    1
    19    22    21   ar
    20    20    21    1
    21    28    29    1
    22    12    14    1
    23    21    23   ar
    24    26    27    2
    25    30    29    1
    26    30    32   ar
    27     6     5    1
    28     5     7    1
    29    33    34    1
    30    39    38   ar
    31    61    62    1
    32    38    40   ar
    33    38    37    1
    34    59    60    1
    35    59    58    1
    36    34    37    1
    37    34    35    1
    38    62    63    1
    39    65    63   am
    40    65    66    1
    41    63    64    2
    42    35    36    2
    43    58    57    1
    44    66    67    1
    45    76    74    1
    46    57    54    1
    47    46    45    1
    48    67    68    2
    49    74    73    1
    50    45    42    1
    51    42    41    1
    52    42    43    1
    53    54    53    1
    54    54    55    1
    55    53    49   am
    56    47    43   am
    57    47    48    1
    58    73    75    1
    59    73    70    1
    60    69    70    1
    61    43    44    2
    62    70    71    1
    63    49    48    1
    64    49    50    2
    65    55    56    2
    66    51    48    1
    67    51    52    1
    68    71    72    2
