@<TRIPOS>MOLECULE
tmp/5xlvA00.pdb
 179 170 0 0 0
SMALL
GASTEIGER

@<TRIPOS>ATOM
      1  N         36.8250   40.4190   50.6400 N.3    93  VAL93      -0.1245
      2  CA        38.1380   40.0110   51.1950 C.3    93  VAL93       0.1561
      3  C         38.4870   38.6240   50.6070 C.2    93  VAL93       0.2260
      4  O         37.6650   37.7190   50.6070 O.2    93  VAL93      -0.2867
      5  CB        38.0780   39.9200   52.7630 C.3    93  VAL93       0.0252
      6  CG1       39.4320   39.4330   53.3010 C.3    93  VAL93       0.0019
      7  CG2       37.7720   41.3110   53.3460 C.3    93  VAL93       0.0019
      8  N         42.2350   50.3950   50.9830 N.3   123  ASP123     -0.1239
      9  CA        42.6670   50.0070   52.3180 C.3   123  ASP123      0.1674
     10  C         43.3760   51.2200   52.9620 C.2   123  ASP123      0.2266
     11  O         43.3310   51.3530   54.1540 O.2   123  ASP123     -0.2867
     12  CB        43.6970   48.8710   52.2180 C.3   123  ASP123      0.1410
     13  CG        43.1120   47.5650   51.6680 C.2   123  ASP123      0.3668
     14  OD1       41.8890   47.4250   51.4720 O.co2 123  ASP123     -0.2456
     15  OD2       43.9380   46.6640   51.3990 O.co2 123  ASP123     -0.2456
     16  N         41.3120   53.2360   55.3000 N.3   126  LEU126     -0.1245
     17  CA        40.8160   52.6980   56.5880 C.3   126  LEU126      0.1561
     18  C         41.2960   53.6860   57.7000 C.2   126  LEU126      0.2260
     19  O         42.3610   54.2900   57.5640 O.2   126  LEU126     -0.2867
     20  CB        41.3410   51.2990   56.8860 C.3   126  LEU126      0.0270
     21  CG        40.7640   50.1590   56.0330 C.3   126  LEU126      0.0019
     22  CD1       41.5090   48.8200   56.2030 C.3   126  LEU126      0.0001
     23  CD2       39.3000   49.9120   56.3820 C.3   126  LEU126      0.0001
     24  N         36.4700   48.7060   65.6340 N.3   138  MET138     -0.1245
     25  CA        37.4300   47.5930   65.3170 C.3   138  MET138      0.1570
     26  C         36.7580   46.3650   64.8010 C.2   138  MET138      0.2261
     27  O         37.2900   45.6990   63.8840 O.2   138  MET138     -0.2867
     28  CB        38.2850   47.1230   66.5220 C.3   138  MET138      0.0387
     29  CG        39.7280   47.6100   66.6360 C.3   138  MET138      0.0595
     30  SD        40.8540   47.7840   65.2200 S.3   138  MET138     -0.1393
     31  CE        40.4910   46.2560   64.4360 C.3   138  MET138      0.0692
     32  N         35.9590   46.3290   60.9380 N.3   141  LYS141     -0.1231
     33  CA        36.9980   46.7900   60.0180 C.3   141  LYS141      0.1693
     34  C         36.6940   46.2260   58.5840 C.2   141  LYS141      0.2592
     35  O         36.3780   45.0440   58.4580 O.2   141  LYS141     -0.2718
     36  CB        38.3550   46.2280   60.4880 C.3   141  LYS141      0.0285
     37  CG        39.5080   46.7950   59.7090 C.3   141  LYS141      0.0035
     38  CD        40.8230   46.3800   60.4930 C.3   141  LYS141      0.0206
     39  CE        42.0380   46.8660   59.7060 C.3   141  LYS141      0.1093
     40  NZ        43.3480   46.5530   60.4800 N.3   141  LYS141     -0.1314
     41  N         36.7410   47.0970   57.5800 N.am  142  GLY142     -0.1957
     42  CA        36.3810   46.7060   56.2050 C.3   142  GLY142      0.1869
     43  C         34.9240   47.1040   55.8630 C.2   142  GLY142      0.2309
     44  O         34.5660   47.1630   54.6610 O.2   142  GLY142     -0.2863
     45  N         48.2170   51.7990   53.7040 N.3   171  TYR171     -0.1241
     46  CA        47.9880   50.7750   54.6880 C.3   171  TYR171      0.1605
     47  C         49.1690   49.7850   54.5620 C.2   171  TYR171      0.2264
     48  O         49.6560   49.5740   53.4180 O.2   171  TYR171     -0.2867
     49  CB        46.7220   50.0000   54.3320 C.3   171  TYR171      0.0534
     50  CG        46.2160   48.9780   55.3330 C.ar  171  TYR171     -0.0201
     51  CD1       45.5660   49.3590   56.5270 C.ar  171  TYR171     -0.0009
     52  CD2       46.3040   47.6110   55.0630 C.ar  171  TYR171     -0.0009
     53  CE1       45.0520   48.4020   57.4040 C.ar  171  TYR171      0.0417
     54  CE2       45.8180   46.6650   55.9280 C.ar  171  TYR171      0.0417
     55  CZ        45.1730   47.0720   57.0970 C.ar  171  TYR171      0.1957
     56  OH        44.6990   46.0980   57.9470 O.3   171  TYR171     -0.2866
     57  N         50.0770   46.1320   54.6200 N.3   173  HIS173     -0.1241
     58  CA        49.4220   44.8250   54.5710 C.3   173  HIS173      0.1621
     59  C         50.1130   43.8050   55.4440 C.2   173  HIS173      0.2264
     60  O         49.4920   42.8470   55.9000 O.2   173  HIS173     -0.2867
     61  CB        49.2340   44.3460   53.1240 C.3   173  HIS173      0.0745
     62  CG        48.2810   45.2340   52.3940 C.ar  173  HIS173      0.0817
     63  ND1       48.6780   46.4210   51.8050 N.ar  173  HIS173     -0.2268
     64  CD2       46.9260   45.2150   52.3430 C.ar  173  HIS173      0.1154
     65  CE1       47.6010   47.0430   51.3300 C.ar  173  HIS173      0.1986
     66  NE2       46.5300   46.3380   51.6560 N.ar  173  HIS173     -0.2212
     67  N         48.9710   45.2680   59.1090 N.3   176  TYR176     -0.1241
     68  CA        47.4870   45.3130   59.2180 C.3   176  TYR176      0.1605
     69  C         47.1030   46.6180   59.9080 C.2   176  TYR176      0.2264
     70  O         46.1880   46.6480   60.7690 O.2   176  TYR176     -0.2867
     71  CB        46.9070   44.0990   59.9450 C.3   176  TYR176      0.0534
     72  CG        47.1340   42.8440   59.1660 C.ar  176  TYR176     -0.0201
     73  CD1       46.2350   42.4610   58.1600 C.ar  176  TYR176     -0.0009
     74  CD2       48.2890   42.0650   59.3810 C.ar  176  TYR176     -0.0009
     75  CE1       46.4640   41.3230   57.3760 C.ar  176  TYR176      0.0417
     76  CE2       48.5290   40.9370   58.6130 C.ar  176  TYR176      0.0417
     77  CZ        47.6250   40.5670   57.6190 C.ar  176  TYR176      0.1957
     78  OH        47.8490   39.4290   56.8490 O.3   176  TYR176     -0.2866
     79  N         37.2620   47.1520   49.1610 N.3   197  LEU197     -0.1245
     80  CA        36.0180   46.5170   49.6150 C.3   197  LEU197      0.1561
     81  C         34.8160   47.4820   49.4730 C.2   197  LEU197      0.2260
     82  O         33.6620   47.0490   49.6300 O.2   197  LEU197     -0.2867
     83  CB        36.1060   46.1190   51.1050 C.3   197  LEU197      0.0270
     84  CG        37.3010   45.2280   51.4780 C.3   197  LEU197      0.0019
     85  CD1       37.5140   45.1290   52.9660 C.3   197  LEU197      0.0001
     86  CD2       36.9710   43.8430   50.8870 C.3   197  LEU197      0.0001
     87  N         40.1340   32.4540   52.1230 N.3   229  TYR229     -0.1241
     88  CA        40.3970   33.3000   53.2950 C.3   229  TYR229      0.1605
     89  C         41.1200   32.5120   54.4070 C.2   229  TYR229      0.2264
     90  O         42.1120   32.9660   54.9170 O.2   229  TYR229     -0.2867
     91  CB        39.0940   33.9080   53.8700 C.3   229  TYR229      0.0534
     92  CG        39.4620   34.7570   55.0740 C.ar  229  TYR229     -0.0201
     93  CD1       40.1090   35.9920   54.9020 C.ar  229  TYR229     -0.0009
     94  CD2       39.2070   34.2900   56.4030 C.ar  229  TYR229     -0.0009
     95  CE1       40.4990   36.7720   56.0090 C.ar  229  TYR229      0.0417
     96  CE2       39.6350   35.0640   57.5230 C.ar  229  TYR229      0.0417
     97  CZ        40.2620   36.2740   57.3140 C.ar  229  TYR229      0.1957
     98  OH        40.6730   37.0590   58.3650 O.3   229  TYR229     -0.2866
     99  N         44.9360   33.0740   55.7660 N.3   233  PHE233     -0.1241
    100  CA        45.1640   33.3720   57.2080 C.3   233  PHE233      0.1605
    101  C         46.2370   32.3680   57.7290 C.2   233  PHE233      0.2264
    102  O         47.1980   32.7860   58.3680 O.2   233  PHE233     -0.2867
    103  CB        43.8750   33.1080   57.9980 C.3   233  PHE233      0.0534
    104  CG        43.9450   33.5320   59.4640 C.ar  233  PHE233     -0.0203
    105  CD1       43.5820   34.8410   59.8480 C.ar  233  PHE233     -0.0042
    106  CD2       44.3580   32.6340   60.4380 C.ar  233  PHE233     -0.0042
    107  CE1       43.6020   35.2190   61.1830 C.ar  233  PHE233     -0.0003
    108  CE2       44.4100   33.0200   61.8020 C.ar  233  PHE233     -0.0003
    109  CZ        44.0250   34.3180   62.1580 C.ar  233  PHE233     -0.0000
    110  N         52.4860   37.5650   59.9230 N.3   241  PHE241     -0.1241
    111  CA        52.1690   37.6370   61.3480 C.3   241  PHE241      0.1605
    112  C         53.4440   37.4660   62.1700 C.2   241  PHE241      0.2264
    113  O         53.4190   37.7450   63.3750 O.2   241  PHE241     -0.2867
    114  CB        51.2270   36.5110   61.8140 C.3   241  PHE241      0.0534
    115  CG        49.8520   36.5450   61.2180 C.ar  241  PHE241     -0.0203
    116  CD1       49.3740   37.6580   60.4880 C.ar  241  PHE241     -0.0042
    117  CD2       48.9960   35.4560   61.4390 C.ar  241  PHE241     -0.0042
    118  CE1       48.0620   37.6650   59.9920 C.ar  241  PHE241     -0.0003
    119  CE2       47.7070   35.4470   60.9240 C.ar  241  PHE241     -0.0003
    120  CZ        47.2390   36.5510   60.2170 C.ar  241  PHE241     -0.0000
    121  N         50.1980   44.0980   63.7460 N.3   247  HIS247     -0.1226
    122  CA        48.9910   44.0590   64.6140 C.3   247  HIS247      0.1752
    123  C         48.4180   42.6380   64.7580 C.2   247  HIS247      0.2595
    124  O         47.6810   42.3320   65.7330 O.2   247  HIS247     -0.2718
    125  CB        47.9290   45.0330   64.0470 C.3   247  HIS247      0.0759
    126  CG        46.6390   45.0900   64.8330 C.ar  247  HIS247      0.0818
    127  ND1       45.4880   44.4200   64.4370 N.ar  247  HIS247     -0.2268
    128  CD2       46.2970   45.7960   65.9530 C.ar  247  HIS247      0.1154
    129  CE1       44.5080   44.6700   65.3000 C.ar  247  HIS247      0.1986
    130  NE2       44.9700   45.5000   66.2270 N.ar  247  HIS247     -0.2212
    131  N         48.7170   41.7530   63.7860 N.am  248  ALA248     -0.1980
    132  CA        48.2330   40.3920   63.8710 C.3   248  ALA248      0.1597
    133  C         49.3090   39.4150   64.4590 C.2   248  ALA248      0.2287
    134  O         49.1570   38.2090   64.3730 O.2   248  ALA248     -0.2864
    135  CB        47.7540   39.9200   62.4920 C.3   248  ALA248      0.0319
    136  N         48.6480   36.1130   66.3980 N.3   251  TYR251     -0.1241
    137  CA        48.2410   34.8890   65.6540 C.3   251  TYR251      0.1605
    138  C         49.3880   33.9580   65.2580 C.2   251  TYR251      0.2264
    139  O         49.1230   32.8030   64.8850 O.2   251  TYR251     -0.2867
    140  CB        47.3600   35.1820   64.4000 C.3   251  TYR251      0.0534
    141  CG        45.9780   35.6900   64.7510 C.ar  251  TYR251     -0.0201
    142  CD1       45.0920   34.9290   65.5680 C.ar  251  TYR251     -0.0009
    143  CD2       45.5130   36.8900   64.2040 C.ar  251  TYR251     -0.0009
    144  CE1       43.7940   35.4030   65.8820 C.ar  251  TYR251      0.0417
    145  CE2       44.2170   37.3420   64.4890 C.ar  251  TYR251      0.0417
    146  CZ        43.3900   36.6080   65.3190 C.ar  251  TYR251      0.1957
    147  OH        42.1390   37.1050   65.5450 O.3   251  TYR251     -0.2866
    148  N         36.5880   34.9590   62.3400 N.3   266  ILE266     -0.1245
    149  CA        36.7300   36.2920   61.7090 C.3   266  ILE266      0.1561
    150  C         35.8170   36.3260   60.4440 C.2   266  ILE266      0.2260
    151  O         35.1620   37.3470   60.1620 O.2   266  ILE266     -0.2867
    152  CB        38.1810   36.6090   61.3330 C.3   266  ILE266      0.0252
    153  CG1       39.0080   36.8280   62.6020 C.3   266  ILE266      0.0019
    154  CG2       38.2680   37.8930   60.4710 C.3   266  ILE266      0.0019
    155  CD1       40.4720   36.5330   62.3730 C.3   266  ILE266      0.0001
    156  N         32.8700   38.9630   60.6930 N.3   270  ILE270     -0.1231
    157  CA        33.2440   40.2370   60.1030 C.3   270  ILE270      0.1692
    158  C         33.2090   40.1650   58.5610 C.2   270  ILE270      0.2592
    159  O         32.3900   40.8660   57.9200 O.2   270  ILE270     -0.2718
    160  CB        34.6300   40.7610   60.5480 C.3   270  ILE270      0.0266
    161  CG1       34.7370   40.8240   62.1430 C.3   270  ILE270      0.0019
    162  CG2       34.9970   42.1040   59.8470 C.3   270  ILE270      0.0020
    163  CD1       36.1600   41.1470   62.6400 C.3   270  ILE270      0.0001
    164  N         34.0390   39.2940   57.9770 N.am  271  ASN271     -0.1974
    165  CA        34.1510   39.3590   56.5080 C.3   271  ASN271      0.1688
    166  C         32.9410   38.8380   55.7820 C.2   271  ASN271      0.2292
    167  O         32.5320   39.4050   54.7690 O.2   271  ASN271     -0.2864
    168  CB        35.4610   38.6850   55.9950 C.3   271  ASN271      0.1181
    169  CG        36.7160   39.3990   56.5240 C.2   271  ASN271      0.2629
    170  OD1       36.7010   40.5930   56.8570 O.2   271  ASN271     -0.2716
    171  ND2       37.8060   38.6300   56.6830 N.am  271  ASN271     -0.0877
    172  N         30.0990   41.4140   56.0470 N.3   274  ASN274     -0.1240
    173  CA        30.4650   42.5920   55.2280 C.3   274  ASN274      0.1653
    174  C         30.1610   42.2540   53.7510 C.2   274  ASN274      0.2266
    175  O         29.5750   43.0710   53.0590 O.2   274  ASN274     -0.2867
    176  CB        31.9430   42.9500   55.4240 C.3   274  ASN274      0.1155
    177  CG        32.3300   44.2510   54.7760 C.2   274  ASN274      0.2627
    178  OD1       31.4800   45.0790   54.4660 O.2   274  ASN274     -0.2716
    179  ND2       33.6570   44.4930   54.6380 N.am  274  ASN274     -0.0877
@<TRIPOS>BOND
     1    79    80    1
     2    81    80    1
     3    81    82    2
     4    80    83    1
     5     3     4    2
     6     3     2    1
     7     1     2    1
     8    86    84    1
     9     8     9    1
    10    83    84    1
    11     2     5    1
    12    65    66   ar
    13    65    63   ar
    14    15    13   ar
    15    14    13   ar
    16    84    85    1
    17    66    64   ar
    18    13    12    1
    19    63    62   ar
    20    87    88    1
    21    12     9    1
    22     9    10    1
    23    64    62   ar
    24    62    61    1
    25     5     6    1
    26     5     7    1
    27    10    11    2
    28   175   174    2
    29    61    58    1
    30    88    91    1
    31    88    89    1
    32    48    47    2
    33    45    46    1
    34   174   173    1
    35    91    92    1
    36    49    46    1
    37    49    50    1
    38    89    90    2
    39   178   177    2
    40    47    46    1
    41    58    57    1
    42    58    59    1
    43   179   177   am
    44    44    43    2
    45   167   166    2
    46   177   176    1
    47    93    92   ar
    48    93    95   ar
    49    52    50   ar
    50    52    54   ar
    51    92    94   ar
    52   173   176    1
    53   173   172    1
    54    16    17    1
    55    50    51   ar
    56    59    60    2
    57    99   100    1
    58   166   165    1
    59    43    42    1
    60    54    55   ar
    61   168   165    1
    62   168   169    1
    63    95    97   ar
    64    21    22    1
    65    21    23    1
    66    21    20    1
    67    42    41    1
    68    94    96   ar
    69   165   164    1
    70   169   171   am
    71   169   170    2
    72    51    53   ar
    73    17    20    1
    74    17    18    1
    75    78    77    1
    76    55    53   ar
    77    55    56    1
    78   100   101    1
    79   100   103    1
    80    97    96   ar
    81    97    98    1
    82    75    77   ar
    83    75    73   ar
    84    19    18    2
    85    41    34   am
    86    77    76   ar
    87   101   102    2
    88   159   158    2
    89   164   158   am
    90   103   104    1
    91    73    72   ar
    92    35    34    2
    93   158   157    1
    94    34    33    1
    95    76    74   ar
    96    67    68    1
    97    72    74   ar
    98    72    71    1
    99    68    69    1
   100    68    71    1
   101   104   105   ar
   102   104   106   ar
   103    39    40    1
   104    39    38    1
   105    37    36    1
   106    37    38    1
   107   162   160    1
   108   105   107   ar
   109    69    70    2
   110   110   111    1
   111   118   120   ar
   112   118   116   ar
   113    33    36    1
   114    33    32    1
   115   157   160    1
   116   157   156    1
   117   151   150    2
   118   120   119   ar
   119   106   108   ar
   120   150   149    1
   121   154   152    1
   122   116   115   ar
   123   160   161    1
   124   119   117   ar
   125   107   109   ar
   126   115   117   ar
   127   115   114    1
   128   152   149    1
   129   152   153    1
   130   111   114    1
   131   111   112    1
   132   149   148    1
   133   108   109   ar
   134   161   163    1
   135   112   113    2
   136   155   153    1
   137   135   132    1
   138   121   122    1
   139   131   132    1
   140   131   123   am
   141   132   133    1
   142    27    26    2
   143   125   122    1
   144   125   126    1
   145   143   145   ar
   146   143   141   ar
   147   134   133    2
   148   140   141    1
   149   140   137    1
   150    31    30    1
   151   127   126   ar
   152   127   129   ar
   153   145   146   ar
   154   122   123    1
   155   141   142   ar
   156   123   124    2
   157    26    25    1
   158   126   128   ar
   159   139   138    2
   160    30    29    1
   161   138   137    1
   162   129   130   ar
   163    25    24    1
   164    25    28    1
   165   146   147    1
   166   146   144   ar
   167   142   144   ar
   168   137   136    1
   169   128   130   ar
   170    28    29    1
