@<TRIPOS>MOLECULE
tmp/5xlwB00.pdb
 125 117 0 0 0
SMALL
GASTEIGER

@<TRIPOS>ATOM
      1  N         23.4150   64.5600   51.6890 N.3    93  VAL93      -0.1245
      2  CA        22.0570   64.8380   52.1810 C.3    93  VAL93       0.1561
      3  C         21.6960   66.2600   51.6870 C.2    93  VAL93       0.2260
      4  O         22.5640   67.1380   51.6890 O.2    93  VAL93      -0.2867
      5  CB        21.9730   64.8120   53.7200 C.3    93  VAL93       0.0252
      6  CG1       20.5520   65.1090   54.1370 C.3    93  VAL93       0.0019
      7  CG2       22.3710   63.4160   54.3140 C.3    93  VAL93       0.0019
      8  N         18.0940   54.6960   52.0430 N.3   123  ASP123     -0.1239
      9  CA        17.6590   55.1050   53.4050 C.3   123  ASP123      0.1674
     10  C         16.8960   53.8880   53.9990 C.2   123  ASP123      0.2266
     11  O         16.9470   53.6150   55.1510 O.2   123  ASP123     -0.2867
     12  CB        16.7040   56.3050   53.4280 C.3   123  ASP123      0.1410
     13  CG        17.2520   57.5590   52.7920 C.2   123  ASP123      0.3668
     14  OD1       18.4800   57.6640   52.6090 O.co2 123  ASP123     -0.2456
     15  OD2       16.3950   58.4650   52.4500 O.co2 123  ASP123     -0.2456
     16  N         19.0420   51.6740   56.2440 N.3   126  LEU126     -0.1245
     17  CA        19.4410   52.0200   57.5980 C.3   126  LEU126      0.1561
     18  C         18.9140   51.0230   58.6580 C.2   126  LEU126      0.2260
     19  O         17.8900   50.3530   58.4470 O.2   126  LEU126     -0.2867
     20  CB        19.0600   53.4280   57.9290 C.3   126  LEU126      0.0270
     21  CG        19.7730   54.4990   57.1240 C.3   126  LEU126      0.0019
     22  CD1       19.0530   55.8540   57.2640 C.3   126  LEU126      0.0001
     23  CD2       21.2060   54.6980   57.5260 C.3   126  LEU126      0.0001
     24  N         24.3730   58.1900   62.0350 N.3   141  LYS141     -0.1231
     25  CA        23.3250   57.8440   61.0780 C.3   141  LYS141      0.1693
     26  C         23.6920   58.3900   59.6740 C.2   141  LYS141      0.2592
     27  O         24.1100   59.5520   59.5310 O.2   141  LYS141     -0.2718
     28  CB        21.9840   58.4110   61.5330 C.3   141  LYS141      0.0285
     29  CG        20.7920   57.7780   60.8520 C.3   141  LYS141      0.0035
     30  CD        19.5050   58.5970   61.0840 C.3   141  LYS141      0.0206
     31  CE        18.3110   57.7070   61.3150 C.3   141  LYS141      0.1093
     32  NZ        17.2350   58.4070   62.0770 N.3   141  LYS141     -0.1314
     33  N         23.5590   57.5270   58.6760 N.am  142  GLY142     -0.1957
     34  CA        23.9680   57.8580   57.3040 C.3   142  GLY142      0.1869
     35  C         25.4470   57.5800   56.9660 C.2   142  GLY142      0.2309
     36  O         25.8080   57.6670   55.7940 O.2   142  GLY142     -0.2863
     37  N         24.2110   51.2690   57.9420 N.3   147  TYR147     -0.1241
     38  CA        23.3740   50.5190   57.0310 C.3   147  TYR147      0.1605
     39  C         23.5810   49.0340   57.1490 C.2   147  TYR147      0.2264
     40  O         24.6900   48.5950   57.3480 O.2   147  TYR147     -0.2867
     41  CB        23.8330   50.8840   55.6290 C.3   147  TYR147      0.0534
     42  CG        23.5540   52.2800   55.2180 C.ar  147  TYR147     -0.0201
     43  CD1       22.3300   52.5980   54.6170 C.ar  147  TYR147     -0.0009
     44  CD2       24.4550   53.2900   55.4340 C.ar  147  TYR147     -0.0009
     45  CE1       22.0490   53.8830   54.2490 C.ar  147  TYR147      0.0417
     46  CE2       24.1650   54.6030   55.0290 C.ar  147  TYR147      0.0417
     47  CZ        22.9340   54.8630   54.4450 C.ar  147  TYR147      0.1957
     48  OH        22.5990   56.1160   54.0360 O.3   147  TYR147     -0.2866
     49  N         12.0970   53.6190   54.8720 N.3   171  TYR171     -0.1241
     50  CA        12.4320   54.6260   55.8360 C.3   171  TYR171      0.1605
     51  C         11.4060   55.7710   55.7740 C.2   171  TYR171      0.2264
     52  O         11.0050   56.0930   54.7200 O.2   171  TYR171     -0.2867
     53  CB        13.7560   55.2620   55.4490 C.3   171  TYR171      0.0534
     54  CG        14.3240   56.1900   56.5070 C.ar  171  TYR171     -0.0201
     55  CD1       14.8630   55.6780   57.6990 C.ar  171  TYR171     -0.0009
     56  CD2       14.2710   57.5330   56.3720 C.ar  171  TYR171     -0.0009
     57  CE1       15.4100   56.5210   58.6640 C.ar  171  TYR171      0.0417
     58  CE2       14.7740   58.3900   57.3520 C.ar  171  TYR171      0.0417
     59  CZ        15.3840   57.8390   58.4770 C.ar  171  TYR171      0.1957
     60  OH        15.9210   58.6400   59.4400 O.3   171  TYR171     -0.2866
     61  N         10.9050   59.5590   56.4050 N.3   173  HIS173     -0.1241
     62  CA        11.6280   60.7710   56.7280 C.3   173  HIS173      0.1621
     63  C         10.8970   61.6100   57.7780 C.2   173  HIS173      0.2264
     64  O         11.5140   62.3760   58.5060 O.2   173  HIS173     -0.2867
     65  CB        11.8580   61.5660   55.4530 C.3   173  HIS173      0.0745
     66  CG        12.7530   60.8570   54.5030 C.ar  173  HIS173      0.0817
     67  ND1       12.2770   59.9410   53.5900 N.ar  173  HIS173     -0.2268
     68  CD2       14.1020   60.8390   54.4010 C.ar  173  HIS173      0.1154
     69  CE1       13.2990   59.4050   52.9430 C.ar  173  HIS173      0.1986
     70  NE2       14.4130   59.9450   53.4120 N.ar  173  HIS173     -0.2212
     71  N         23.2660   57.8520   50.0760 N.3   197  LEU197     -0.1245
     72  CA        24.4500   58.4800   50.5360 C.3   197  LEU197      0.1561
     73  C         25.6320   57.5570   50.3300 C.2   197  LEU197      0.2260
     74  O         26.7450   58.0360   50.2290 O.2   197  LEU197     -0.2867
     75  CB        24.3410   58.7700   52.0160 C.3   197  LEU197      0.0270
     76  CG        23.1770   59.6680   52.4890 C.3   197  LEU197      0.0019
     77  CD1       23.2150   59.8000   53.9970 C.3   197  LEU197      0.0001
     78  CD2       23.3040   61.0480   51.8370 C.3   197  LEU197      0.0001
     79  N         19.9460   72.2640   53.6060 N.3   229  TYR229     -0.1241
     80  CA        19.6530   71.2860   54.6220 C.3   229  TYR229      0.1605
     81  C         18.8340   72.0090   55.6890 C.2   229  TYR229      0.2264
     82  O         17.8210   71.4780   56.1860 O.2   229  TYR229     -0.2867
     83  CB        20.9160   70.6480   55.2730 C.3   229  TYR229      0.0534
     84  CG        20.5130   69.7080   56.4240 C.ar  229  TYR229     -0.0201
     85  CD1       19.8900   68.5070   56.1570 C.ar  229  TYR229     -0.0009
     86  CD2       20.6190   70.0880   57.7550 C.ar  229  TYR229     -0.0009
     87  CE1       19.4490   67.6590   57.1790 C.ar  229  TYR229      0.0417
     88  CE2       20.1770   69.2460   58.8080 C.ar  229  TYR229      0.0417
     89  CZ        19.5950   68.0430   58.5100 C.ar  229  TYR229      0.1957
     90  OH        19.1120   67.2010   59.4810 O.3   229  TYR229     -0.2866
     91  N         15.3560   72.6380   54.5160 N.3   232  ARG232     -0.1245
     92  CA        14.5190   71.4380   54.4590 C.3   232  ARG232      0.1563
     93  C         14.0930   70.9920   55.8660 C.2   232  ARG232      0.2260
     94  O         13.0340   70.4010   56.0560 O.2   232  ARG232     -0.2867
     95  CB        15.2720   70.2960   53.7940 C.3   232  ARG232      0.0307
     96  CG        14.5060   68.9870   53.9520 C.3   232  ARG232      0.0489
     97  CD        15.2710   67.8170   53.4180 C.3   232  ARG232      0.2205
     98  NE        15.4190   67.9010   51.9750 N.pl3 232  ARG232     -0.0865
     99  CZ        16.1160   67.0140   51.2760 C.cat 232  ARG232      0.5346
    100  NH1       16.7310   65.9760   51.8750 N.pl3 232  ARG232      0.1354
    101  NH2       16.2340   67.1780   49.9980 N.pl3 232  ARG232      0.1354
    102  N         23.1290   69.4040   63.5680 N.3   266  ILE266     -0.1245
    103  CA        23.1390   68.1140   62.9000 C.3   266  ILE266      0.1561
    104  C         24.0900   68.1280   61.6650 C.2   266  ILE266      0.2260
    105  O         24.8770   67.2100   61.4400 O.2   266  ILE266     -0.2867
    106  CB        21.7200   67.7570   62.5310 C.3   266  ILE266      0.0252
    107  CG1       20.9790   67.3910   63.8040 C.3   266  ILE266      0.0019
    108  CG2       21.6860   66.5820   61.5650 C.3   266  ILE266      0.0019
    109  CD1       19.5310   66.9940   63.5830 C.3   266  ILE266      0.0001
    110  N         27.1580   65.6350   62.0020 N.3   270  ILE270     -0.1231
    111  CA        26.8600   64.4050   61.2930 C.3   270  ILE270      0.1692
    112  C         27.0330   64.5060   59.7470 C.2   270  ILE270      0.2592
    113  O         27.8980   63.8620   59.1460 O.2   270  ILE270     -0.2718
    114  CB        25.4690   63.9170   61.6560 C.3   270  ILE270      0.0266
    115  CG1       25.3940   63.7460   63.1830 C.3   270  ILE270      0.0019
    116  CG2       25.1560   62.6030   60.8870 C.3   270  ILE270      0.0020
    117  CD1       24.1540   63.0080   63.7090 C.3   270  ILE270      0.0001
    118  N         26.1970   65.3190   59.1210 N.am  271  ASN271     -0.1974
    119  CA        26.0340   65.2860   57.6910 C.3   271  ASN271      0.1688
    120  C         27.2250   65.8300   56.9580 C.2   271  ASN271      0.2292
    121  O         27.6440   65.2890   55.9310 O.2   271  ASN271     -0.2864
    122  CB        24.8000   66.0570   57.2960 C.3   271  ASN271      0.1181
    123  CG        23.5550   65.3240   57.6560 C.2   271  ASN271      0.2629
    124  OD1       23.5890   64.1160   57.9090 O.2   271  ASN271     -0.2716
    125  ND2       22.4240   66.0480   57.7020 N.am  271  ASN271     -0.0877
@<TRIPOS>BOND
     1   101    99    1
     2    71    72    1
     3    74    73    2
     4    73    72    1
     5    72    75    1
     6    99   100    1
     7    99    98    2
     8     3     4    2
     9     3     2    1
    10     1     2    1
    11    78    76    1
    12    98    97    1
    13    75    76    1
    14     8     9    1
    15     2     5    1
    16    15    13   ar
    17    76    77    1
    18    14    13   ar
    19    13    12    1
    20    69    70   ar
    21    69    67   ar
    22     9    12    1
    23     9    10    1
    24    70    68   ar
    25    97    96    1
    26    67    66   ar
    27    79    80    1
    28     5     6    1
    29     5     7    1
    30    95    96    1
    31    95    92    1
    32    10    11    2
    33    48    47    1
    34    45    47   ar
    35    45    43   ar
    36    68    66   ar
    37    47    46   ar
    38    92    91    1
    39    92    93    1
    40    66    65    1
    41    43    42   ar
    42    80    83    1
    43    80    81    1
    44    52    51    2
    45    49    50    1
    46    46    44   ar
    47    42    44   ar
    48    42    41    1
    49    83    84    1
    50    53    50    1
    51    53    54    1
    52    65    62    1
    53    41    38    1
    54    81    82    2
    55    51    50    1
    56    36    35    2
    57    93    94    2
    58   121   120    2
    59    85    84   ar
    60    85    87   ar
    61    16    17    1
    62    56    54   ar
    63    56    58   ar
    64    61    62    1
    65    84    86   ar
    66    54    55   ar
    67    62    63    1
    68   120   119    1
    69    35    34    1
    70    38    39    1
    71    38    37    1
    72    21    22    1
    73    21    23    1
    74    21    20    1
    75    39    40    2
    76    87    89   ar
    77   122   123    1
    78   122   119    1
    79    34    33    1
    80    58    59   ar
    81    17    20    1
    82    17    18    1
    83   123   125   am
    84   123   124    2
    85   119   118    1
    86    55    57   ar
    87    86    88   ar
    88    63    64    2
    89    19    18    2
    90    59    57   ar
    91    59    60    1
    92    89    88   ar
    93    89    90    1
    94    33    26   am
    95   118   112   am
    96   113   112    2
    97    27    26    2
    98    26    25    1
    99   112   111    1
   100    29    30    1
   101    29    28    1
   102   116   114    1
   103    25    28    1
   104    25    24    1
   105    30    31    1
   106   111   114    1
   107   111   110    1
   108    31    32    1
   109   105   104    2
   110   108   106    1
   111   114   115    1
   112   104   103    1
   113   106   103    1
   114   106   107    1
   115   103   102    1
   116   115   117    1
   117   109   107    1
