@<TRIPOS>MOLECULE
tmp/5xlwA00.pdb
 164 155 0 0 0
SMALL
GASTEIGER

@<TRIPOS>ATOM
      1  N         49.5350   34.1570   40.5670 N.3    93  VAL93      -0.1245
      2  CA        50.7970   33.8420   39.9110 C.3    93  VAL93       0.1561
      3  C         50.6760   32.3910   39.3410 C.2    93  VAL93       0.2260
      4  O         50.1170   31.5350   39.9750 O.2    93  VAL93      -0.2867
      5  CB        51.9340   33.8930   40.8990 C.3    93  VAL93       0.0252
      6  CG1       53.2120   33.4950   40.2090 C.3    93  VAL93       0.0019
      7  CG2       52.0880   35.3010   41.4550 C.3    93  VAL93       0.0019
      8  N         52.8510   44.1000   36.4500 N.3   123  ASP123     -0.1239
      9  CA        54.2500   43.8900   36.9240 C.3   123  ASP123      0.1674
     10  C         55.0930   45.1610   36.7600 C.2   123  ASP123      0.2266
     11  O         55.8620   45.5410   37.6430 O.2   123  ASP123     -0.2867
     12  CB        54.9190   42.8100   36.1050 C.3   123  ASP123      0.1410
     13  CG        54.2430   41.4640   36.2500 C.2   123  ASP123      0.3668
     14  OD1       53.3020   41.3600   37.0730 O.co2 123  ASP123     -0.2456
     15  OD2       54.6190   40.5240   35.5100 O.co2 123  ASP123     -0.2456
     16  N         55.1440   47.4720   39.6730 N.3   126  LEU126     -0.1245
     17  CA        55.8640   47.0770   40.9160 C.3   126  LEU126      0.1561
     18  C         56.8830   48.1190   41.2670 C.2   126  LEU126      0.2260
     19  O         57.4850   48.6820   40.3810 O.2   126  LEU126     -0.2867
     20  CB        56.5710   45.7460   40.7370 C.3   126  LEU126      0.0270
     21  CG        55.5690   44.6210   40.7970 C.3   126  LEU126      0.0019
     22  CD1       56.2400   43.4670   40.1990 C.3   126  LEU126      0.0001
     23  CD2       55.1240   44.2950   42.1950 C.3   126  LEU126      0.0001
     24  N         60.3470   43.1030   50.1270 N.3   138  MET138     -0.1245
     25  CA        60.7840   42.1640   49.1020 C.3   138  MET138      0.1570
     26  C         60.0490   40.8570   49.1830 C.2   138  MET138      0.2261
     27  O         59.7510   40.1950   48.1880 O.2   138  MET138     -0.2867
     28  CB        62.2650   41.8160   49.2170 C.3   138  MET138      0.0387
     29  CG        63.1870   42.6660   48.4340 C.3   138  MET138      0.0595
     30  SD        63.0930   42.7310   46.6450 S.3   138  MET138     -0.1393
     31  CE        63.0960   41.0750   46.0700 C.3   138  MET138      0.0692
     32  N         56.4890   41.0170   47.5510 N.3   141  LYS141     -0.1231
     33  CA        56.4330   41.3810   46.1970 C.3   141  LYS141      0.1693
     34  C         55.2150   40.7640   45.5590 C.2   141  LYS141      0.2592
     35  O         55.0390   39.5460   45.6250 O.2   141  LYS141     -0.2718
     36  CB        57.6940   40.9580   45.4240 C.3   141  LYS141      0.0285
     37  CG        57.6010   41.3850   43.9930 C.3   141  LYS141      0.0035
     38  CD        58.7650   40.8580   43.1290 C.3   141  LYS141      0.0206
     39  CE        59.7400   41.9720   42.8480 C.3   141  LYS141      0.1093
     40  NZ        60.8850   41.5970   41.9660 N.3   141  LYS141     -0.1314
     41  N         54.4260   41.6010   44.8680 N.am  142  GLY142     -0.1957
     42  CA        53.1610   41.1040   44.2950 C.3   142  GLY142      0.1869
     43  C         51.9560   41.3610   45.2380 C.2   142  GLY142      0.2309
     44  O         50.8410   41.3380   44.7950 O.2   142  GLY142     -0.2863
     45  N         53.0610   47.6590   44.7690 N.3   147  TYR147     -0.1241
     46  CA        52.8870   48.4040   43.5400 C.3   147  TYR147      0.1605
     47  C         52.8310   49.8920   43.7870 C.2   147  TYR147      0.2264
     48  O         52.3760   50.2970   44.8150 O.2   147  TYR147     -0.2867
     49  CB        51.5590   48.0280   42.8690 C.3   147  TYR147      0.0534
     50  CG        51.5020   46.5840   42.4060 C.ar  147  TYR147     -0.0201
     51  CD1       51.1460   45.6220   43.2640 C.ar  147  TYR147     -0.0009
     52  CD2       51.8410   46.2310   41.1480 C.ar  147  TYR147     -0.0009
     53  CE1       51.0570   44.2700   42.8970 C.ar  147  TYR147      0.0417
     54  CE2       51.8050   44.8960   40.7250 C.ar  147  TYR147      0.0417
     55  CZ        51.4330   43.8840   41.6320 C.ar  147  TYR147      0.1957
     56  OH        51.3630   42.5340   41.2540 O.3   147  TYR147     -0.2866
     57  N         58.9090   45.7180   33.4210 N.3   171  TYR171     -0.1241
     58  CA        59.4560   44.7820   34.3990 C.3   171  TYR171      0.1605
     59  C         60.1490   43.7820   33.5300 C.2   171  TYR171      0.2264
     60  O         59.6060   43.3310   32.5090 O.2   171  TYR171     -0.2867
     61  CB        58.3640   44.0600   35.1870 C.3   171  TYR171      0.0534
     62  CG        58.8450   43.1630   36.2820 C.ar  171  TYR171     -0.0201
     63  CD1       59.2180   43.6910   37.4930 C.ar  171  TYR171     -0.0009
     64  CD2       58.9190   41.7450   36.1070 C.ar  171  TYR171     -0.0009
     65  CE1       59.6630   42.8820   38.5000 C.ar  171  TYR171      0.0417
     66  CE2       59.3500   40.9310   37.1390 C.ar  171  TYR171      0.0417
     67  CZ        59.7150   41.5170   38.3290 C.ar  171  TYR171      0.1957
     68  OH        60.1720   40.7810   39.3810 O.3   171  TYR171     -0.2866
     69  N         61.6680   40.1140   33.3760 N.3   173  HIS173     -0.1241
     70  CA        61.6910   38.7590   33.9660 C.3   173  HIS173      0.1621
     71  C         63.0970   38.2000   34.0620 C.2   173  HIS173      0.2264
     72  O         63.4340   37.4400   34.9560 O.2   173  HIS173     -0.2867
     73  CB        60.7150   37.8210   33.2380 C.3   173  HIS173      0.0745
     74  CG        59.2810   38.1930   33.4930 C.ar  173  HIS173      0.0817
     75  ND1       58.5160   37.5800   34.4610 N.ar  173  HIS173     -0.2268
     76  CD2       58.5220   39.2020   33.0030 C.ar  173  HIS173      0.1154
     77  CE1       57.3300   38.1630   34.5230 C.ar  173  HIS173      0.1986
     78  NE2       57.3100   39.1600   33.6530 N.ar  173  HIS173     -0.2212
     79  N         64.2470   40.0800   37.1490 N.3   176  TYR176     -0.1241
     80  CA        63.2770   40.1570   38.2480 C.3   176  TYR176      0.1605
     81  C         63.2150   41.5170   38.8470 C.2   176  TYR176      0.2264
     82  O         63.2100   41.6530   40.0550 O.2   176  TYR176     -0.2867
     83  CB        63.6220   39.1950   39.3430 C.3   176  TYR176      0.0534
     84  CG        63.7980   37.7850   38.8530 C.ar  176  TYR176     -0.0201
     85  CD1       62.7030   36.9980   38.5740 C.ar  176  TYR176     -0.0009
     86  CD2       65.0670   37.2500   38.6330 C.ar  176  TYR176     -0.0009
     87  CE1       62.8490   35.6940   38.1180 C.ar  176  TYR176      0.0417
     88  CE2       65.2280   35.9430   38.1780 C.ar  176  TYR176      0.0417
     89  CZ        64.1080   35.1560   37.9460 C.ar  176  TYR176      0.1957
     90  OH        64.2270   33.8450   37.5110 O.3   176  TYR176     -0.2866
     91  N         48.2350   40.6680   39.0020 N.3   197  LEU197     -0.1245
     92  CA        47.8050   40.0570   40.2520 C.3   197  LEU197      0.1561
     93  C         46.6990   40.8890   40.8940 C.2   197  LEU197      0.2260
     94  O         45.7400   40.3380   41.3460 O.2   197  LEU197     -0.2867
     95  CB        48.9530   39.9330   41.2480 C.3   197  LEU197      0.0270
     96  CG        50.1010   39.0560   40.7460 C.3   197  LEU197      0.0019
     97  CD1       51.3080   38.9850   41.6600 C.3   197  LEU197      0.0001
     98  CD2       49.6010   37.6420   40.4490 C.3   197  LEU197      0.0001
     99  N         53.3250   26.4150   39.3360 N.3   229  TYR229     -0.1241
    100  CA        54.3430   27.3190   39.7180 C.3   229  TYR229      0.1605
    101  C         55.7010   26.5940   39.8300 C.2   229  TYR229      0.2264
    102  O         56.7490   27.1040   39.4190 O.2   229  TYR229     -0.2867
    103  CB        53.9990   27.9450   41.0660 C.3   229  TYR229      0.0534
    104  CG        55.0450   28.9400   41.4630 C.ar  229  TYR229     -0.0201
    105  CD1       55.1760   30.1140   40.7590 C.ar  229  TYR229     -0.0009
    106  CD2       55.9590   28.6580   42.4890 C.ar  229  TYR229     -0.0009
    107  CE1       56.1320   31.0400   41.1020 C.ar  229  TYR229      0.0417
    108  CE2       56.9420   29.5620   42.8160 C.ar  229  TYR229      0.0417
    109  CZ        57.0320   30.7430   42.1070 C.ar  229  TYR229      0.1957
    110  OH        58.0040   31.6460   42.3770 O.3   229  TYR229     -0.2866
    111  N         57.0520   25.7910   36.4030 N.3   232  ARG232     -0.1231
    112  CA        57.6240   26.9850   35.8400 C.3   232  ARG232      0.1694
    113  C         58.9660   27.3160   36.5380 C.2   232  ARG232      0.2592
    114  O         59.9040   27.7540   35.9060 O.2   232  ARG232     -0.2718
    115  CB        56.6740   28.1810   35.9660 C.3   232  ARG232      0.0321
    116  CG        57.3860   29.5280   35.6740 C.3   232  ARG232      0.0489
    117  CD        56.4690   30.7450   35.7240 C.3   232  ARG232      0.2205
    118  NE        55.2820   30.5970   34.8750 N.pl3 232  ARG232     -0.0865
    119  CZ        54.1900   31.3630   34.9460 C.cat 232  ARG232      0.5346
    120  NH1       54.1190   32.3530   35.8370 N.pl3 232  ARG232      0.1354
    121  NH2       53.1660   31.1220   34.1290 N.pl3 232  ARG232      0.1354
    122  N         59.0390   27.1430   37.8430 N.am  233  PHE233     -0.1976
    123  CA        60.2620   27.4990   38.5440 C.3   233  PHE233      0.1639
    124  C         61.3570   26.5490   38.0410 C.2   233  PHE233      0.2290
    125  O         62.4130   27.0310   37.6650 O.2   233  PHE233     -0.2864
    126  CB        60.0990   27.4820   40.0620 C.3   233  PHE233      0.0560
    127  CG        61.2820   28.0150   40.8190 C.ar  233  PHE233     -0.0200
    128  CD1       62.3130   27.1680   41.2260 C.ar  233  PHE233     -0.0042
    129  CD2       61.3680   29.3620   41.1500 C.ar  233  PHE233     -0.0042
    130  CE1       63.4120   27.6660   41.9420 C.ar  233  PHE233     -0.0003
    131  CE2       62.4440   29.8610   41.8670 C.ar  233  PHE233     -0.0003
    132  CZ        63.4780   29.0190   42.2610 C.ar  233  PHE233     -0.0000
    133  N         63.1010   27.5510   34.8010 N.3   236  MET236     -0.1245
    134  CA        63.7540   28.8760   34.7020 C.3   236  MET236      0.1570
    135  C         65.2530   28.8190   35.0870 C.2   236  MET236      0.2261
    136  O         65.7520   27.8150   35.6300 O.2   236  MET236     -0.2867
    137  CB        62.9750   29.9470   35.5270 C.3   236  MET236      0.0387
    138  CG        61.5750   30.1760   35.0380 C.3   236  MET236      0.0595
    139  SD        61.4850   30.9540   33.3780 S.3   236  MET236     -0.1393
    140  CE        61.9570   32.6130   33.7330 C.3   236  MET236      0.0692
    141  N         58.6630   29.6240   48.0820 N.3   247  ILE247     -0.1245
    142  CA        58.2060   30.9140   47.5420 C.3   247  ILE247      0.1561
    143  C         56.6700   30.8850   47.4880 C.2   247  ILE247      0.2260
    144  O         56.0250   31.8380   47.9300 O.2   247  ILE247     -0.2867
    145  CB        58.7820   31.1700   46.1470 C.3   247  ILE247      0.0252
    146  CG1       60.2660   31.4710   46.2610 C.3   247  ILE247      0.0019
    147  CG2       58.1160   32.3730   45.4450 C.3   247  ILE247      0.0019
    148  CD1       60.9860   31.5590   44.9040 C.3   247  ILE247      0.0001
    149  N         55.0310   33.4010   50.0060 N.3   251  ILE251     -0.1231
    150  CA        54.6660   34.5980   49.2590 C.3   251  ILE251      0.1692
    151  C         53.4280   34.4190   48.3680 C.2   251  ILE251      0.2592
    152  O         52.4280   35.0970   48.5540 O.2   251  ILE251     -0.2718
    153  CB        55.8200   35.0240   48.3450 C.3   251  ILE251      0.0266
    154  CG1       57.0940   35.1600   49.1570 C.3   251  ILE251      0.0019
    155  CG2       55.4680   36.3500   47.7200 C.3   251  ILE251      0.0020
    156  CD1       58.3130   35.6540   48.3440 C.3   251  ILE251      0.0001
    157  N         53.4860   33.5310   47.4070 N.am  252  ASN252     -0.1974
    158  CA        52.4320   33.5240   46.3920 C.3   252  ASN252      0.1688
    159  C         51.0440   32.9710   46.8360 C.2   252  ASN252      0.2292
    160  O         50.0090   33.4740   46.3820 O.2   252  ASN252     -0.2864
    161  CB        52.8590   32.8960   45.0720 C.3   252  ASN252      0.1181
    162  CG        54.0000   33.6430   44.4000 C.2   252  ASN252      0.2629
    163  OD1       54.1720   34.8580   44.5840 O.2   252  ASN252     -0.2716
    164  ND2       54.7960   32.9070   43.5690 N.am  252  ASN252     -0.0877
@<TRIPOS>BOND
     1    60    59    2
     2    76    74   ar
     3    76    78   ar
     4    73    74    1
     5    73    70    1
     6    69    70    1
     7   139   140    1
     8   139   138    1
     9    57    58    1
    10    74    75   ar
    11    59    58    1
    12    78    77   ar
    13    70    71    1
    14    71    72    2
    15   121   119    1
    16    58    61    1
    17    75    77   ar
    18   134   133    1
    19   134   135    1
    20   134   137    1
    21   118   119    2
    22   118   117    1
    23   119   120    1
    24   138   137    1
    25   135   136    2
    26    61    62    1
    27    15    13   ar
    28   116   117    1
    29   116   115    1
    30   112   115    1
    31   112   111    1
    32   112   113    1
    33   114   113    2
    34    12    13    1
    35    12     9    1
    36    64    62   ar
    37    64    66   ar
    38    13    14   ar
    39    62    63   ar
    40     8     9    1
    41   113   122   am
    42    10     9    1
    43    10    11    2
    44    66    67   ar
    45    79    80    1
    46    63    65   ar
    47    90    89    1
    48   125   124    2
    49   122   123    1
    50    89    87   ar
    51    89    88   ar
    52   124   123    1
    53    87    85   ar
    54    88    86   ar
    55    80    81    1
    56    80    83    1
    57    67    65   ar
    58    67    68    1
    59   123   126    1
    60    85    84   ar
    61    86    84   ar
    62    81    82    2
    63    84    83    1
    64    91    92    1
    65    99   100    1
    66     3     2    1
    67     3     4    2
    68   102   101    2
    69    16    17    1
    70   100   101    1
    71   100   103    1
    72     2     1    1
    73     2     5    1
    74   126   127    1
    75    22    21    1
    76     6     5    1
    77    92    93    1
    78    92    95    1
    79    19    18    2
    80    98    96    1
    81    54    52   ar
    82    54    55   ar
    83    20    21    1
    84    20    17    1
    85    96    95    1
    86    96    97    1
    87   105   107   ar
    88   105   104   ar
    89    21    23    1
    90   127   129   ar
    91   127   128   ar
    92    93    94    2
    93     5     7    1
    94    17    18    1
    95   103   104    1
    96   107   109   ar
    97    52    50   ar
    98   129   131   ar
    99   128   130   ar
   100    56    55    1
   101   104   106   ar
   102    55    53   ar
   103   131   132   ar
   104   130   132   ar
   105    40    39    1
   106   109   110    1
   107   109   108   ar
   108    50    49    1
   109    50    51   ar
   110   106   108   ar
   111    39    38    1
   112    49    46    1
   113    53    51   ar
   114    38    37    1
   115    46    47    1
   116    46    45    1
   117   164   162   am
   118    47    48    2
   119    37    36    1
   120    42    41    1
   121    42    43    1
   122   162   163    2
   123   162   161    1
   124    44    43    2
   125    41    34   am
   126   148   146    1
   127   161   158    1
   128    36    33    1
   129   147   145    1
   130    34    35    2
   131    34    33    1
   132    31    30    1
   133   145   146    1
   134   145   142    1
   135    33    32    1
   136   160   159    2
   137   158   159    1
   138   158   157    1
   139    30    29    1
   140   157   151   am
   141   143   142    1
   142   143   144    2
   143   142   141    1
   144   155   153    1
   145    27    26    2
   146   156   154    1
   147   153   154    1
   148   153   150    1
   149   151   152    2
   150   151   150    1
   151    29    28    1
   152    25    26    1
   153    25    28    1
   154    25    24    1
   155   150   149    1
