@<TRIPOS>MOLECULE
tmp/5xlxB00.pdb
 161 154 0 0 0
SMALL
GASTEIGER

@<TRIPOS>ATOM
      1  N        -13.2020  -16.7760  -35.9000 N.3     1  THR1       -0.1218
      2  CA       -12.7220  -15.6520  -36.6930 C.3     1  THR1        0.1862
      3  C        -11.9630  -16.1440  -37.9180 C.2     1  THR1        0.2287
      4  O        -11.5030  -17.2860  -37.9570 O.2     1  THR1       -0.2866
      5  CB       -11.8100  -14.7190  -35.8630 C.3     1  THR1        0.1770
      6  OG1      -11.7720  -13.4200  -36.4670 O.3     1  THR1       -0.2211
      7  CG2      -10.3960  -15.2780  -35.7830 C.3     1  THR1        0.0375
      8  N        -13.2900  -11.3420  -42.8030 N.3     5  ARG5       -0.1245
      9  CA       -14.5650  -11.9960  -42.5350 C.3     5  ARG5        0.1563
     10  C        -15.7220  -11.2430  -43.1810 C.2     5  ARG5        0.2260
     11  O        -15.8810  -10.0340  -42.9830 O.2     5  ARG5       -0.2867
     12  CB       -14.7820  -12.1050  -41.0270 C.3     5  ARG5        0.0307
     13  CG       -16.0210  -12.8870  -40.6410 C.3     5  ARG5        0.0489
     14  CD       -16.0770  -13.1150  -39.1450 C.3     5  ARG5        0.2205
     15  NE       -17.1600  -14.0220  -38.7870 N.pl3   5  ARG5       -0.0865
     16  CZ       -17.3300  -14.5390  -37.5760 C.cat   5  ARG5        0.5346
     17  NH1      -16.4810  -14.2400  -36.6020 N.pl3   5  ARG5        0.1354
     18  NH2      -18.3490  -15.3560  -37.3420 N.pl3   5  ARG5        0.1354
     19  N        -12.2970   -4.0550  -31.6610 N.3    35  ALA35      -0.1231
     20  CA       -12.7230   -4.5800  -30.3740 C.3    35  ALA35       0.1694
     21  C        -13.0150   -6.0660  -30.5080 C.2    35  ALA35       0.2592
     22  O        -13.6460   -6.4990  -31.4770 O.2    35  ALA35      -0.2718
     23  CB       -13.9580   -3.8330  -29.8670 C.3    35  ALA35       0.0304
     24  N        -12.5460   -6.8440  -29.5320 N.am   36  ALA36      -0.1966
     25  CA       -12.6380   -8.3030  -29.5610 C.3    36  ALA36       0.1728
     26  C        -11.9270   -8.8600  -30.7980 C.2    36  ALA36       0.2616
     27  O        -12.5260   -9.5000  -31.6660 O.2    36  ALA36      -0.2715
     28  CB       -14.0960   -8.7700  -29.4960 C.3    36  ALA36       0.0334
     29  N        -10.6180   -8.6030  -30.8550 N.am   37  CYS37      -0.1954
     30  CA        -9.8090   -8.9660  -32.0130 C.3    37  CYS37       0.1843
     31  C         -9.5220  -10.4600  -32.1040 C.2    37  CYS37       0.2626
     32  O         -9.0700  -10.9170  -33.1600 O.2    37  CYS37      -0.2714
     33  CB        -8.4920   -8.1850  -31.9880 C.3    37  CYS37       0.0997
     34  SG        -7.4660   -8.4760  -30.5200 S.3    37  CYS37      -0.0797
     35  N         -9.7650  -11.2220  -31.0380 N.am   38  SER38      -0.1950
     36  CA        -9.5600  -12.6780  -31.0170 C.3    38  SER38       0.1924
     37  C         -8.1170  -12.9590  -31.4440 C.2    38  SER38       0.2314
     38  O         -7.2000  -12.2950  -30.9430 O.2    38  SER38      -0.2863
     39  CB       -10.6380  -13.3480  -31.8570 C.3    38  SER38       0.2116
     40  OG       -10.4070  -14.7410  -31.9680 O.3    38  SER38      -0.2180
     41  N         -8.8280  -10.0860  -37.6890 N.3    42  GLU42      -0.1245
     42  CA        -9.5530   -8.8650  -38.0470 C.3    42  GLU42       0.1567
     43  C         -8.6560   -7.6330  -38.0760 C.2    42  GLU42       0.2260
     44  O         -8.6670   -6.9180  -39.0950 O.2    42  GLU42      -0.2867
     45  CB       -10.7510   -8.6810  -37.1100 C.3    42  GLU42       0.0388
     46  CG       -11.5010   -7.3810  -37.3000 C.3    42  GLU42       0.1160
     47  CD       -12.6110   -7.2200  -36.2840 C.2    42  GLU42       0.3649
     48  OE1      -13.6260   -7.9370  -36.4010 O.co2  42  GLU42      -0.2457
     49  OE2      -12.4600   -6.3920  -35.3620 O.co2  42  GLU42      -0.2457
     50  N         -8.0800   -4.9530  -29.2420 N.3    70  THR70      -0.1203
     51  CA        -8.2870   -5.3220  -27.8480 C.3    70  THR70       0.1994
     52  C         -9.0750   -6.6180  -27.7390 C.2    70  THR70       0.2618
     53  O         -9.8990   -6.9410  -28.5980 O.2    70  THR70      -0.2717
     54  CB        -9.0330   -4.2270  -27.0710 C.3    70  THR70       0.1784
     55  OG1      -10.3250   -4.0220  -27.6570 O.3    70  THR70      -0.2211
     56  CG2       -8.2510   -2.9270  -27.0880 C.3    70  THR70       0.0376
     57  N         -8.8200   -7.3460  -26.6570 N.am   71  ASP71      -0.1959
     58  CA        -9.5720   -8.5450  -26.2980 C.3    71  ASP71       0.1840
     59  C         -9.2340   -8.8750  -24.8480 C.2    71  ASP71       0.2621
     60  O         -8.4270   -8.1930  -24.2100 O.2    71  ASP71      -0.2715
     61  CB        -9.2580   -9.7160  -27.2300 C.3    71  ASP71       0.1450
     62  CG       -10.4050  -10.6990  -27.3340 C.2    71  ASP71       0.3671
     63  OD1      -10.8440  -11.2170  -26.2850 O.co2  71  ASP71      -0.2456
     64  OD2      -10.8700  -10.9550  -28.4640 O.co2  71  ASP71      -0.2456
     65  N         -9.8680   -9.9200  -24.3280 N.am   72  LEU72      -0.1977
     66  CA        -9.5410  -10.3890  -22.9900 C.3    72  LEU72       0.1596
     67  C         -8.1500  -11.0130  -22.9740 C.2    72  LEU72       0.2287
     68  O         -7.7080  -11.6220  -23.9520 O.2    72  LEU72      -0.2864
     69  CB       -10.5740  -11.4070  -22.5100 C.3    72  LEU72       0.0297
     70  CG       -12.0250  -10.9330  -22.4190 C.3    72  LEU72       0.0022
     71  CD1      -12.9650  -12.1190  -22.2830 C.3    72  LEU72       0.0001
     72  CD2      -12.1960   -9.9770  -21.2540 C.3    72  LEU72       0.0001
     73  N         -5.2800  -16.4770  -26.6690 N.3    76  MET76      -0.1245
     74  CA        -5.6700  -16.0300  -28.0010 C.3    76  MET76       0.1570
     75  C         -5.1670  -14.6200  -28.2800 C.2    76  MET76       0.2261
     76  O         -4.7150  -14.3220  -29.3880 O.2    76  MET76      -0.2867
     77  CB        -7.1890  -16.1080  -28.1540 C.3    76  MET76       0.0387
     78  CG        -7.6320  -16.5900  -29.5160 C.3    76  MET76       0.0595
     79  SD        -7.6060  -18.3870  -29.5860 S.3    76  MET76      -0.1393
     80  CE        -6.8710  -18.6350  -31.2000 C.3    76  MET76       0.0692
     81  N         -8.3340   -5.7200  -22.6980 N.3   126  LEU126     -0.1231
     82  CA        -9.4220   -4.8620  -22.2350 C.3   126  LEU126      0.1693
     83  C        -10.7100   -5.6640  -22.1870 C.2   126  LEU126      0.2592
     84  O        -11.1030   -6.2670  -23.1910 O.2   126  LEU126     -0.2718
     85  CB        -9.5780   -3.6460  -23.1490 C.3   126  LEU126      0.0284
     86  CG       -10.7670   -2.7250  -22.8700 C.3   126  LEU126      0.0019
     87  CD1      -10.5070   -1.8690  -21.6440 C.3   126  LEU126      0.0001
     88  CD2      -11.0570   -1.8560  -24.0800 C.3   126  LEU126      0.0001
     89  N        -11.3560   -5.6780  -21.0230 N.am  127  ASN127     -0.1960
     90  CA       -12.7130   -6.1930  -20.9080 C.3   127  ASN127      0.1819
     91  C        -13.6860   -5.1330  -21.4060 C.2   127  ASN127      0.2621
     92  O        -13.6230   -3.9740  -20.9820 O.2   127  ASN127     -0.2715
     93  CB       -13.0230   -6.5640  -19.4560 C.3   127  ASN127      0.1195
     94  CG       -14.3190   -7.3470  -19.3070 C.2   127  ASN127      0.2630
     95  OD1      -15.1970   -7.3010  -20.1680 O.2   127  ASN127     -0.2716
     96  ND2      -14.4390   -8.0750  -18.2040 N.am  127  ASN127     -0.0877
     97  N        -14.5840   -5.5270  -22.3110 N.am  128  LEU128     -0.1963
     98  CA       -15.5770   -4.5850  -22.8130 C.3   128  LEU128      0.1728
     99  C        -16.5050   -4.0910  -21.7090 C.2   128  LEU128      0.2616
    100  O        -17.1700   -3.0650  -21.8870 O.2   128  LEU128     -0.2715
    101  CB       -16.3810   -5.2250  -23.9490 C.3   128  LEU128      0.0311
    102  CG       -15.6340   -5.3130  -25.2880 C.3   128  LEU128      0.0022
    103  CD1      -16.4010   -6.1480  -26.3070 C.3   128  LEU128      0.0001
    104  CD2      -15.3420   -3.9250  -25.8390 C.3   128  LEU128      0.0001
    105  N        -16.5500   -4.7860  -20.5680 N.am  129  LEU129     -0.1977
    106  CA       -17.2950   -4.3150  -19.4060 C.3   129  LEU129      0.1596
    107  C        -16.6050   -3.1630  -18.6880 C.2   129  LEU129      0.2287
    108  O        -17.2420   -2.5040  -17.8590 O.2   129  LEU129     -0.2864
    109  CB       -17.5120   -5.4610  -18.4140 C.3   129  LEU129      0.0297
    110  CG       -18.3790   -6.6350  -18.8690 C.3   129  LEU129      0.0022
    111  CD1      -18.5910   -7.6210  -17.7280 C.3   129  LEU129      0.0001
    112  CD2      -19.7070   -6.1390  -19.4090 C.3   129  LEU129      0.0001
    113  N        -17.3580   -6.7240  -33.7960 N.3   144  ARG144     -0.1231
    114  CA       -18.0560   -7.7300  -34.5820 C.3   144  ARG144      0.1694
    115  C        -18.1370   -9.0480  -33.8250 C.2   144  ARG144      0.2592
    116  O        -17.1210   -9.5530  -33.3330 O.2   144  ARG144     -0.2718
    117  CB       -17.3620   -7.9330  -35.9310 C.3   144  ARG144      0.0321
    118  CG       -17.0950   -6.6280  -36.6740 C.3   144  ARG144      0.0489
    119  CD       -16.6510   -6.8850  -38.1040 C.3   144  ARG144      0.2205
    120  NE       -17.7730   -7.2500  -38.9640 N.pl3 144  ARG144     -0.0865
    121  CZ       -17.7260   -8.2020  -39.8890 C.cat 144  ARG144      0.5346
    122  NH1      -16.6090   -8.8960  -40.0780 N.pl3 144  ARG144      0.1354
    123  NH2      -18.7970   -8.4620  -40.6280 N.pl3 144  ARG144      0.1354
    124  N        -19.3530   -9.5860  -33.7290 N.am  145  ASN145     -0.1960
    125  CA       -19.5970  -10.9440  -33.2410 C.3   145  ASN145      0.1819
    126  C        -19.1460  -11.1310  -31.7920 C.2   145  ASN145      0.2621
    127  O        -18.6700  -12.2010  -31.4050 O.2   145  ASN145     -0.2715
    128  CB       -18.9370  -11.9740  -34.1610 C.3   145  ASN145      0.1195
    129  CG       -19.4630  -11.8980  -35.5830 C.2   145  ASN145      0.2630
    130  OD1      -20.6600  -12.0590  -35.8210 O.2   145  ASN145     -0.2716
    131  ND2      -18.5700  -11.6410  -36.5360 N.am  145  ASN145     -0.0877
    132  N        -19.3230  -10.0940  -30.9710 N.am  146  VAL146     -0.1977
    133  CA       -18.9900  -10.1860  -29.5520 C.3   146  VAL146      0.1596
    134  C        -20.1770   -9.7360  -28.7040 C.2   146  VAL146      0.2287
    135  O        -20.3810  -10.2330  -27.5900 O.2   146  VAL146     -0.2864
    136  CB       -17.7200   -9.3730  -29.2260 C.3   146  VAL146      0.0276
    137  CG1      -17.8920   -7.9160  -29.6090 C.3   146  VAL146      0.0022
    138  CG2      -17.3540   -9.5050  -27.7520 C.3   146  VAL146      0.0022
    139  N        -22.7410  -12.0760  -26.7990 N.3   149  TYR149     -0.1227
    140  CA       -22.4270  -12.7640  -25.5510 C.3   149  TYR149      0.1736
    141  C        -23.1290  -12.1640  -24.3380 C.2   149  TYR149      0.2595
    142  O        -23.2120  -12.8290  -23.2990 O.2   149  TYR149     -0.2718
    143  CB       -20.9170  -12.7420  -25.2960 C.3   149  TYR149      0.0548
    144  CG       -20.0990  -13.6750  -26.1620 C.ar  149  TYR149     -0.0200
    145  CD1      -19.8930  -14.9980  -25.7910 C.ar  149  TYR149     -0.0009
    146  CD2      -19.5110  -13.2250  -27.3370 C.ar  149  TYR149     -0.0009
    147  CE1      -19.1350  -15.8500  -26.5750 C.ar  149  TYR149      0.0417
    148  CE2      -18.7550  -14.0690  -28.1280 C.ar  149  TYR149      0.0417
    149  CZ       -18.5690  -15.3790  -27.7420 C.ar  149  TYR149      0.1957
    150  OH       -17.8140  -16.2210  -28.5270 O.3   149  TYR149     -0.2866
    151  N        -23.6250  -10.9350  -24.4350 N.am  150  PHE150     -0.1976
    152  CA       -24.0330  -10.1670  -23.2670 C.3   150  PHE150      0.1639
    153  C        -25.5500  -10.0680  -23.1620 C.2   150  PHE150      0.2290
    154  O        -26.2960  -10.4070  -24.0840 O.2   150  PHE150     -0.2864
    155  CB       -23.4200   -8.7630  -23.3090 C.3   150  PHE150      0.0560
    156  CG       -21.9220   -8.7610  -23.3940 C.ar  150  PHE150     -0.0200
    157  CD1      -21.1520   -9.0940  -22.2910 C.ar  150  PHE150     -0.0042
    158  CD2      -21.2830   -8.4330  -24.5790 C.ar  150  PHE150     -0.0042
    159  CE1      -19.7710   -9.0960  -22.3660 C.ar  150  PHE150     -0.0003
    160  CE2      -19.9040   -8.4330  -24.6610 C.ar  150  PHE150     -0.0003
    161  CZ       -19.1460   -8.7640  -23.5530 C.ar  150  PHE150     -0.0000
@<TRIPOS>BOND
     1    10    11    2
     2    10     9    1
     3     8     9    1
     4     9    12    1
     5    12    13    1
     6    13    14    1
     7   123   121    1
     8   122   121    1
     9   121   120    2
    10    14    15    1
    11    44    43    2
    12   120   119    1
    13    15    16    2
    14   119   118    1
    15    43    42    1
    16    42    41    1
    17    42    45    1
    18     4     3    2
    19     3     2    1
    20    16    18    1
    21    16    17    1
    22    46    45    1
    23    46    47    1
    24     2     1    1
    25     2     5    1
    26   118   117    1
    27   131   129   am
    28     6     5    1
    29    48    47   ar
    30    47    49   ar
    31   117   114    1
    32     5     7    1
    33   130   129    2
    34   129   128    1
    35   114   115    1
    36   114   113    1
    37   128   125    1
    38   115   124   am
    39   115   116    2
    40   124   125    1
    41   125   126    1
    42    32    31    2
    43    31    30    1
    44    31    35   am
    45    30    33    1
    46    30    29    1
    47    33    34    1
    48    40    39    1
    49    39    36    1
    50   126   127    2
    51   126   132   am
    52    27    26    2
    53    19    20    1
    54    22    21    2
    55    37    36    1
    56    37    38    2
    57    80    79    1
    58    35    36    1
    59   132   133    1
    60    29    26   am
    61    26    25    1
    62    21    20    1
    63    21    24   am
    64    20    23    1
    65   137   136    1
    66    79    78    1
    67    25    24    1
    68    25    28    1
    69   133   136    1
    70   133   134    1
    71    78    77    1
    72    76    75    2
    73    50    51    1
    74   136   138    1
    75   134   135    2
    76    53    52    2
    77   150   149    1
    78    64    62   ar
    79    75    74    1
    80    77    74    1
    81   148   149   ar
    82   148   146   ar
    83    74    73    1
    84    51    52    1
    85    51    54    1
    86   149   147   ar
    87    52    57   am
    88    55    54    1
    89   146   144   ar
    90    62    61    1
    91    62    63   ar
    92    61    58    1
    93    56    54    1
    94   139   140    1
    95    57    58    1
    96   147   145   ar
    97   103   102    1
    98    58    59    1
    99   144   145   ar
   100   144   143    1
   101   104   102    1
   102   140   143    1
   103   140   141    1
   104   102   101    1
   105    59    65   am
   106    59    60    2
   107   160   158   ar
   108   160   161   ar
   109   158   156   ar
   110   151   141   am
   111   151   152    1
   112   141   142    2
   113    65    66    1
   114   154   153    2
   115    88    86    1
   116    68    67    2
   117   101    98    1
   118   161   159   ar
   119   156   155    1
   120   156   157   ar
   121   155   152    1
   122   152   153    1
   123    84    83    2
   124    85    86    1
   125    85    82    1
   126    66    67    1
   127    66    69    1
   128    86    87    1
   129    98    97    1
   130    98    99    1
   131    81    82    1
   132    69    70    1
   133    70    71    1
   134    70    72    1
   135   159   157   ar
   136    97    91   am
   137    82    83    1
   138    83    89   am
   139   100    99    2
   140    99   105   am
   141    91    92    2
   142    91    90    1
   143    89    90    1
   144    90    93    1
   145   105   106    1
   146    95    94    2
   147    93    94    1
   148   112   110    1
   149   106   107    1
   150   106   109    1
   151    94    96   am
   152   110   109    1
   153   110   111    1
   154   107   108    2
