@<TRIPOS>MOLECULE
tmp/5xlzB02.pdb
 164 155 0 0 0
SMALL
GASTEIGER

@<TRIPOS>ATOM
      1  N          9.2660  -65.6460  -31.4300 N.3   234  GLY234     -0.1210
      2  CA         9.1100  -65.8070  -32.8620 C.3   234  GLY234      0.1956
      3  C         10.4110  -65.7090  -33.6360 C.2   234  GLY234      0.2611
      4  O         10.7070  -66.5610  -34.4740 O.2   234  GLY234     -0.2717
      5  N         11.1910  -64.6690  -33.3600 N.am  235  VAL235     -0.1979
      6  CA        12.4210  -64.4210  -34.1030 C.3   235  VAL235      0.1595
      7  C         13.4770  -65.4920  -33.8280 C.2   235  VAL235      0.2287
      8  O         14.4120  -65.6590  -34.6110 O.2   235  VAL235     -0.2864
      9  CB        13.0130  -63.0320  -33.7740 C.3   235  VAL235      0.0276
     10  CG1       12.0290  -61.9300  -34.1400 C.3   235  VAL235      0.0022
     11  CG2       13.3940  -62.9380  -32.3080 C.3   235  VAL235      0.0022
     12  N         13.3950  -70.4130  -35.5040 N.3   238  CYS238     -0.1221
     13  CA        14.2410  -71.2180  -36.3760 C.3   238  CYS238      0.1808
     14  C         15.5400  -71.6240  -35.6880 C.2   238  CYS238      0.2601
     15  O         16.2000  -72.5750  -36.1070 O.2   238  CYS238     -0.2717
     16  CB        14.5470  -70.4530  -37.6620 C.3   238  CYS238      0.0970
     17  SG        13.0960  -70.1270  -38.6890 S.3   238  CYS238     -0.0800
     18  N         15.9040  -70.8990  -34.6360 N.am  239  LEU239     -0.1979
     19  CA        17.0950  -71.2220  -33.8590 C.3   239  LEU239      0.1596
     20  C         16.7980  -72.3150  -32.8400 C.2   239  LEU239      0.2287
     21  O         17.6960  -73.0510  -32.4290 O.2   239  LEU239     -0.2864
     22  CB        17.6250  -69.9780  -33.1400 C.3   239  LEU239      0.0297
     23  CG        18.0650  -68.8000  -34.0110 C.3   239  LEU239      0.0022
     24  CD1       18.4350  -67.6120  -33.1370 C.3   239  LEU239      0.0001
     25  CD2       19.2320  -69.1860  -34.9070 C.3   239  LEU239      0.0001
     26  N         16.0330  -74.2880  -42.8730 N.3   245  LEU245     -0.1231
     27  CA        17.2940  -73.6250  -42.5580 C.3   245  LEU245      0.1693
     28  C         17.6430  -73.8420  -41.0860 C.2   245  LEU245      0.2592
     29  O         16.8870  -73.4790  -40.1870 O.2   245  LEU245     -0.2718
     30  CB        17.2330  -72.1320  -42.8930 C.3   245  LEU245      0.0284
     31  CG        15.9100  -71.3640  -42.8980 C.3   245  LEU245      0.0019
     32  CD1       15.2570  -71.3010  -41.5270 C.3   245  LEU245      0.0001
     33  CD2       16.2130  -69.9740  -43.4010 C.3   245  LEU245      0.0001
     34  N         18.7990  -74.4560  -40.8610 N.am  246  ASN246     -0.1960
     35  CA        19.5110  -75.1460  -39.7920 C.3   246  ASN246      0.1819
     36  C         20.1880  -74.2670  -38.7290 C.2   246  ASN246      0.2621
     37  O         21.3810  -74.4070  -38.4690 O.2   246  ASN246     -0.2715
     38  CB        20.5400  -76.0760  -40.4400 C.3   246  ASN246      0.1195
     39  CG        19.9550  -76.8470  -41.6200 C.2   246  ASN246      0.2630
     40  OD1       19.2830  -77.8640  -41.4400 O.2   246  ASN246     -0.2716
     41  ND2       20.1950  -76.3520  -42.8330 N.am  246  ASN246     -0.0877
     42  N         19.4170  -73.3660  -38.1240 N.am  247  ALA247     -0.1963
     43  CA        19.7150  -72.8750  -36.7750 C.3   247  ALA247      0.1728
     44  C         21.1180  -72.2970  -36.5460 C.2   247  ALA247      0.2616
     45  O         21.9210  -72.9160  -35.8490 O.2   247  ALA247     -0.2715
     46  CB        19.4970  -74.0220  -35.7890 C.3   247  ALA247      0.0334
     47  N         21.4280  -71.1280  -37.1010 N.am  248  ASP248     -0.1971
     48  CA        22.6310  -70.4150  -36.6660 C.3   248  ASP248      0.1709
     49  C         22.5600  -68.9240  -36.9930 C.2   248  ASP248      0.2293
     50  O         21.9670  -68.5140  -37.9910 O.2   248  ASP248     -0.2864
     51  CB        23.8880  -71.0320  -37.2870 C.3   248  ASP248      0.1436
     52  CG        24.1330  -70.5610  -38.7010 C.2   248  ASP248      0.3671
     53  OD1       24.7170  -69.4720  -38.8780 O.co2 248  ASP248     -0.2456
     54  OD2       23.7500  -71.2880  -39.6400 O.co2 248  ASP248     -0.2456
     55  N         24.3410  -67.1670  -40.4700 N.3   251  LYS251     -0.1231
     56  CA        23.5720  -67.2540  -41.7050 C.3   251  LYS251      0.1693
     57  C         22.4330  -66.2410  -41.7280 C.2   251  LYS251      0.2591
     58  O         22.0350  -65.7720  -42.7940 O.2   251  LYS251     -0.2718
     59  CB        23.0270  -68.6710  -41.8910 C.3   251  LYS251      0.0285
     60  CG        24.0900  -69.6660  -42.3290 C.3   251  LYS251      0.0035
     61  CD        23.4880  -70.9850  -42.7790 C.3   251  LYS251      0.0206
     62  CE        24.5490  -71.8970  -43.3760 C.3   251  LYS251      0.1093
     63  NZ        23.9730  -73.1620  -43.9100 N.3   251  LYS251     -0.1314
     64  N         21.9180  -65.8940  -40.5530 N.am  252  LEU252     -0.1980
     65  CA        20.9230  -64.8350  -40.4530 C.3   252  LEU252      0.1596
     66  C         21.5730  -63.4950  -40.7770 C.2   252  LEU252      0.2287
     67  O         21.0380  -62.7060  -41.5540 O.2   252  LEU252     -0.2864
     68  CB        20.2980  -64.7990  -39.0570 C.3   252  LEU252      0.0297
     69  CG        19.2150  -63.7370  -38.8390 C.3   252  LEU252      0.0022
     70  CD1       17.9930  -64.0230  -39.7000 C.3   252  LEU252      0.0001
     71  CD2       18.8280  -63.6480  -37.3720 C.3   252  LEU252      0.0001
     72  N         22.6220  -62.9640  -44.5550 N.3   255  ASN255     -0.1225
     73  CA        21.5130  -62.7880  -45.4850 C.3   255  ASN255      0.1785
     74  C         20.6790  -61.5380  -45.2160 C.2   255  ASN255      0.2597
     75  O         19.9770  -61.0580  -46.1080 O.2   255  ASN255     -0.2718
     76  CB        20.6130  -64.0210  -45.4510 C.3   255  ASN255      0.1169
     77  CG        21.2930  -65.2530  -46.0150 C.2   255  ASN255      0.2627
     78  OD1       21.8970  -65.2050  -47.0860 O.2   255  ASN255     -0.2716
     79  ND2       21.2070  -66.3610  -45.2900 N.am  255  ASN255     -0.0877
     80  N         20.7620  -61.0090  -43.9980 N.am  256  MET256     -0.1979
     81  CA        19.9430  -59.8640  -43.6020 C.3   256  MET256      0.1605
     82  C         20.6970  -58.5370  -43.6530 C.2   256  MET256      0.2287
     83  O         20.0790  -57.4740  -43.7210 O.2   256  MET256     -0.2864
     84  CB        19.3910  -60.0750  -42.1900 C.3   256  MET256      0.0413
     85  CG        18.2990  -61.1290  -42.0950 C.3   256  MET256      0.0598
     86  SD        16.8180  -60.6950  -43.0320 S.3   256  MET256     -0.1393
     87  CE        16.2170  -59.2820  -42.1090 C.3   256  MET256      0.0692
     88  N         15.9950  -56.2640  -46.7890 N.3   311  THR311     -0.1203
     89  CA        15.8230  -57.7020  -46.6260 C.3   311  THR311      0.1994
     90  C         14.6650  -57.9810  -45.6750 C.2   311  THR311      0.2618
     91  O         14.3300  -57.1440  -44.8340 O.2   311  THR311     -0.2717
     92  CB        17.0950  -58.3690  -46.0760 C.3   311  THR311      0.1784
     93  OG1       17.4690  -57.7360  -44.8460 O.3   311  THR311     -0.2211
     94  CG2       18.2430  -58.2610  -47.0710 C.3   311  THR311      0.0376
     95  N         14.0570  -59.1560  -45.8110 N.am  312  VAL312     -0.1965
     96  CA        12.9550  -59.5610  -44.9440 C.3   312  VAL312      0.1727
     97  C         13.0470  -61.0440  -44.6020 C.2   312  VAL312      0.2616
     98  O         13.3120  -61.8780  -45.4680 O.2   312  VAL312     -0.2715
     99  CB        11.5830  -59.2820  -45.5980 C.3   312  VAL312      0.0290
    100  CG1       10.4440  -59.8030  -44.7220 C.3   312  VAL312      0.0023
    101  CG2       11.4070  -57.7950  -45.8590 C.3   312  VAL312      0.0023
    102  N         12.8280  -61.3560  -43.3290 N.am  313  ALA313     -0.1963
    103  CA        12.7250  -62.7330  -42.8680 C.3   313  ALA313      0.1728
    104  C         11.3890  -62.9180  -42.1570 C.2   313  ALA313      0.2616
    105  O         11.0560  -62.1590  -41.2450 O.2   313  ALA313     -0.2715
    106  CB        13.8800  -63.0830  -41.9460 C.3   313  ALA313      0.0334
    107  N         10.6280  -63.9190  -42.5870 N.am  314  ALA314     -0.1963
    108  CA         9.3000  -64.1780  -42.0390 C.3   314  ALA314      0.1728
    109  C          9.1670  -65.6350  -41.6140 C.2   314  ALA314      0.2616
    110  O          9.5130  -66.5430  -42.3680 O.2   314  ALA314     -0.2715
    111  CB         8.2320  -63.8220  -43.0590 C.3   314  ALA314      0.0334
    112  N          8.6620  -65.8510  -40.4050 N.am  315  ILE315     -0.1977
    113  CA         8.5050  -67.1970  -39.8650 C.3   315  ILE315      0.1596
    114  C          7.0520  -67.4400  -39.4650 C.2   315  ILE315      0.2287
    115  O          6.5270  -66.8030  -38.5510 O.2   315  ILE315     -0.2864
    116  CB         9.4470  -67.4360  -38.6550 C.3   315  ILE315      0.0276
    117  CG1        9.0330  -68.6740  -37.8530 C.3   315  ILE315      0.0022
    118  CG2        9.4670  -66.2330  -37.7430 C.3   315  ILE315      0.0022
    119  CD1        9.0160  -69.9590  -38.6550 C.3   315  ILE315      0.0001
    120  N         15.2340  -61.3400  -54.7480 N.3   346  ASN346     -0.1225
    121  CA        14.7060  -62.3510  -53.8400 C.3   346  ASN346      0.1785
    122  C         15.0860  -62.0640  -52.3910 C.2   346  ASN346      0.2597
    123  O         15.5350  -62.9530  -51.6680 O.2   346  ASN346     -0.2718
    124  CB        15.2060  -63.7380  -54.2530 C.3   346  ASN346      0.1169
    125  CG        15.1340  -63.9600  -55.7550 C.2   346  ASN346      0.2627
    126  OD1       16.1490  -64.2060  -56.4070 O.2   346  ASN346     -0.2716
    127  ND2       13.9320  -63.8670  -56.3110 N.am  346  ASN346     -0.0877
    128  N         14.8960  -60.8170  -51.9730 N.am  347  ASN347     -0.1974
    129  CA        15.3020  -60.3790  -50.6410 C.3   347  ASN347      0.1688
    130  C         14.2690  -60.6970  -49.5610 C.2   347  ASN347      0.2292
    131  O         14.3720  -60.2100  -48.4340 O.2   347  ASN347     -0.2864
    132  CB        15.5870  -58.8760  -50.6510 C.3   347  ASN347      0.1181
    133  CG        14.3940  -58.0570  -51.0980 C.2   347  ASN347      0.2629
    134  OD1       13.4140  -58.5960  -51.6130 O.2   347  ASN347     -0.2716
    135  ND2       14.4780  -56.7450  -50.9180 N.am  347  ASN347     -0.0877
    136  N         12.5920  -63.9560  -47.6630 N.3   349  LYS349     -0.1231
    137  CA        12.6350  -65.3920  -47.4150 C.3   349  LYS349      0.1693
    138  C         11.6740  -65.7700  -46.2960 C.2   349  LYS349      0.2593
    139  O         11.4780  -65.0050  -45.3500 O.2   349  LYS349     -0.2718
    140  CB        14.0560  -65.8380  -47.0630 C.3   349  LYS349      0.0285
    141  CG        14.2110  -67.3440  -46.8720 C.3   349  LYS349      0.0035
    142  CD        13.8440  -68.1150  -48.1360 C.3   349  LYS349      0.0206
    143  CE        13.9320  -69.6150  -47.9240 C.3   349  LYS349      0.1093
    144  NZ        13.4410  -70.3650  -49.1150 N.3   349  LYS349     -0.1314
    145  N         11.0840  -66.9560  -46.4100 N.am  350  THR350     -0.1939
    146  CA        10.0820  -67.4120  -45.4560 C.3   350  THR350      0.2028
    147  C         10.3800  -68.8220  -44.9560 C.2   350  THR350      0.2642
    148  O         10.8750  -69.6680  -45.7010 O.2   350  THR350     -0.2714
    149  CB         8.6760  -67.3870  -46.0790 C.3   350  THR350      0.1808
    150  OG1        8.4670  -66.1300  -46.7350 O.3   350  THR350     -0.2208
    151  CG2        7.6060  -67.5850  -45.0120 C.3   350  THR350      0.0379
    152  N         10.0790  -69.0550  -43.6830 N.am  351  ALA351     -0.1977
    153  CA        10.2220  -70.3700  -43.0700 C.3   351  ALA351      0.1597
    154  C          8.9380  -70.7240  -42.3310 C.2   351  ALA351      0.2287
    155  O          8.1730  -69.8370  -41.9530 O.2   351  ALA351     -0.2864
    156  CB        11.4070  -70.3930  -42.1240 C.3   351  ALA351      0.0319
    157  N         10.6370  -60.0430  -39.4690 N.3   367  ILE367     -0.1245
    158  CA        11.9430  -59.4280  -39.2440 C.3   367  ILE367      0.1561
    159  C         12.3520  -58.6570  -40.4900 C.2   367  ILE367      0.2260
    160  O         12.7430  -59.2520  -41.4960 O.2   367  ILE367     -0.2867
    161  CB        13.0340  -60.4680  -38.9080 C.3   367  ILE367      0.0252
    162  CG1       12.5640  -61.3980  -37.7870 C.3   367  ILE367      0.0019
    163  CG2       14.3320  -59.7600  -38.5210 C.3   367  ILE367      0.0019
    164  CD1       13.5500  -62.5000  -37.4360 C.3   367  ILE367      0.0001
@<TRIPOS>BOND
     1   126   125    2
     2   127   125   am
     3   125   124    1
     4   120   121    1
     5   124   121    1
     6   121   122    1
     7   122   128   am
     8   122   123    2
     9   128   129    1
    10   134   133    2
    11   133   135   am
    12   133   132    1
    13   132   129    1
    14   129   130    1
    15   130   131    2
    16   144   143    1
    17   142   143    1
    18   142   141    1
    19   136   137    1
    20   137   140    1
    21   137   138    1
    22    78    77    2
    23    94    92    1
    24   140   141    1
    25    88    89    1
    26   150   149    1
    27    89    92    1
    28    89    90    1
    29   145   138   am
    30   145   146    1
    31   138   139    2
    32    75    74    2
    33   149   146    1
    34   149   151    1
    35    92    93    1
    36    77    76    1
    37    77    79   am
    38   101    99    1
    39    95    90   am
    40    95    96    1
    41   148   147    2
    42    90    91    2
    43    99    96    1
    44    99   100    1
    45    73    76    1
    46    73    74    1
    47    73    72    1
    48    98    97    2
    49   146   147    1
    50    74    80   am
    51   147   152   am
    52    96    97    1
    53    97   102   am
    54    80    81    1
    55    63    62    1
    56    83    82    2
    57   152   153    1
    58    82    81    1
    59    81    84    1
    60    33    31    1
    61    62    61    1
    62   102   103    1
    63   153   154    1
    64   153   156    1
    65   111   108    1
    66    86    87    1
    67    86    85    1
    68    31    30    1
    69    31    32    1
    70    30    27    1
    71    26    27    1
    72   103   104    1
    73   103   106    1
    74    41    39   am
    75    58    57    2
    76    61    60    1
    77   107   104   am
    78   107   108    1
    79    27    28    1
    80   110   109    2
    81   154   155    2
    82    60    59    1
    83    84    85    1
    84   104   105    2
    85   108   109    1
    86    59    56    1
    87    57    56    1
    88    57    64   am
    89    56    55    1
    90    39    40    2
    91    39    38    1
    92   109   112   am
    93    67    66    2
    94   160   159    2
    95    28    34   am
    96    28    29    2
    97    34    35    1
    98    66    65    1
    99    64    65    1
   100   159   158    1
   101    65    68    1
   102    38    35    1
   103   112   113    1
   104   113   114    1
   105   113   116    1
   106    35    36    1
   107    70    69    1
   108    54    52   ar
   109   157   158    1
   110   114   115    2
   111   158   161    1
   112    68    69    1
   113   161   163    1
   114   161   162    1
   115    53    52   ar
   116    69    71    1
   117    36    37    2
   118    36    42   am
   119    52    51    1
   120    17    16    1
   121   119   117    1
   122   116   117    1
   123   116   118    1
   124    42    43    1
   125    50    49    2
   126   162   164    1
   127    16    13    1
   128    51    48    1
   129    47    48    1
   130    47    44   am
   131    49    48    1
   132    43    44    1
   133    43    46    1
   134    44    45    2
   135    13    14    1
   136    13    12    1
   137    15    14    2
   138    14    18   am
   139    25    23    1
   140    18    19    1
   141     8     7    2
   142     4     3    2
   143    10     9    1
   144     6     7    1
   145     6     9    1
   146     6     5    1
   147    23    22    1
   148    23    24    1
   149    19    22    1
   150    19    20    1
   151     9    11    1
   152     3     5   am
   153     3     2    1
   154     2     1    1
   155    20    21    2
