@<TRIPOS>MOLECULE
tmp/5xm3C00.pdb
 201 193 0 0 0
SMALL
GASTEIGER

@<TRIPOS>ATOM
      1  N          4.4830    6.7860   37.6210 N.3    55  GLU55      -0.1245
      2  CA         4.2250    8.0310   38.3460 C.3    55  GLU55       0.1567
      3  C          5.4560    8.5210   39.1130 C.2    55  GLU55       0.2260
      4  O          6.5480    7.9250   39.0350 O.2    55  GLU55      -0.2867
      5  CB         3.0150    7.8450   39.2820 C.3    55  GLU55       0.0388
      6  CG         1.7200    7.7530   38.4810 C.3    55  GLU55       0.1160
      7  CD         0.4540    7.4790   39.2860 C.2    55  GLU55       0.3649
      8  OE1        0.5220    7.1620   40.4980 O.co2  55  GLU55      -0.2457
      9  OE2       -0.6370    7.5640   38.6630 O.co2  55  GLU55      -0.2457
     10  N         -6.5270   -1.0330   42.7430 N.3   103  CYS103     -0.1221
     11  CA        -7.7250   -0.5950   42.0300 C.3   103  CYS103      0.1808
     12  C         -7.4060    0.0110   40.6800 C.2   103  CYS103      0.2601
     13  O         -8.2020   -0.0810   39.7390 O.2   103  CYS103     -0.2717
     14  CB        -8.4930    0.4430   42.8550 C.3   103  CYS103      0.0970
     15  SG        -7.5800    2.0220   43.0760 S.3   103  CYS103     -0.0800
     16  N         -6.2400    0.6440   40.6030 N.am  104  CYS104     -0.1956
     17  CA        -6.0170    1.7170   39.6370 C.3   104  CYS104      0.1843
     18  C         -4.6340    1.6940   38.9930 C.2   104  CYS104      0.2625
     19  O         -4.0000    2.7510   38.8710 O.2   104  CYS104     -0.2714
     20  CB        -6.2260    3.0680   40.3300 C.3   104  CYS104      0.0997
     21  SG        -7.7380    3.1300   41.3720 S.3   104  CYS104     -0.0797
     22  N         -4.2140    0.5000   38.5680 N.am  105  ASP105     -0.1971
     23  CA        -2.8810    0.2060   38.0090 C.3   105  ASP105      0.1709
     24  C         -1.8530    0.0760   39.1350 C.2   105  ASP105      0.2293
     25  O         -2.0570    0.5630   40.2630 O.2   105  ASP105     -0.2864
     26  CB        -2.4440    1.2630   36.9770 C.3   105  ASP105      0.1436
     27  CG        -1.3160    0.7840   36.0630 C.2   105  ASP105      0.3671
     28  OD1       -0.9930   -0.4310   36.0270 O.co2 105  ASP105     -0.2456
     29  OD2       -0.7650    1.6380   35.3480 O.co2 105  ASP105     -0.2456
     30  N          0.8720    1.3930   40.0230 N.3   107  VAL107     -0.1245
     31  CA         1.7590    2.5500   40.0760 C.3   107  VAL107      0.1561
     32  C          2.5020    2.6940   41.4120 C.2   107  VAL107      0.2260
     33  O          2.1400    2.0970   42.4300 O.2   107  VAL107     -0.2867
     34  CB         0.9660    3.8510   39.7930 C.3   107  VAL107      0.0252
     35  CG1        0.5350    3.8760   38.3420 C.3   107  VAL107      0.0019
     36  CG2       -0.2650    3.9430   40.7190 C.3   107  VAL107      0.0019
     37  N          4.5720    6.1520   43.4120 N.3   109  ARG109     -0.1245
     38  CA         4.8040    7.5890   43.2590 C.3   109  ARG109      0.1563
     39  C          6.1870    8.0530   43.7020 C.2   109  ARG109      0.2260
     40  O          6.4740    9.2440   43.6960 O.2   109  ARG109     -0.2867
     41  CB         3.7140    8.3780   44.0050 C.3   109  ARG109      0.0307
     42  CG         2.3600    8.1830   43.3230 C.3   109  ARG109      0.0489
     43  CD         1.1810    8.9750   43.8910 C.3   109  ARG109      0.2205
     44  NE         0.0380    8.3580   43.2420 N.pl3 109  ARG109     -0.0865
     45  CZ        -0.5940    7.2890   43.7100 C.cat 109  ARG109      0.5346
     46  NH1       -0.3170    6.8130   44.9310 N.pl3 109  ARG109      0.1354
     47  NH2       -1.5500    6.7330   42.9670 N.pl3 109  ARG109      0.1354
     48  N         -2.5690   -2.0450   50.1010 N.3   157  THR157     -0.1218
     49  CA        -1.3790   -1.9600   49.2410 C.3   157  THR157      0.1862
     50  C         -0.6480   -0.6730   49.5650 C.2   157  THR157      0.2287
     51  O         -1.1160    0.1270   50.3750 O.2   157  THR157     -0.2866
     52  CB        -1.7020   -1.9540   47.7190 C.3   157  THR157      0.1770
     53  OG1       -2.6560   -0.9150   47.4300 O.3   157  THR157     -0.2211
     54  CG2       -2.2470   -3.3020   47.2530 C.3   157  THR157      0.0375
     55  N          1.0680    2.5480   47.2910 N.3   159  THR159     -0.1218
     56  CA         1.4650    3.1680   46.0300 C.3   159  THR159      0.1862
     57  C          2.1240    4.5350   46.2540 C.2   159  THR159      0.2287
     58  O          2.8950    5.0000   45.4130 O.2   159  THR159     -0.2866
     59  CB         0.2690    3.3550   45.0980 C.3   159  THR159      0.1770
     60  OG1       -0.7390    4.0810   45.8030 O.3   159  THR159     -0.2211
     61  CG2       -0.3010    2.0010   44.6710 C.3   159  THR159      0.0375
     62  N         -3.3160    2.6540   51.1160 N.3   174  SER174     -0.1202
     63  CA        -4.1760    2.5220   49.9360 C.3   174  SER174      0.2020
     64  C         -5.1840    1.3960   50.1140 C.2   174  SER174      0.2619
     65  O         -4.9410    0.4570   50.8600 O.2   174  SER174     -0.2717
     66  CB        -3.3500    2.2520   48.6780 C.3   174  SER174      0.2103
     67  OG        -2.6370    3.4010   48.2690 O.3   174  SER174     -0.2182
     68  N         -6.2990    1.4700   49.3930 N.am  175  GLY175     -0.1942
     69  CA        -7.2750    0.3950   49.4250 C.3   175  GLY175      0.2014
     70  C         -8.6710    0.7800   49.8910 C.2   175  GLY175      0.2639
     71  O         -9.4230   -0.0900   50.3080 O.2   175  GLY175     -0.2714
     72  N         -9.0330    2.0610   49.8170 N.am  176  ALA176     -0.1963
     73  CA       -10.3820    2.4610   50.2210 C.3   176  ALA176      0.1728
     74  C        -11.4250    1.7540   49.3640 C.2   176  ALA176      0.2616
     75  O        -12.5420    1.5010   49.8110 O.2   176  ALA176     -0.2715
     76  CB       -10.5600    3.9660   50.1310 C.3   176  ALA176      0.0334
     77  N        -11.0610    1.4240   48.1330 N.am  177  GLU177     -0.1977
     78  CA       -11.9810    0.7000   47.2380 C.3   177  GLU177      0.1602
     79  C        -12.1600   -0.7490   47.6540 C.2   177  GLU177      0.2287
     80  O        -12.9710   -1.4700   47.0690 O.2   177  GLU177     -0.2864
     81  CB       -11.5010    0.7720   45.7850 C.3   177  GLU177      0.0415
     82  CG       -11.8800    2.0890   45.0750 C.3   177  GLU177      0.1163
     83  CD       -11.2390    3.3130   45.7250 C.2   177  GLU177      0.3649
     84  OE1      -10.0190    3.5160   45.5630 O.co2 177  GLU177     -0.2457
     85  OE2      -11.9460    4.0670   46.4240 O.co2 177  GLU177     -0.2457
     86  N         -7.9940    6.3480   53.4350 N.3   241  THR241     -0.1218
     87  CA        -6.5930    6.0880   53.1060 C.3   241  THR241      0.1862
     88  C         -5.9060    7.3450   52.5810 C.2   241  THR241      0.2287
     89  O         -6.5420    8.1500   51.9210 O.2   241  THR241     -0.2866
     90  CB        -6.4710    4.9770   52.0530 C.3   241  THR241      0.1770
     91  OG1       -7.4220    5.2020   50.9970 O.3   241  THR241     -0.2211
     92  CG2       -6.7400    3.5980   52.6830 C.3   241  THR241      0.0375
     93  N         -2.9020    8.3270   50.1830 N.3   243  TRP243     -0.1241
     94  CA        -1.9750    7.7750   49.1890 C.3   243  TRP243      0.1605
     95  C         -1.3990    8.8600   48.2870 C.2   243  TRP243      0.2264
     96  O         -0.7370    8.5580   47.2940 O.2   243  TRP243     -0.2867
     97  CB        -2.6690    6.6910   48.3470 C.3   243  TRP243      0.0550
     98  CG        -4.0380    7.0720   47.8580 C.ar  243  TRP243      0.0003
     99  CD1       -5.2180    6.8920   48.5160 C.ar  243  TRP243      0.0946
    100  CD2       -4.3650    7.6810   46.6030 C.ar  243  TRP243      0.0152
    101  NE1       -6.2650    7.3630   47.7480 N.ar  243  TRP243     -0.2442
    102  CE2       -5.7620    7.8490   46.5710 C.ar  243  TRP243      0.0810
    103  CE3       -3.6110    8.1070   45.5050 C.ar  243  TRP243      0.0012
    104  CZ2       -6.4180    8.4460   45.4930 C.ar  243  TRP243      0.0191
    105  CZ3       -4.2690    8.6690   44.4200 C.ar  243  TRP243      0.0001
    106  CH2       -5.6580    8.8350   44.4240 C.ar  243  TRP243      0.0015
    107  N        -11.2290    8.9900   50.4370 N.3   261  ASN261     -0.1240
    108  CA       -12.6810    8.7820   50.4240 C.3   261  ASN261      0.1653
    109  C        -13.1620    7.7470   51.4310 C.2   261  ASN261      0.2266
    110  O        -12.4260    6.8240   51.7650 O.2   261  ASN261     -0.2867
    111  CB       -13.1390    8.3700   49.0190 C.3   261  ASN261      0.1155
    112  CG       -12.4890    7.0700   48.5390 C.2   261  ASN261      0.2627
    113  OD1      -11.2640    6.9790   48.3780 O.2   261  ASN261     -0.2716
    114  ND2      -13.3170    6.0670   48.2740 N.am  261  ASN261     -0.0877
    115  N        -18.3230    3.2280   47.9470 N.3   265  TRP265     -0.1241
    116  CA       -18.7410    4.3860   47.1620 C.3   265  TRP265      0.1605
    117  C        -20.2430    4.5900   47.3270 C.2   265  TRP265      0.2264
    118  O        -20.7430    5.7020   47.1770 O.2   265  TRP265     -0.2867
    119  CB       -18.3980    4.2270   45.6850 C.3   265  TRP265      0.0550
    120  CG       -16.9310    4.2470   45.3760 C.ar  265  TRP265      0.0003
    121  CD1      -15.9010    4.0430   46.2440 C.ar  265  TRP265      0.0946
    122  CD2      -16.3450    4.4980   44.1020 C.ar  265  TRP265      0.0152
    123  NE1      -14.7000    4.1410   45.5830 N.ar  265  TRP265     -0.2442
    124  CE2      -14.9450    4.4100   44.2610 C.ar  265  TRP265      0.0810
    125  CE3      -16.8690    4.7620   42.8330 C.ar  265  TRP265      0.0012
    126  CZ2      -14.0560    4.6020   43.2000 C.ar  265  TRP265      0.0191
    127  CZ3      -15.9820    4.9460   41.7660 C.ar  265  TRP265      0.0001
    128  CH2      -14.5960    4.8600   41.9600 C.ar  265  TRP265      0.0015
    129  N        -16.7180    9.6900   45.4630 N.3   303  ASP303     -0.1239
    130  CA       -15.2950    9.3020   45.4860 C.3   303  ASP303      0.1674
    131  C        -14.3590   10.4800   45.1680 C.2   303  ASP303      0.2266
    132  O        -13.4410   10.3650   44.3470 O.2   303  ASP303     -0.2867
    133  CB       -15.0340    8.1400   44.5100 C.3   303  ASP303      0.1410
    134  CG       -13.5860    7.6700   44.5220 C.2   303  ASP303      0.3668
    135  OD1      -12.9790    7.6280   45.6050 O.co2 303  ASP303     -0.2456
    136  OD2      -13.0540    7.3680   43.4350 O.co2 303  ASP303     -0.2456
    137  N        -11.7350   11.4630   46.5010 N.3   305  ALA305     -0.1245
    138  CA       -10.6850   11.1110   47.4810 C.3   305  ALA305      0.1562
    139  C         -9.7640   12.2820   47.7910 C.2   305  ALA305      0.2260
    140  O         -9.0990   12.8160   46.9140 O.2   305  ALA305     -0.2867
    141  CB        -9.8750    9.9200   46.9840 C.3   305  ALA305      0.0290
    142  N         -9.7810   16.7880   44.6070 N.3   331  ARG331     -0.1245
    143  CA       -10.5680   16.0130   43.6450 C.3   331  ARG331      0.1563
    144  C        -11.9560   16.6050   43.4290 C.2   331  ARG331      0.2260
    145  O        -12.4770   16.5710   42.3040 O.2   331  ARG331     -0.2867
    146  CB       -10.7100   14.5650   44.1170 C.3   331  ARG331      0.0307
    147  CG        -9.4520   13.7290   43.9210 C.3   331  ARG331      0.0489
    148  CD        -9.5590   12.9170   42.6500 C.3   331  ARG331      0.2205
    149  NE       -10.4350   11.7610   42.8100 N.pl3 331  ARG331     -0.0865
    150  CZ       -10.0200   10.5880   43.2730 C.cat 331  ARG331      0.5346
    151  NH1      -10.8630    9.5760   43.3890 N.pl3 331  ARG331      0.1354
    152  NH2       -8.7470   10.4320   43.6150 N.pl3 331  ARG331      0.1354
    153  N         -6.3630   15.0870   40.1650 N.3   394  ASN394     -0.1225
    154  CA        -6.0300   13.8300   40.8030 C.3   394  ASN394      0.1785
    155  C         -4.6200   13.9250   41.4160 C.2   394  ASN394      0.2597
    156  O         -4.2400   14.9850   41.9090 O.2   394  ASN394     -0.2718
    157  CB        -6.1720   12.6870   39.7840 C.3   394  ASN394      0.1169
    158  CG        -6.4360   11.3430   40.4330 C.2   394  ASN394      0.2627
    159  OD1       -5.5110   10.6920   40.8960 O.2   394  ASN394     -0.2716
    160  ND2       -7.7060   10.9070   40.4450 N.am  394  ASN394     -0.0877
    161  N         -3.8460   12.8470   41.3460 N.am  395  GLN395     -0.1979
    162  CA        -2.5660   12.7100   42.0590 C.3   395  GLN395      0.1601
    163  C         -1.3800   13.5450   41.5660 C.2   395  GLN395      0.2287
    164  O         -0.2880   13.4500   42.1290 O.2   395  GLN395     -0.2864
    165  CB        -2.1440   11.2330   42.0280 C.3   395  GLN395      0.0394
    166  CG        -1.8950   10.6840   40.6040 C.3   395  GLN395      0.0908
    167  CD        -0.4280   10.7780   40.1660 C.2   395  GLN395      0.2608
    168  OE1        0.4700   10.3150   40.8720 O.2   395  GLN395     -0.2717
    169  NE2       -0.1850   11.4020   39.0130 N.am  395  GLN395     -0.0878
    170  N         -2.5980   14.6850   34.1090 N.3   476  TRP476     -0.1241
    171  CA        -2.5960   13.8030   35.2680 C.3   476  TRP476      0.1605
    172  C         -1.3670   13.8920   36.1450 C.2   476  TRP476      0.2264
    173  O         -1.4230   13.5520   37.3310 O.2   476  TRP476     -0.2867
    174  CB        -2.7330   12.3560   34.7840 C.3   476  TRP476      0.0550
    175  CG        -3.3180   11.3920   35.7760 C.ar  476  TRP476      0.0003
    176  CD1       -2.6580   10.4120   36.4720 C.ar  476  TRP476      0.0946
    177  CD2       -4.6980   11.2820   36.1320 C.ar  476  TRP476      0.0152
    178  NE1       -3.5500    9.7180   37.2610 N.ar  476  TRP476     -0.2442
    179  CE2       -4.8090   10.2280   37.0630 C.ar  476  TRP476      0.0810
    180  CE3       -5.8540   11.9760   35.7490 C.ar  476  TRP476      0.0012
    181  CZ2       -6.0370    9.8480   37.6230 C.ar  476  TRP476      0.0191
    182  CZ3       -7.0700   11.6060   36.3080 C.ar  476  TRP476      0.0001
    183  CH2       -7.1510   10.5440   37.2340 C.ar  476  TRP476      0.0015
    184  N         -1.8430    4.2960   35.2910 N.3   539  GLY539     -0.1210
    185  CA        -2.7260    4.8290   36.3140 C.3   539  GLY539      0.1956
    186  C         -4.1750    4.7270   35.8700 C.2   539  GLY539      0.2611
    187  O         -4.5130    4.0400   34.9020 O.2   539  GLY539     -0.2717
    188  N         -5.0490    5.4440   36.5640 N.am  540  TRP540     -0.1976
    189  CA        -6.4830    5.3290   36.3060 C.3   540  TRP540      0.1640
    190  C         -6.8920    5.6690   34.8600 C.2   540  TRP540      0.2290
    191  O         -7.6980    4.9360   34.2780 O.2   540  TRP540     -0.2864
    192  CB        -7.2560    6.2180   37.2900 C.3   540  TRP540      0.0576
    193  CG        -8.7160    5.8450   37.4520 C.ar  540  TRP540      0.0006
    194  CD1       -9.4130    4.9030   36.7490 C.ar  540  TRP540      0.0946
    195  CD2       -9.6410    6.4020   38.3960 C.ar  540  TRP540      0.0152
    196  NE1      -10.7220    4.8560   37.1840 N.ar  540  TRP540     -0.2442
    197  CE2      -10.8860    5.7710   38.1880 C.ar  540  TRP540      0.0810
    198  CE3       -9.5470    7.3980   39.3670 C.ar  540  TRP540      0.0012
    199  CZ2      -12.0130    6.0820   38.9370 C.ar  540  TRP540      0.0191
    200  CZ3      -10.6870    7.7090   40.1070 C.ar  540  TRP540      0.0001
    201  CH2      -11.8900    7.0490   39.8900 C.ar  540  TRP540      0.0015
@<TRIPOS>BOND
     1   170   171    1
     2   191   190    2
     3   174   171    1
     4   174   175    1
     5   190   189    1
     6   187   186    2
     7   171   172    1
     8   184   185    1
     9    29    27   ar
    10   180   177   ar
    11   180   182   ar
    12   175   177   ar
    13   175   176   ar
    14   186   185    1
    15   186   188   am
    16    28    27   ar
    17    27    26    1
    18   177   179   ar
    19   172   173    2
    20   189   188    1
    21   189   192    1
    22   182   183   ar
    23   176   178   ar
    24   194   196   ar
    25   194   193   ar
    26    26    23    1
    27   179   178   ar
    28   179   181   ar
    29   196   197   ar
    30   183   181   ar
    31   192   193    1
    32   193   195   ar
    33     1     2    1
    34    23    22    1
    35    23    24    1
    36   197   195   ar
    37   197   199   ar
    38    35    34    1
    39     2     3    1
    40     2     5    1
    41   195   198   ar
    42     6     5    1
    43     6     7    1
    44    22    18   am
    45     9     7   ar
    46    19    18    2
    47   199   201   ar
    48    18    17    1
    49   169   167   am
    50     4     3    2
    51    24    25    2
    52     7     8   ar
    53   198   200   ar
    54    17    20    1
    55    17    16    1
    56    13    12    2
    57   157   158    1
    58   157   154    1
    59    34    31    1
    60    34    36    1
    61   201   200   ar
    62    30    31    1
    63    31    32    1
    64   153   154    1
    65   167   166    1
    66   167   168    2
    67    20    21    1
    68   158   160   am
    69   158   159    2
    70    16    12   am
    71   166   165    1
    72    12    11    1
    73   154   155    1
    74   161   155   am
    75   161   162    1
    76    21    15    1
    77    32    33    2
    78   155   156    2
    79   163   162    1
    80   163   164    2
    81   127   128   ar
    82   127   125   ar
    83   128   126   ar
    84   165   162    1
    85    11    10    1
    86    11    14    1
    87   145   144    2
    88   148   149    1
    89   148   147    1
    90   149   150    2
    91   125   122   ar
    92    14    15    1
    93    47    45    1
    94   126   124   ar
    95    44    45    2
    96    44    43    1
    97    38    37    1
    98    38    39    1
    99    38    41    1
   100   150   151    1
   101   150   152    1
   102    42    43    1
   103    42    41    1
   104   144   143    1
   105   136   134   ar
   106   143   146    1
   107   143   142    1
   108    40    39    2
   109    45    46    1
   110   147   146    1
   111   122   124   ar
   112   122   120   ar
   113   124   123   ar
   114   132   131    2
   115   105   106   ar
   116   105   103   ar
   117   106   104   ar
   118   133   134    1
   119   133   130    1
   120   134   135   ar
   121    61    59    1
   122    82    83    1
   123    82    81    1
   124    59    60    1
   125    59    56    1
   126   131   130    1
   127   120   119    1
   128   120   121   ar
   129    58    57    2
   130   129   130    1
   131   104   102   ar
   132   103   100   ar
   133    84    83   ar
   134   123   121   ar
   135   119   116    1
   136    83    85   ar
   137    81    78    1
   138    56    57    1
   139    56    55    1
   140   137   138    1
   141   102   100   ar
   142   102   101   ar
   143   100    98   ar
   144   140   139    2
   145   141   138    1
   146    80    79    2
   147   116   117    1
   148   116   115    1
   149   118   117    2
   150    78    79    1
   151    78    77    1
   152    54    52    1
   153    96    95    2
   154    53    52    1
   155   138   139    1
   156    52    49    1
   157   101    99   ar
   158    98    97    1
   159    98    99   ar
   160    77    74   am
   161    67    66    1
   162   114   112   am
   163    95    94    1
   164    97    94    1
   165   113   112    2
   166   112   111    1
   167    66    63    1
   168   111   108    1
   169    94    93    1
   170    49    50    1
   171    49    48    1
   172    74    75    2
   173    74    73    1
   174    68    69    1
   175    68    64   am
   176    69    70    1
   177    50    51    2
   178    72    70   am
   179    72    73    1
   180    70    71    2
   181    63    64    1
   182    63    62    1
   183    64    65    2
   184    76    73    1
   185   108   107    1
   186   108   109    1
   187    91    90    1
   188   109   110    2
   189    89    88    2
   190    90    92    1
   191    90    87    1
   192    88    87    1
   193    87    86    1
