@<TRIPOS>MOLECULE
tmp/5xm7A00.pdb
 226 212 0 0 0
SMALL
GASTEIGER

@<TRIPOS>ATOM
      1  N        -15.0770   21.4840  -17.1700 N.3   122  GLN122     -0.1245
      2  CA       -14.4870   20.2720  -16.6370 C.3   122  GLN122      0.1566
      3  C        -13.1340   20.0300  -17.3110 C.2   122  GLN122      0.2260
      4  O        -13.0760   19.7210  -18.5110 O.2   122  GLN122     -0.2867
      5  CB       -15.3960   19.0570  -16.8690 C.3   122  GLN122      0.0367
      6  CG       -14.7720   17.7240  -16.5850 C.3   122  GLN122      0.0905
      7  CD       -14.4580   17.5760  -15.1300 C.2   122  GLN122      0.2608
      8  OE1      -15.1400   18.1280  -14.2790 O.2   122  GLN122     -0.2717
      9  NE2      -13.4250   16.8660  -14.8480 N.am  122  GLN122     -0.0878
     10  N        -10.3020   17.9650  -15.7160 N.3   124  GLU124     -0.1245
     11  CA        -9.6600   16.6650  -15.5160 C.3   124  GLU124      0.1567
     12  C        -10.2130   15.6460  -16.5540 C.2   124  GLU124      0.2260
     13  O        -11.4090   15.5760  -16.7060 O.2   124  GLU124     -0.2867
     14  CB        -9.8840   16.1570  -14.0790 C.3   124  GLU124      0.0388
     15  CG        -9.0660   14.9240  -13.8630 C.3   124  GLU124      0.1160
     16  CD        -9.1190   14.3500  -12.4870 C.2   124  GLU124      0.3649
     17  OE1       -9.9080   14.8250  -11.6460 O.co2 124  GLU124     -0.2457
     18  OE2       -8.3930   13.3890  -12.2750 O.co2 124  GLU124     -0.2457
     19  N        -19.5100   12.5250  -15.1320 N.3   264  VAL264     -0.1231
     20  CA       -19.2490   11.6450  -14.0120 C.3   264  VAL264      0.1692
     21  C        -20.0600   12.1650  -12.7860 C.2   264  VAL264      0.2593
     22  O        -21.1220   12.7920  -12.9550 O.2   264  VAL264     -0.2718
     23  CB       -17.6990   11.4630  -13.8240 C.3   264  VAL264      0.0266
     24  CG1      -17.0610   10.9400  -15.1090 C.3   264  VAL264      0.0020
     25  CG2      -16.9960   12.7520  -13.4240 C.3   264  VAL264      0.0020
     26  N        -19.5800   11.9330  -11.5690 N.am  265  GLY265     -0.1942
     27  CA       -20.2950   12.3050  -10.3400 C.3   265  GLY265      0.2014
     28  C        -19.9900   13.7010   -9.8660 C.2   265  GLY265      0.2639
     29  O        -20.8850   14.4950   -9.7020 O.2   265  GLY265     -0.2714
     30  N        -18.7020   14.0310   -9.7610 N.am  266  ALA266     -0.1963
     31  CA       -18.2710   15.3440   -9.3540 C.3   266  ALA266      0.1728
     32  C        -16.7650   15.5100   -9.5490 C.2   266  ALA266      0.2616
     33  O        -16.0710   14.5610   -9.9190 O.2   266  ALA266     -0.2715
     34  CB       -18.6580   15.6590   -7.8530 C.3   266  ALA266      0.0334
     35  N        -16.2420   16.6850   -9.1970 N.am  267  MET267     -0.1963
     36  CA       -14.8810   17.0720   -9.5140 C.3   267  MET267      0.1736
     37  C        -14.3790   18.0230   -8.4710 C.2   267  MET267      0.2616
     38  O        -15.0810   18.9860   -8.1010 O.2   267  MET267     -0.2715
     39  CB       -14.8530   17.7030  -10.9220 C.3   267  MET267      0.0427
     40  CG       -13.4690   18.2060  -11.3440 C.3   267  MET267      0.0599
     41  SD       -12.3000   16.8310  -11.4090 S.3   267  MET267     -0.1393
     42  CE       -10.8080   17.7030  -10.8790 C.3   267  MET267      0.0692
     43  N        -13.1490   17.7970   -8.0500 N.am  268  GLU268     -0.1977
     44  CA       -12.5600   18.4570   -6.8610 C.3   268  GLU268      0.1602
     45  C        -11.8220   19.8070   -7.1150 C.2   268  GLU268      0.2287
     46  O        -10.8510   20.1280   -6.4050 O.2   268  GLU268     -0.2864
     47  CB       -11.5660   17.4680   -6.1990 C.3   268  GLU268      0.0415
     48  CG       -10.2560   17.2080   -6.9930 C.3   268  GLU268      0.1163
     49  CD       -10.2780   15.9540   -7.8660 C.2   268  GLU268      0.3649
     50  OE1      -11.3880   15.4960   -8.2480 O.co2 268  GLU268     -0.2457
     51  OE2       -9.1770   15.3750   -8.1170 O.co2 268  GLU268     -0.2457
     52  N        -25.4480    8.5190   -1.7150 N.3   294  ARG294     -0.1245
     53  CA       -24.6570    9.0010   -2.8630 C.3   294  ARG294      0.1563
     54  C        -24.0810   10.4170   -2.6190 C.2   294  ARG294      0.2260
     55  O        -22.9160   10.6780   -2.8720 O.2   294  ARG294     -0.2867
     56  CB       -25.5720    8.9710   -4.1040 C.3   294  ARG294      0.0307
     57  CG       -24.9650    9.4930   -5.3930 C.3   294  ARG294      0.0489
     58  CD       -23.7650    8.6760   -5.7970 C.3   294  ARG294      0.2205
     59  NE       -23.2830    9.1450   -7.0950 N.pl3 294  ARG294     -0.0865
     60  CZ       -22.1920    8.6890   -7.6980 C.cat 294  ARG294      0.5346
     61  NH1      -21.8290    9.2320   -8.8510 N.pl3 294  ARG294      0.1354
     62  NH2      -21.4450    7.7020   -7.1520 N.pl3 294  ARG294      0.1354
     63  N        -21.3680   10.3930    0.0840 N.3   297  THR297     -0.1203
     64  CA       -20.1740    9.8600   -0.5450 C.3   297  THR297      0.1994
     65  C        -19.4740   10.8510   -1.4670 C.2   297  THR297      0.2617
     66  O        -18.2700   11.0560   -1.3600 O.2   297  THR297     -0.2717
     67  CB       -20.5500    8.6010   -1.4000 C.3   297  THR297      0.1784
     68  OG1      -20.8050    7.5400   -0.4890 O.3   297  THR297     -0.2211
     69  CG2      -19.4890    8.2050   -2.3770 C.3   297  THR297      0.0376
     70  N        -20.2130   11.4520   -2.3760 N.am  298  VAL298     -0.1979
     71  CA       -19.5560   12.3050   -3.3790 C.3   298  VAL298      0.1595
     72  C        -19.0620   13.6220   -2.7670 C.2   298  VAL298      0.2287
     73  O        -17.9110   14.0970   -3.0380 O.2   298  VAL298     -0.2864
     74  CB       -20.4830   12.5250   -4.5630 C.3   298  VAL298      0.0276
     75  CG1      -19.8680   13.5100   -5.5850 C.3   298  VAL298      0.0022
     76  CG2      -20.8130   11.1530   -5.1890 C.3   298  VAL298      0.0022
     77  N        -15.9920   12.6880   -0.8730 N.3   301  HIS301     -0.1226
     78  CA       -14.9190   12.3290   -1.7960 C.3   301  HIS301      0.1752
     79  C        -14.2690   13.5960   -2.3010 C.2   301  HIS301      0.2595
     80  O        -13.0580   13.7550   -2.2160 O.2   301  HIS301     -0.2718
     81  CB       -15.4980   11.5040   -2.9180 C.3   301  HIS301      0.0759
     82  CG       -14.5190   11.0700   -3.9310 C.ar  301  HIS301      0.0818
     83  ND1      -14.0270    9.7850   -3.9710 N.ar  301  HIS301     -0.2268
     84  CD2      -13.9460   11.7300   -4.9720 C.ar  301  HIS301      0.1154
     85  CE1      -13.1940    9.6730   -4.9860 C.ar  301  HIS301      0.1986
     86  NE2      -13.1300   10.8290   -5.6090 N.ar  301  HIS301     -0.2212
     87  N        -15.0430   14.5110   -2.8780 N.am  302  GLU302     -0.1979
     88  CA       -14.4310   15.7620   -3.3680 C.3   302  GLU302      0.1602
     89  C        -13.7310   16.5720   -2.2870 C.2   302  GLU302      0.2287
     90  O        -12.6750   17.1760   -2.5470 O.2   302  GLU302     -0.2864
     91  CB       -15.4070   16.6440   -4.1770 C.3   302  GLU302      0.0415
     92  CG       -16.2370   15.9180   -5.2480 C.3   302  GLU302      0.1163
     93  CD       -15.4780   14.9670   -6.1740 C.2   302  GLU302      0.3649
     94  OE1      -14.2940   15.2120   -6.4350 O.co2 302  GLU302     -0.2457
     95  OE2      -16.0680   13.9560   -6.7040 O.co2 302  GLU302     -0.2457
     96  N        -10.3320   15.0870   -1.4090 N.3   305  HIS305     -0.1241
     97  CA        -9.3070   15.4420   -2.3900 C.3   305  HIS305      0.1621
     98  C         -8.5540   16.7430   -2.0900 C.2   305  HIS305      0.2264
     99  O         -7.4870   16.9640   -2.6770 O.2   305  HIS305     -0.2867
    100  CB        -9.9160   15.6390   -3.7340 C.3   305  HIS305      0.0745
    101  CG        -9.9990   14.4220   -4.5740 C.ar  305  HIS305      0.0817
    102  ND1       -8.9320   13.5790   -4.8050 N.ar  305  HIS305     -0.2268
    103  CD2      -10.9980   13.9830   -5.3610 C.ar  305  HIS305      0.1154
    104  CE1       -9.2880   12.6720   -5.6930 C.ar  305  HIS305      0.1986
    105  NE2      -10.5500   12.8800   -6.0110 N.ar  305  HIS305     -0.2212
    106  N         -7.0050    8.8590   -6.3820 N.3   324  GLU324     -0.1245
    107  CA        -8.3630    8.2390   -6.3910 C.3   324  GLU324      0.1567
    108  C         -8.5340    7.0870   -5.4550 C.2   324  GLU324      0.2260
    109  O         -9.5310    7.0340   -4.7410 O.2   324  GLU324     -0.2867
    110  CB        -8.8480    7.8740   -7.7890 C.3   324  GLU324      0.0388
    111  CG        -8.8390    9.0300   -8.7430 C.3   324  GLU324      0.1160
    112  CD        -9.7530   10.1800   -8.3230 C.2   324  GLU324      0.3649
    113  OE1      -10.6290    9.9890   -7.4470 O.co2 324  GLU324     -0.2457
    114  OE2       -9.5950   11.3020   -8.8670 O.co2 324  GLU324     -0.2457
    115  N        -10.9540    7.4610   -2.2670 N.3   328  VAL328     -0.1245
    116  CA       -12.0560    6.4690   -2.0720 C.3   328  VAL328      0.1561
    117  C        -11.9900    5.8450   -0.6720 C.2   328  VAL328      0.2260
    118  O        -12.9850    5.7910    0.0360 O.2   328  VAL328     -0.2867
    119  CB       -12.1200    5.4280   -3.1630 C.3   328  VAL328      0.0252
    120  CG1      -13.1940    4.3440   -2.8420 C.3   328  VAL328      0.0019
    121  CG2      -12.5740    6.1200   -4.4550 C.3   328  VAL328      0.0019
    122  N        -13.0620    8.3630    1.8200 N.3   331  GLU331     -0.1245
    123  CA       -14.4850    8.5280    1.7530 C.3   331  GLU331      0.1567
    124  C        -15.1770    7.3040    2.4230 C.2   331  GLU331      0.2260
    125  O        -16.2520    7.4600    2.9660 O.2   331  GLU331     -0.2867
    126  CB       -14.9230    8.7550    0.3320 C.3   331  GLU331      0.0388
    127  CG       -16.4170    8.8100    0.1580 C.3   331  GLU331      0.1160
    128  CD       -17.0890    7.4390    0.0920 C.2   331  GLU331      0.3649
    129  OE1      -16.6030    6.5890   -0.6800 O.co2 331  GLU331     -0.2457
    130  OE2      -18.1390    7.2600    0.7660 O.co2 331  GLU331     -0.2457
    131  N        -19.7230   -4.2630   -4.7390 N.3   351  LEU351     -0.1245
    132  CA       -19.3380   -3.5460   -5.9450 C.3   351  LEU351      0.1561
    133  C        -18.0060   -4.0460   -6.4890 C.2   351  LEU351      0.2260
    134  O        -17.9020   -4.3500   -7.6760 O.2   351  LEU351     -0.2867
    135  CB       -19.3110   -1.9990   -5.6930 C.3   351  LEU351      0.0270
    136  CG       -19.2870   -1.0910   -6.9320 C.3   351  LEU351      0.0019
    137  CD1      -17.9770   -1.1020   -7.7340 C.3   351  LEU351      0.0001
    138  CD2      -20.4770   -1.3900   -7.8480 C.3   351  LEU351      0.0001
    139  N        -18.2280   -5.8160  -10.1190 N.3   355  VAL355     -0.1245
    140  CA       -17.7700   -4.9980  -11.2280 C.3   355  VAL355      0.1561
    141  C        -16.2150   -5.0360  -11.4210 C.2   355  VAL355      0.2260
    142  O        -15.7130   -5.2550  -12.5410 O.2   355  VAL355     -0.2867
    143  CB       -18.3310   -3.5630  -11.1120 C.3   355  VAL355      0.0252
    144  CG1      -17.8170   -2.6880  -12.2370 C.3   355  VAL355      0.0019
    145  CG2      -19.8770   -3.5820  -11.2490 C.3   355  VAL355      0.0019
    146  N        -13.8780   -6.8030  -14.4370 N.3   359  GLU359     -0.1245
    147  CA       -12.8370   -6.0100  -15.1130 C.3   359  GLU359      0.1567
    148  C        -11.4580   -6.6680  -15.0730 C.2   359  GLU359      0.2260
    149  O        -10.8350   -6.8620  -16.1390 O.2   359  GLU359     -0.2867
    150  CB       -12.7430   -4.5740  -14.5700 C.3   359  GLU359      0.0388
    151  CG       -11.7630   -3.7030  -15.3550 C.3   359  GLU359      0.1160
    152  CD       -11.9600   -2.2150  -15.0760 C.2   359  GLU359      0.3649
    153  OE1      -11.3380   -1.7340  -14.1180 O.co2 359  GLU359     -0.2457
    154  OE2      -12.7270   -1.5240  -15.8090 O.co2 359  GLU359     -0.2457
    155  N         -9.9480    5.9290  -15.7710 N.3   380  TYR380     -0.1227
    156  CA       -10.7500    6.2620  -14.6230 C.3   380  TYR380      0.1736
    157  C        -11.7510    5.0970  -14.3470 C.2   380  TYR380      0.2596
    158  O        -12.9470    5.2160  -14.5240 O.2   380  TYR380     -0.2718
    159  CB       -11.4570    7.5970  -14.7910 C.3   380  TYR380      0.0548
    160  CG       -10.5120    8.7840  -14.6830 C.ar  380  TYR380     -0.0200
    161  CD1       -9.7180    9.1620  -15.7440 C.ar  380  TYR380     -0.0009
    162  CD2      -10.3870    9.5080  -13.5280 C.ar  380  TYR380     -0.0009
    163  CE1       -8.8740   10.2420  -15.6530 C.ar  380  TYR380      0.0417
    164  CE2       -9.5160   10.6040  -13.4430 C.ar  380  TYR380      0.0417
    165  CZ        -8.7600   10.9610  -14.5120 C.ar  380  TYR380      0.1957
    166  OH        -7.8810   12.0240  -14.4550 O.3   380  TYR380     -0.2866
    167  N        -11.1950    4.0140  -13.8560 N.am  381  THR381     -0.1939
    168  CA       -11.8450    2.6910  -13.7920 C.3   381  THR381      0.2028
    169  C        -12.0780    2.2190  -12.3550 C.2   381  THR381      0.2642
    170  O        -11.5140    2.7290  -11.3570 O.2   381  THR381     -0.2714
    171  CB       -10.9220    1.6570  -14.4450 C.3   381  THR381      0.1808
    172  OG1       -9.6930    1.6360  -13.7110 O.3   381  THR381     -0.2208
    173  CG2      -10.6120    1.9960  -15.9480 C.3   381  THR381      0.0379
    174  N        -12.9360    1.2460  -12.2430 N.am  382  THR382     -0.1950
    175  CA       -13.1860    0.5990  -10.9920 C.3   382  THR382      0.1897
    176  C        -11.9230   -0.0590  -10.4400 C.2   382  THR382      0.2313
    177  O        -11.7080   -0.0850   -9.1980 O.2   382  THR382     -0.2863
    178  CB       -14.3740   -0.4000  -11.0960 C.3   382  THR382      0.1794
    179  OG1      -14.6480   -0.9430   -9.8090 O.3   382  THR382     -0.2208
    180  CG2      -14.1250   -1.5180  -11.9830 C.3   382  THR382      0.0378
    181  N        -10.0740    3.0030   -8.9510 N.3   385  TYR385     -0.1227
    182  CA       -10.7730    3.5890   -7.8400 C.3   385  TYR385      0.1736
    183  C        -10.9930    2.5790   -6.6960 C.2   385  TYR385      0.2595
    184  O        -10.6070    2.8290   -5.5260 O.2   385  TYR385     -0.2718
    185  CB       -12.1490    4.1230   -8.3180 C.3   385  TYR385      0.0548
    186  CG       -12.0750    5.5330   -8.9000 C.ar  385  TYR385     -0.0200
    187  CD1      -11.4510    5.7790  -10.0910 C.ar  385  TYR385     -0.0009
    188  CD2      -12.6210    6.5750   -8.2390 C.ar  385  TYR385     -0.0009
    189  CE1      -11.3570    7.0260  -10.6380 C.ar  385  TYR385      0.0417
    190  CE2      -12.5390    7.8480   -8.7770 C.ar  385  TYR385      0.0417
    191  CZ       -11.8970    8.0600   -9.9840 C.ar  385  TYR385      0.1957
    192  OH       -11.7870    9.3360  -10.5020 O.3   385  TYR385     -0.2866
    193  N        -11.6220    1.4720   -7.0680 N.am  386  ASP386     -0.1974
    194  CA       -12.1000    0.5030   -6.1030 C.3   386  ASP386      0.1709
    195  C        -11.0590   -0.4750   -5.6730 C.2   386  ASP386      0.2293
    196  O        -10.8870   -0.6880   -4.4650 O.2   386  ASP386     -0.2864
    197  CB       -13.3850   -0.1480   -6.5810 C.3   386  ASP386      0.1436
    198  CG       -14.5050    0.9090   -6.8690 C.2   386  ASP386      0.3671
    199  OD1      -14.7110    1.7960   -6.0310 O.co2 386  ASP386     -0.2456
    200  OD2      -15.1090    0.8540   -7.9390 O.co2 386  ASP386     -0.2456
    201  N        -16.7980   10.1330  -23.8690 N.3   839  MET839     -0.1245
    202  CA       -16.6920    9.5700  -22.5430 C.3   839  MET839      0.1570
    203  C        -17.9350    8.7730  -22.2390 C.2   839  MET839      0.2261
    204  O        -17.8920    7.5960  -21.8070 O.2   839  MET839     -0.2867
    205  CB       -16.5120   10.7220  -21.5400 C.3   839  MET839      0.0387
    206  CG       -16.7610   10.2660  -20.1180 C.3   839  MET839      0.0595
    207  SD       -15.2020    9.5800  -19.5320 S.3   839  MET839     -0.1393
    208  CE       -14.6800   11.1920  -18.8090 C.3   839  MET839      0.0692
    209  N        -20.0760   -0.6770  -21.2310 N.3   846  GLU846     -0.1245
    210  CA       -19.8180   -1.5410  -20.0740 C.3   846  GLU846      0.1567
    211  C        -20.4020   -2.9950  -20.1450 C.2   846  GLU846      0.2260
    212  O        -19.7190   -3.9330  -19.7060 O.2   846  GLU846     -0.2867
    213  CB       -20.2400   -0.8060  -18.8240 C.3   846  GLU846      0.0388
    214  CG       -19.7580   -1.4510  -17.5350 C.3   846  GLU846      0.1160
    215  CD       -20.8580   -2.1090  -16.7680 C.2   846  GLU846      0.3649
    216  OE1      -20.7440   -2.1310  -15.4980 O.co2 846  GLU846     -0.2457
    217  OE2      -21.7870   -2.6150  -17.4300 O.co2 846  GLU846     -0.2457
    218  N        -18.1790   -5.8100  -21.5750 N.3   849  LYS849     -0.1245
    219  CA       -16.9120   -6.1530  -20.9680 C.3   849  LYS849      0.1561
    220  C        -16.7850   -7.6370  -20.7390 C.2   849  LYS849      0.2260
    221  O        -15.6760   -8.1660  -20.7330 O.2   849  LYS849     -0.2867
    222  CB       -16.7150   -5.3860  -19.6390 C.3   849  LYS849      0.0271
    223  CG       -16.6030   -3.8900  -19.8220 C.3   849  LYS849      0.0035
    224  CD       -16.5900   -3.1040  -18.4960 C.3   849  LYS849      0.0206
    225  CE       -15.2160   -2.9530  -17.9320 C.3   849  LYS849      0.1093
    226  NZ       -15.3670   -2.2560  -16.6270 N.3   849  LYS849     -0.1314
@<TRIPOS>BOND
     1   201   202    1
     2   202   203    1
     3   202   205    1
     4   203   204    2
     5   218   219    1
     6   205   206    1
     7   209   210    1
     8   219   220    1
     9   219   222    1
    10   220   221    2
    11   211   210    1
    12   211   212    2
    13   206   207    1
    14   210   213    1
    15   223   222    1
    16   223   224    1
    17   207   208    1
    18   213   214    1
    19     4     3    2
    20   224   225    1
    21   225   226    1
    22   214   215    1
    23   217   215   ar
    24     3     2    1
    25     1     2    1
    26     5     2    1
    27     5     6    1
    28   215   216   ar
    29    13    12    2
    30     6     7    1
    31    12    11    1
    32   149   148    2
    33   173   171    1
    34   154   152   ar
    35   155   156    1
    36   161   163   ar
    37   161   160   ar
    38    10    11    1
    39   163   165   ar
    40    11    14    1
    41   151   152    1
    42   151   150    1
    43    19    20    1
    44     7     9   am
    45     7     8    2
    46   147   148    1
    47   147   150    1
    48   147   146    1
    49    24    23    1
    50   152   153   ar
    51   159   160    1
    52   159   156    1
    53   160   162   ar
    54   156   157    1
    55   158   157    2
    56   165   166    1
    57   165   164   ar
    58   171   168    1
    59   171   172    1
    60   157   167   am
    61    14    15    1
    62    20    23    1
    63    20    21    1
    64    15    16    1
    65   167   168    1
    66    23    25    1
    67   168   169    1
    68   162   164   ar
    69    22    21    2
    70    21    26   am
    71   142   141    2
    72    16    18   ar
    73    16    17   ar
    74   169   174   am
    75   169   170    2
    76   174   175    1
    77   144   143    1
    78   180   178    1
    79    26    27    1
    80   141   140    1
    81    41    40    1
    82    41    42    1
    83    40    39    1
    84   145   143    1
    85   140   143    1
    86   140   139    1
    87   178   175    1
    88   178   179    1
    89   175   176    1
    90    39    36    1
    91   189   187   ar
    92   189   191   ar
    93   192   191    1
    94   176   177    2
    95    27    28    1
    96   187   186   ar
    97   191   190   ar
    98    33    32    2
    99    28    30   am
   100    28    29    2
   101    30    31    1
   102    32    31    1
   103    32    35   am
   104    36    35    1
   105    36    37    1
   106    31    34    1
   107   181   182    1
   108   186   185    1
   109   186   188   ar
   110   114   112   ar
   111    61    60    1
   112   190   188   ar
   113   111   112    1
   114   111   110    1
   115    37    38    2
   116    37    43   am
   117   112   113   ar
   118   185   182    1
   119    50    49   ar
   120    51    49   ar
   121    43    44    1
   122   200   198   ar
   123    49    48    1
   124   138   136    1
   125   182   183    1
   126   110   107    1
   127   137   136    1
   128    60    62    1
   129    60    59    2
   130   134   133    2
   131    45    44    1
   132    45    46    2
   133    59    58    1
   134   193   183   am
   135   193   194    1
   136    48    47    1
   137   136   135    1
   138   198   197    1
   139   198   199   ar
   140    44    47    1
   141    95    93   ar
   142   183   184    2
   143   197   194    1
   144   133   132    1
   145    94    93   ar
   146   107   106    1
   147   107   108    1
   148    93    92    1
   149   194   195    1
   150   105   104   ar
   151   105   103   ar
   152   132   135    1
   153   132   131    1
   154    58    57    1
   155   104   102   ar
   156   195   196    2
   157    86    85   ar
   158    86    84   ar
   159    75    74    1
   160   108   109    2
   161    57    56    1
   162   103   101   ar
   163    92    91    1
   164    76    74    1
   165    85    83   ar
   166    84    82   ar
   167   102   101   ar
   168   101   100    1
   169    74    71    1
   170   121   119    1
   171    91    88    1
   172    56    53    1
   173    83    82   ar
   174    82    81    1
   175   100    97    1
   176    71    72    1
   177    71    70    1
   178    88    87    1
   179    88    89    1
   180   119   120    1
   181   119   116    1
   182    73    72    2
   183    81    78    1
   184    87    79   am
   185    55    54    2
   186    53    54    1
   187    53    52    1
   188    99    98    2
   189    90    89    2
   190    97    98    1
   191    97    96    1
   192    69    67    1
   193    70    65   am
   194    79    80    2
   195    79    78    1
   196   115   116    1
   197   116   117    1
   198    78    77    1
   199    65    66    2
   200    65    64    1
   201    67    64    1
   202    67    68    1
   203   129   128   ar
   204   117   118    2
   205    64    63    1
   206   128   127    1
   207   128   130   ar
   208   127   126    1
   209   126   123    1
   210   123   122    1
   211   123   124    1
   212   124   125    2
