@<TRIPOS>MOLECULE
tmp/5xmjL03.pdb
 232 222 0 0 0
SMALL
GASTEIGER

@<TRIPOS>ATOM
      1  N         77.7130   -9.5560  110.6170 N.3    24  GLN24      -0.1231
      2  CA        78.2110   -8.2010  110.8780 C.3    24  GLN24       0.1698
      3  C         78.8050   -8.1020  112.2780 C.2    24  GLN24       0.2592
      4  O         79.8190   -7.4160  112.4750 O.2    24  GLN24      -0.2718
      5  CB        77.1150   -7.1370  110.7080 C.3    24  GLN24       0.0381
      6  CG        77.5930   -5.6910  111.0690 C.3    24  GLN24       0.0905
      7  CD        76.5160   -4.5900  110.9520 C.2    24  GLN24       0.2608
      8  OE1       76.6190   -3.7140  110.1020 O.2    24  GLN24      -0.2717
      9  NE2       75.5190   -4.6120  111.8310 N.am   24  GLN24      -0.0878
     10  N         78.1810   -8.7780  113.2660 N.am   25  MET25      -0.1979
     11  CA        78.6990   -8.7700  114.6380 C.3    25  MET25       0.1605
     12  C         80.0460   -9.4850  114.7450 C.2    25  MET25       0.2287
     13  O         80.9230   -9.0570  115.5090 O.2    25  MET25      -0.2864
     14  CB        77.7010   -9.4510  115.5760 C.3    25  MET25       0.0413
     15  CG        78.2850   -9.7770  116.9670 C.3    25  MET25       0.0598
     16  SD        77.9180  -11.3600  117.7700 S.3    25  MET25      -0.1393
     17  CE        78.8000  -12.5070  116.7060 C.3    25  MET25       0.0692
     18  N         82.7010   -7.4380  113.0810 N.3    28  GLY28      -0.1225
     19  CA        83.0940   -6.4140  114.0360 C.3    28  GLY28       0.1811
     20  C         83.9440   -6.9600  115.1730 C.2    28  GLY28       0.2280
     21  O         84.9040   -6.3130  115.6030 O.2    28  GLY28      -0.2866
     22  N         87.3730   -8.3010  113.7170 N.3    31  LEU31      -0.1231
     23  CA        88.1710   -7.1660  113.2920 C.3    31  LEU31       0.1693
     24  C         88.6340   -6.3600  114.5190 C.2    31  LEU31       0.2591
     25  O         89.7770   -5.8680  114.5530 O.2    31  LEU31      -0.2718
     26  CB        87.3290   -6.3800  112.2700 C.3    31  LEU31       0.0284
     27  CG        87.7610   -5.4170  111.1690 C.3    31  LEU31       0.0019
     28  CD1       88.2680   -4.1310  111.5800 C.3    31  LEU31       0.0001
     29  CD2       88.7830   -6.0880  110.3090 C.3    31  LEU31       0.0001
     30  N         87.8210   -6.3170  115.5820 N.am   32  ILE32      -0.1980
     31  CA        88.2670   -5.6520  116.8040 C.3    32  ILE32       0.1595
     32  C         89.4790   -6.3910  117.3750 C.2    32  ILE32       0.2287
     33  O         90.4770   -5.7640  117.7730 O.2    32  ILE32      -0.2864
     34  CB        87.1100   -5.5420  117.8280 C.3    32  ILE32       0.0276
     35  CG1       87.2220   -4.2740  118.6780 C.3    32  ILE32       0.0022
     36  CG2       87.0900   -6.6810  118.8280 C.3    32  ILE32       0.0022
     37  CD1       86.6460   -3.0270  118.0460 C.3    32  ILE32       0.0001
     38  N         92.6570   -5.4130  115.4820 N.3    35  LEU35      -0.1245
     39  CA        93.2330   -4.1100  115.8170 C.3    35  LEU35       0.1561
     40  C         93.8710   -4.1090  117.2060 C.2    35  LEU35       0.2260
     41  O         94.8730   -3.4140  117.4270 O.2    35  LEU35      -0.2867
     42  CB        92.1780   -3.0190  115.6690 C.3    35  LEU35       0.0270
     43  CG        92.7290   -1.6690  115.1990 C.3    35  LEU35       0.0019
     44  CD1       91.5740   -0.7770  114.8060 C.3    35  LEU35       0.0001
     45  CD2       93.5900   -0.9710  116.2600 C.3    35  LEU35       0.0001
     46  N         88.0450   -6.6290  105.8340 N.3    76  MET76      -0.1245
     47  CA        87.6660   -5.2610  106.1890 C.3    76  MET76       0.1570
     48  C         86.7190   -4.6760  105.1390 C.2    76  MET76       0.2261
     49  O         85.7880   -3.9320  105.4830 O.2    76  MET76      -0.2867
     50  CB        88.9140   -4.3940  106.3760 C.3    76  MET76       0.0387
     51  CG        88.6250   -2.9150  106.5420 C.3    76  MET76       0.0595
     52  SD        89.1920   -1.8810  105.1810 S.3    76  MET76      -0.1393
     53  CE        89.0920   -0.2370  105.9220 C.3    76  MET76       0.0692
     54  N         83.3400   -6.2730  105.8530 N.3    79  HIS79      -0.1226
     55  CA        82.7360   -5.4260  106.8850 C.3    79  HIS79       0.1752
     56  C         82.0860   -4.1890  106.2500 C.2    79  HIS79       0.2596
     57  O         80.8940   -3.9290  106.4450 O.2    79  HIS79      -0.2718
     58  CB        83.8290   -5.0510  107.9040 C.3    79  HIS79       0.0759
     59  CG        83.3810   -4.1910  109.0460 C.ar   79  HIS79       0.0818
     60  ND1       83.0250   -4.7090  110.2720 N.ar   79  HIS79      -0.2268
     61  CD2       83.3160   -2.8450  109.1750 C.ar   79  HIS79       0.1154
     62  CE1       82.7210   -3.7190  111.0940 C.ar   79  HIS79       0.1986
     63  NE2       82.8900   -2.5760  110.4530 N.ar   79  HIS79      -0.2212
     64  N         82.8360   -3.4760  105.4010 N.am   80  PHE80      -0.1976
     65  CA        82.3270   -2.2560  104.7700 C.3    80  PHE80       0.1639
     66  C         81.0150   -2.5120  104.0550 C.2    80  PHE80       0.2290
     67  O         80.0980   -1.6860  104.1050 O.2    80  PHE80      -0.2864
     68  CB        83.3780   -1.7280  103.7960 C.3    80  PHE80       0.0560
     69  CG        82.8570   -0.8100  102.7370 C.ar   80  PHE80      -0.0200
     70  CD1       82.4830    0.4650  103.0380 C.ar   80  PHE80      -0.0042
     71  CD2       82.7980   -1.2180  101.4280 C.ar   80  PHE80      -0.0042
     72  CE1       82.0490    1.3110  102.0510 C.ar   80  PHE80      -0.0003
     73  CE2       82.3550   -0.3780  100.4540 C.ar   80  PHE80      -0.0003
     74  CZ        81.9790    0.8860  100.7660 C.ar   80  PHE80      -0.0000
     75  N         78.0940   -3.3630  106.7000 N.3    83  ALA83      -0.1245
     76  CA        77.6660   -2.1910  107.4610 C.3    83  ALA83       0.1562
     77  C         77.1050   -1.0850  106.5750 C.2    83  ALA83       0.2260
     78  O         76.1840   -0.3710  106.9880 O.2    83  ALA83      -0.2867
     79  CB        78.8080   -1.6610  108.3130 C.3    83  ALA83       0.0290
     80  N         73.3610   -0.1570  106.6130 N.3    86  LYS86      -0.1231
     81  CA        72.6470    0.8140  107.4400 C.3    86  LYS86       0.1693
     82  C         73.1880    2.2220  107.3420 C.2    86  LYS86       0.2591
     83  O         72.6980    3.0990  108.0340 O.2    86  LYS86      -0.2718
     84  CB        72.6530    0.4360  108.9210 C.3    86  LYS86       0.0285
     85  CG        72.0150   -0.8540  109.2910 C.3    86  LYS86       0.0035
     86  CD        71.9650   -0.9910  110.8120 C.3    86  LYS86       0.0206
     87  CE        71.1380   -2.2170  111.2380 C.3    86  LYS86       0.1093
     88  NZ        71.7090   -3.5660  110.7710 N.3    86  LYS86      -0.1314
     89  N         74.1230    2.4780  106.5180 N.am   87  MET87      -0.1979
     90  CA        74.7390    3.7780  106.5630 C.3    87  MET87       0.1605
     91  C         73.8220    4.8340  105.9710 C.2    87  MET87       0.2287
     92  O         73.3180    4.6440  104.8650 O.2    87  MET87      -0.2864
     93  CB        76.0300    3.7340  105.7860 C.3    87  MET87       0.0413
     94  CG        76.9890    2.8080  106.3820 C.3    87  MET87       0.0598
     95  SD        78.5350    3.0790  105.6100 S.3    87  MET87      -0.1393
     96  CE        78.7400    4.8250  105.8870 C.3    87  MET87       0.0692
     97  N         76.3710    7.3720  116.9830 N.3   112  TRP112     -0.1241
     98  CA        76.2290    6.6770  115.7110 C.3   112  TRP112      0.1605
     99  C         76.7120    7.5330  114.5440 C.2   112  TRP112      0.2264
    100  O         77.4150    7.0320  113.6550 O.2   112  TRP112     -0.2867
    101  CB        74.7950    6.2250  115.4980 C.3   112  TRP112      0.0550
    102  CG        74.6760    5.2330  114.3730 C.ar  112  TRP112      0.0003
    103  CD1       75.1320    3.9410  114.3570 C.ar  112  TRP112      0.0946
    104  CD2       74.0080    5.4330  113.1310 C.ar  112  TRP112      0.0152
    105  NE1       74.8210    3.3450  113.1580 N.ar  112  TRP112     -0.2442
    106  CE2       74.1290    4.2400  112.3920 C.ar  112  TRP112      0.0810
    107  CE3       73.3270    6.5110  112.5640 C.ar  112  TRP112      0.0012
    108  CZ2       73.6050    4.1030  111.1320 C.ar  112  TRP112      0.0191
    109  CZ3       72.8030    6.3670  111.3080 C.ar  112  TRP112      0.0001
    110  CH2       72.9390    5.1740  110.6070 C.ar  112  TRP112      0.0015
    111  N         80.2810    7.3290  114.3170 N.3   115  GLN115     -0.1231
    112  CA        80.6190    6.0250  113.7580 C.3   115  GLN115      0.1698
    113  C         80.6070    6.1040  112.2330 C.2   115  GLN115      0.2592
    114  O         81.4130    5.4390  111.5550 O.2   115  GLN115     -0.2718
    115  CB        79.6580    4.9170  114.2280 C.3   115  GLN115      0.0381
    116  CG        79.6380    4.5420  115.7160 C.3   115  GLN115      0.0905
    117  CD        78.5940    3.4710  116.0580 C.2   115  GLN115      0.2608
    118  OE1       77.5350    3.7530  116.6080 O.2   115  GLN115     -0.2717
    119  NE2       78.8880    2.2370  115.6810 N.am  115  GLN115     -0.0878
    120  N         79.7320    6.9550  111.6850 N.am  116  VAL116     -0.1980
    121  CA        79.6320    7.1260  110.2350 C.3   116  VAL116      0.1595
    122  C         80.8070    7.9320  109.6790 C.2   116  VAL116      0.2287
    123  O         81.5480    7.4580  108.7930 O.2   116  VAL116     -0.2864
    124  CB        78.2900    7.7700  109.8830 C.3   116  VAL116      0.0276
    125  CG1       78.3520    8.3730  108.5000 C.3   116  VAL116      0.0022
    126  CG2       77.2090    6.7080  110.0040 C.3   116  VAL116      0.0022
    127  N         83.8030    5.9540  109.6580 N.3   119  ALA119     -0.1231
    128  CA        83.8610    4.8490  108.6920 C.3   119  ALA119      0.1694
    129  C         84.3400    5.3000  107.3100 C.2   119  ALA119      0.2591
    130  O         85.1380    4.5920  106.6610 O.2   119  ALA119     -0.2718
    131  CB        82.5030    4.1860  108.5780 C.3   119  ALA119      0.0304
    132  N         83.8610    6.4640  106.8160 N.am  120  ILE120     -0.1980
    133  CA        84.3650    6.8330  105.4850 C.3   120  ILE120      0.1595
    134  C         85.8190    7.2620  105.5810 C.2   120  ILE120      0.2287
    135  O         86.6110    6.9700  104.6770 O.2   120  ILE120     -0.2864
    136  CB        83.5600    7.9140  104.7120 C.3   120  ILE120      0.0276
    137  CG1       83.5700    9.3040  105.3760 C.3   120  ILE120      0.0022
    138  CG2       82.1650    7.3860  104.2430 C.3   120  ILE120      0.0022
    139  CD1       83.3720   10.4670  104.3490 C.3   120  ILE120      0.0001
    140  N         88.1700    6.1240  107.4330 N.3   122  ILE122     -0.1231
    141  CA        89.0820    4.9970  107.4530 C.3   122  ILE122      0.1692
    142  C         88.9930    4.0900  106.2180 C.2   122  ILE122      0.2591
    143  O         89.9410    3.3410  105.9690 O.2   122  ILE122     -0.2718
    144  CB        88.9410    4.1650  108.7450 C.3   122  ILE122      0.0266
    145  CG1       87.7350    3.2470  108.7600 C.3   122  ILE122      0.0019
    146  CG2       88.7590    5.0910  109.9430 C.3   122  ILE122      0.0020
    147  CD1       87.5690    2.6040  110.1350 C.3   122  ILE122      0.0001
    148  N         87.9280    4.1030  105.4080 N.am  123  LEU123     -0.1980
    149  CA        88.0240    3.2970  104.1780 C.3   123  LEU123      0.1596
    150  C         89.1330    3.8010  103.2540 C.2   123  LEU123      0.2287
    151  O         89.9640    3.0210  102.7790 O.2   123  LEU123     -0.2864
    152  CB        86.7020    3.2330  103.4290 C.3   123  LEU123      0.0297
    153  CG        86.8430    2.0980  102.3980 C.3   123  LEU123      0.0022
    154  CD1       87.6010    0.8720  103.0000 C.3   123  LEU123      0.0001
    155  CD2       85.4700    1.6710  101.8070 C.3   123  LEU123      0.0001
    156  N         89.7010    6.2410  113.9220 N.3   163  ALA163     -0.1245
    157  CA        89.7490    4.7910  113.9930 C.3   163  ALA163      0.1562
    158  C         89.3090    4.2840  115.3570 C.2   163  ALA163      0.2260
    159  O         88.3120    3.5680  115.4730 O.2   163  ALA163     -0.2867
    160  CB        91.1650    4.3030  113.6700 C.3   163  ALA163      0.0290
    161  N         85.7920    4.8690  116.3520 N.3   166  HIS166     -0.1226
    162  CA        84.9340    3.8670  115.7140 C.3   166  HIS166      0.1752
    163  C         84.9960    2.5270  116.4580 C.2   166  HIS166      0.2595
    164  O         83.9610    1.9900  116.8700 O.2   166  HIS166     -0.2718
    165  CB        85.3490    3.7340  114.2220 C.3   166  HIS166      0.0759
    166  CG        84.4330    2.9230  113.3260 C.ar  166  HIS166      0.0818
    167  ND1       83.6480    1.8810  113.7690 N.ar  166  HIS166     -0.2268
    168  CD2       84.2240    2.9970  111.9880 C.ar  166  HIS166      0.1154
    169  CE1       82.9900    1.3580  112.7510 C.ar  166  HIS166      0.1986
    170  NE2       83.3240    2.0140  111.6580 N.ar  166  HIS166     -0.2212
    171  N         86.2050    2.0050  116.7040 N.am  167  VAL167     -0.1980
    172  CA        86.3060    0.6560  117.2620 C.3   167  VAL167      0.1595
    173  C         85.6960    0.6420  118.6290 C.2   167  VAL167      0.2287
    174  O         85.1750   -0.3820  119.0780 O.2   167  VAL167     -0.2864
    175  CB        87.7650    0.1640  117.3240 C.3   167  VAL167      0.0276
    176  CG1       88.4950    0.4710  116.0640 C.3   167  VAL167      0.0022
    177  CG2       88.4940    0.7690  118.5030 C.3   167  VAL167      0.0022
    178  N         82.0800    0.7040  118.5460 N.3   170  GLY170     -0.1210
    179  CA        81.7390   -0.5920  117.9910 C.3   170  GLY170      0.1956
    180  C         81.7750   -1.6830  119.0340 C.2   170  GLY170      0.2611
    181  O         80.9500   -2.6020  119.0210 O.2   170  GLY170     -0.2717
    182  N         82.7420   -1.6210  119.9330 N.am  171  PHE171     -0.1976
    183  CA        82.7000   -2.5960  120.9990 C.3   171  PHE171      0.1639
    184  C         81.5150   -2.3300  121.9170 C.2   171  PHE171      0.2290
    185  O         80.7520   -3.2510  122.2330 O.2   171  PHE171     -0.2864
    186  CB        84.0230   -2.6330  121.7600 C.3   171  PHE171      0.0560
    187  CG        84.0630   -3.7260  122.7470 C.ar  171  PHE171     -0.0200
    188  CD1       83.8150   -5.0210  122.3370 C.ar  171  PHE171     -0.0042
    189  CD2       84.3170   -3.4810  124.0620 C.ar  171  PHE171     -0.0042
    190  CE1       83.7970   -6.0500  123.2190 C.ar  171  PHE171     -0.0003
    191  CE2       84.3100   -4.5120  124.9570 C.ar  171  PHE171     -0.0003
    192  CZ        84.0510   -5.8040  124.5320 C.ar  171  PHE171     -0.0000
    193  N         78.6120   -0.9260  121.3610 N.3   173  ARG173     -0.1231
    194  CA        77.3500   -1.2730  120.7340 C.3   173  ARG173      0.1694
    195  C         77.1950   -2.7810  120.6270 C.2   173  ARG173      0.2591
    196  O         76.1500   -3.3410  120.9800 O.2   173  ARG173     -0.2718
    197  CB        77.2800   -0.5800  119.3650 C.3   173  ARG173      0.0321
    198  CG        75.9490    0.0660  119.0280 C.3   173  ARG173      0.0489
    199  CD        76.0860    1.1860  118.0250 C.3   173  ARG173      0.2205
    200  NE        76.3150    2.4690  118.6740 N.pl3 173  ARG173     -0.0865
    201  CZ        75.3060    3.2010  119.1360 C.cat 173  ARG173      0.5346
    202  NH1       74.0870    2.7270  119.0220 N.pl3 173  ARG173      0.1354
    203  NH2       75.4820    4.3790  119.7140 N.pl3 173  ARG173      0.1354
    204  N         78.2390   -3.4600  120.1640 N.am  174  ILE174     -0.1980
    205  CA        78.1180   -4.8900  119.9990 C.3   174  ILE174      0.1595
    206  C         77.8180   -5.5450  121.3220 C.2   174  ILE174      0.2287
    207  O         77.0930   -6.5430  121.3730 O.2   174  ILE174     -0.2864
    208  CB        79.3940   -5.4490  119.3710 C.3   174  ILE174      0.0276
    209  CG1       79.1240   -6.8320  118.8150 C.3   174  ILE174      0.0022
    210  CG2       80.5050   -5.5010  120.3690 C.3   174  ILE174      0.0022
    211  CD1       80.2280   -7.2740  117.9150 C.3   174  ILE174      0.0001
    212  N         73.8740   -4.5530  121.9910 N.3   177  LYS177     -0.1231
    213  CA        72.8720   -4.9830  121.0170 C.3   177  LYS177      0.1693
    214  C         72.5650   -6.4680  121.0980 C.2   177  LYS177      0.2592
    215  O         71.4470   -6.8820  120.7640 O.2   177  LYS177     -0.2718
    216  CB        73.3130   -4.6470  119.5960 C.3   177  LYS177      0.0285
    217  CG        73.2900   -3.1960  119.2150 C.3   177  LYS177      0.0035
    218  CD        74.0400   -3.0240  117.9030 C.3   177  LYS177      0.0206
    219  CE        73.3320   -3.6860  116.7460 C.3   177  LYS177      0.1093
    220  NZ        74.0770   -3.6130  115.4570 N.3   177  LYS177     -0.1314
    221  N         73.5420   -7.2920  121.4690 N.am  178  TYR178     -0.1976
    222  CA        73.2840   -8.7140  121.6360 C.3   178  TYR178      0.1639
    223  C         73.0890   -9.1070  123.0950 C.2   178  TYR178      0.2290
    224  O         72.7530  -10.2590  123.3670 O.2   178  TYR178     -0.2864
    225  CB        74.4190   -9.5060  120.9990 C.3   178  TYR178      0.0560
    226  CG        74.5740   -9.1160  119.5530 C.ar  178  TYR178     -0.0198
    227  CD1       73.6610   -9.5400  118.5820 C.ar  178  TYR178     -0.0009
    228  CD2       75.5910   -8.2510  119.1650 C.ar  178  TYR178     -0.0009
    229  CE1       73.7920   -9.1460  117.2350 C.ar  178  TYR178      0.0417
    230  CE2       75.7260   -7.8480  117.8370 C.ar  178  TYR178      0.0417
    231  CZ        74.8320   -8.2960  116.8740 C.ar  178  TYR178      0.1957
    232  OH        75.0060   -7.8760  115.5710 O.3   178  TYR178     -0.2866
@<TRIPOS>BOND
     1    73    74   ar
     2    73    71   ar
     3    74    72   ar
     4    71    69   ar
     5   155   153    1
     6    72    70   ar
     7   153   154    1
     8   153   152    1
     9    69    70   ar
    10    69    68    1
    11   151   150    2
    12   150   149    1
    13   152   149    1
    14    68    65    1
    15    66    67    2
    16    66    65    1
    17   149   148    1
    18   138   136    1
    19   139   137    1
    20   135   134    2
    21   136   137    1
    22   136   133    1
    23    65    64    1
    24    92    91    2
    25    48    49    2
    26    48    47    1
    27    52    53    1
    28    52    51    1
    29    64    56   am
    30   148   142   am
    31   133   134    1
    32   133   132    1
    33    95    96    1
    34    95    94    1
    35    93    94    1
    36    93    90    1
    37    46    47    1
    38    54    55    1
    39   143   142    2
    40    91    90    1
    41    47    50    1
    42   142   141    1
    43    56    57    2
    44    56    55    1
    45    50    51    1
    46    89    90    1
    47    89    82   am
    48    77    78    2
    49    77    76    1
    50    80    81    1
    51   130   129    2
    52    75    76    1
    53   132   129   am
    54    55    58    1
    55   129   128    1
    56    82    81    1
    57    82    83    2
    58   140   141    1
    59    81    84    1
    60   141   144    1
    61    76    79    1
    62    58    59    1
    63   125   124    1
    64   131   128    1
    65   128   127    1
    66   144   145    1
    67   144   146    1
    68   145   147    1
    69   123   122    2
    70    84    85    1
    71    59    61   ar
    72    59    60   ar
    73    61    63   ar
    74    85    86    1
    75   122   121    1
    76   124   126    1
    77   124   121    1
    78     8     7    2
    79   121   120    1
    80    60    62   ar
    81    29    27    1
    82    63    62   ar
    83   110   108   ar
    84   110   109   ar
    85     1     2    1
    86     5     2    1
    87     5     6    1
    88    88    87    1
    89    86    87    1
    90     2     3    1
    91     7     6    1
    92     7     9   am
    93   108   106   ar
    94    27    28    1
    95    27    26    1
    96   109   107   ar
    97   114   113    2
    98   170   168   ar
    99   170   169   ar
   100   120   113   am
   101   168   166   ar
   102   113   112    1
   103    26    23    1
   104     3     4    2
   105     3    10   am
   106   106   104   ar
   107   106   105   ar
   108   107   104   ar
   109   169   167   ar
   110    18    19    1
   111   104   102   ar
   112   105   103   ar
   113    10    11    1
   114    23    22    1
   115    23    24    1
   116   166   167   ar
   117   166   165    1
   118   100    99    2
   119   160   157    1
   120   112   115    1
   121   112   111    1
   122   156   157    1
   123   157   158    1
   124    19    20    1
   125   165   162    1
   126   115   116    1
   127   103   102   ar
   128   102   101    1
   129    24    25    2
   130    24    30   am
   131    99    98    1
   132    11    12    1
   133    11    14    1
   134    12    13    2
   135    44    43    1
   136    20    21    2
   137    43    42    1
   138    43    45    1
   139   158   159    2
   140   220   219    1
   141    38    39    1
   142   101    98    1
   143   232   231    1
   144    14    15    1
   145    30    31    1
   146    42    39    1
   147   119   117   am
   148    98    97    1
   149   162   161    1
   150   162   163    1
   151   116   117    1
   152    39    40    1
   153   117   118    2
   154   176   175    1
   155   163   171   am
   156   163   164    2
   157   171   172    1
   158    17    16    1
   159   219   218    1
   160    31    32    1
   161    31    34    1
   162   231   229   ar
   163   231   230   ar
   164    15    16    1
   165    40    41    2
   166   229   227   ar
   167   172   175    1
   168   172   173    1
   169   175   177    1
   170    32    33    2
   171    34    35    1
   172    34    36    1
   173   230   228   ar
   174   218   217    1
   175   211   209    1
   176   179   178    1
   177   179   180    1
   178   199   200    1
   179   199   198    1
   180    37    35    1
   181   227   226   ar
   182   173   174    2
   183   200   201    2
   184   209   208    1
   185   181   180    2
   186   202   201    1
   187   198   197    1
   188   180   182   am
   189   201   203    1
   190   228   226   ar
   191   217   216    1
   192   197   194    1
   193   208   205    1
   194   208   210    1
   195   226   225    1
   196   216   213    1
   197   182   183    1
   198   205   204    1
   199   205   206    1
   200   204   195   am
   201   195   194    1
   202   195   196    2
   203   194   193    1
   204   215   214    2
   205   225   222    1
   206   183   186    1
   207   183   184    1
   208   213   214    1
   209   213   212    1
   210   214   221   am
   211   206   207    2
   212   221   222    1
   213   222   223    1
   214   186   187    1
   215   184   185    2
   216   188   187   ar
   217   188   190   ar
   218   187   189   ar
   219   223   224    2
   220   190   192   ar
   221   189   191   ar
   222   192   191   ar
