@<TRIPOS>MOLECULE
tmp/5xmjC03.pdb
 102 97 0 0 0
SMALL
GASTEIGER

@<TRIPOS>ATOM
      1  N         85.4600   13.0480   82.2200 N.3    33  LEU33      -0.1245
      2  CA        86.4780   13.8750   81.5650 C.3    33  LEU33       0.1561
      3  C         87.8720   13.6110   82.1220 C.2    33  LEU33       0.2260
      4  O         88.8620   13.5940   81.3680 O.2    33  LEU33      -0.2867
      5  CB        86.1590   15.3580   81.7070 C.3    33  LEU33       0.0270
      6  CG        84.8690   15.8300   81.0920 C.3    33  LEU33       0.0019
      7  CD1       84.8540   17.3550   81.2120 C.3    33  LEU33       0.0001
      8  CD2       84.7980   15.3310   79.6360 C.3    33  LEU33       0.0001
      9  N         89.2220   10.3620   80.8180 N.3    36  TRP36      -0.1227
     10  CA        89.7840   10.6510   79.5010 C.3    36  TRP36       0.1737
     11  C         91.1760   11.2790   79.6250 C.2    36  TRP36       0.2595
     12  O         92.1080   10.8850   78.9160 O.2    36  TRP36      -0.2718
     13  CB        88.8580   11.5710   78.6930 C.3    36  TRP36       0.0564
     14  CG        87.6150   10.9300   78.0100 C.ar   36  TRP36       0.0003
     15  CD1       87.2650    9.5930   77.9590 C.ar   36  TRP36       0.0946
     16  CD2       86.5920   11.6320   77.2820 C.ar   36  TRP36       0.0152
     17  NE1       86.0880    9.4380   77.2540 N.ar   36  TRP36      -0.2442
     18  CE2       85.6580   10.6700   76.8310 C.ar   36  TRP36       0.0810
     19  CE3       86.3670   12.9860   76.9900 C.ar   36  TRP36       0.0012
     20  CZ2       84.5330   11.0200   76.1010 C.ar   36  TRP36       0.0191
     21  CZ3       85.2580   13.3290   76.2700 C.ar   36  TRP36       0.0001
     22  CH2       84.3510   12.3520   75.8280 C.ar   36  TRP36       0.0015
     23  N         91.3430   12.2630   80.5170 N.am   37  ALA37      -0.1980
     24  CA        92.6620   12.8710   80.6670 C.3    37  ALA37       0.1597
     25  C         93.7220   11.8290   81.0030 C.2    37  ALA37       0.2287
     26  O         94.8210   11.8470   80.4430 O.2    37  ALA37      -0.2864
     27  CB        92.6040   13.9700   81.7210 C.3    37  ALA37       0.0319
     28  N         94.5280    9.5510   78.0780 N.3    40  MET40      -0.1230
     29  CA        95.3580   10.1920   77.0700 C.3    40  MET40       0.1702
     30  C         96.8080   10.2830   77.5450 C.2    40  MET40       0.2592
     31  O         97.6910    9.6430   76.9670 O.2    40  MET40      -0.2718
     32  CB        94.8110   11.5670   76.6980 C.3    40  MET40       0.0401
     33  CG        93.5930   11.4860   75.8440 C.3    40  MET40       0.0596
     34  SD        93.4160   12.8850   74.7100 S.3    40  MET40      -0.1393
     35  CE        94.3960   14.1820   75.4370 C.3    40  MET40       0.0692
     36  N         97.0620   11.0180   78.6320 N.am   41  LEU41      -0.1980
     37  CA        98.4260   11.2200   79.1190 C.3    41  LEU41       0.1596
     38  C         99.1670    9.8880   79.2720 C.2    41  LEU41       0.2287
     39  O        100.2000    9.6600   78.6400 O.2    41  LEU41      -0.2864
     40  CB        98.3650   11.9890   80.4450 C.3    41  LEU41       0.0297
     41  CG        99.4330   11.8770   81.5190 C.3    41  LEU41       0.0022
     42  CD1      100.6640   12.5780   81.0780 C.3    41  LEU41       0.0001
     43  CD2       98.9580   12.4430   82.8280 C.3    41  LEU41       0.0001
     44  N         98.4110    6.7440   78.4100 N.3    43  SER43      -0.1202
     45  CA        98.4730    5.7600   77.3490 C.3    43  SER43       0.2020
     46  C         99.4890    6.1460   76.2900 C.2    43  SER43       0.2619
     47  O         99.5310    5.5120   75.2320 O.2    43  SER43      -0.2717
     48  CB        97.0930    5.5520   76.7200 C.3    43  SER43       0.2103
     49  OG        97.0730    4.3850   75.9050 O.3    43  SER43      -0.2182
     50  N        100.2960    7.1810   76.5440 N.am   44  SER44      -0.1951
     51  CA       101.2650    7.6910   75.5770 C.3    44  SER44       0.1924
     52  C        102.5730    6.9200   75.5500 C.2    44  SER44       0.2314
     53  O        103.4780    7.3240   74.8180 O.2    44  SER44      -0.2863
     54  CB       101.5700    9.1650   75.8490 C.3    44  SER44       0.2116
     55  OG       100.3760    9.9260   75.8810 O.3    44  SER44      -0.2180
     56  N        103.0150    5.3060   72.1330 N.3    47  LEU47      -0.1245
     57  CA       103.5920    6.2400   71.1640 C.3    47  LEU47       0.1561
     58  C        105.0590    6.5040   71.4740 C.2    47  LEU47       0.2260
     59  O        105.9340    6.2680   70.6350 O.2    47  LEU47      -0.2867
     60  CB       102.7880    7.5330   71.1330 C.3    47  LEU47       0.0270
     61  CG       101.7040    7.3940   70.0660 C.3    47  LEU47       0.0019
     62  CD1      100.7410    6.2340   70.3830 C.3    47  LEU47       0.0001
     63  CD2      100.9560    8.7090   69.8320 C.3    47  LEU47       0.0001
     64  N        106.8560   11.1810   74.9750 N.3    51  LEU51      -0.1245
     65  CA       105.6260   11.9750   74.9020 C.3    51  LEU51       0.1561
     66  C        104.8780   11.9510   76.2360 C.2    51  LEU51       0.2260
     67  O        104.3920   12.9870   76.7140 O.2    51  LEU51      -0.2867
     68  CB       104.7330   11.4470   73.7740 C.3    51  LEU51       0.0270
     69  CG       103.3570   12.0910   73.5760 C.3    51  LEU51       0.0019
     70  CD1      103.4640   13.6040   73.4350 C.3    51  LEU51       0.0001
     71  CD2      102.6700   11.4890   72.3520 C.3    51  LEU51       0.0001
     72  N        104.4950   15.4540   78.2660 N.3    55  ILE55      -0.1245
     73  CA       103.1960   15.9990   78.6090 C.3    55  ILE55       0.1561
     74  C        102.9290   15.7670   80.0900 C.2    55  ILE55       0.2260
     75  O        102.0690   16.4280   80.6770 O.2    55  ILE55      -0.2867
     76  CB       102.0990   15.4080   77.6960 C.3    55  ILE55       0.0252
     77  CG1      100.8570   16.3030   77.6670 C.3    55  ILE55       0.0019
     78  CG2      101.7200   14.0040   78.1180 C.3    55  ILE55       0.0019
     79  CD1      101.0870   17.6680   77.0670 C.3    55  ILE55       0.0001
     80  N        101.6360   19.9320   82.6400 N.3    59  PHE59      -0.1241
     81  CA       100.4820   20.6620   83.1830 C.3    59  PHE59       0.1605
     82  C        100.8020   21.2120   84.5780 C.2    59  PHE59       0.2264
     83  O        101.1790   20.4460   85.4700 O.2    59  PHE59      -0.2867
     84  CB        99.2700   19.7080   83.2230 C.3    59  PHE59       0.0534
     85  CG        97.8770   20.3750   83.2910 C.ar   59  PHE59      -0.0203
     86  CD1       97.3260   21.0190   82.1860 C.ar   59  PHE59      -0.0042
     87  CD2       97.0960   20.2680   84.4420 C.ar   59  PHE59      -0.0042
     88  CE1       96.0540   21.5870   82.2580 C.ar   59  PHE59      -0.0003
     89  CE2       95.8360   20.8330   84.5150 C.ar   59  PHE59      -0.0003
     90  CZ        95.3140   21.4900   83.4250 C.ar   59  PHE59      -0.0000
     91  N        100.7880   18.3900   86.1900 N.3    63  TYR63      -0.1241
     92  CA        99.3510   18.2630   86.4970 C.3    63  TYR63       0.1605
     93  C         98.9690   18.7050   87.9250 C.2    63  TYR63       0.2264
     94  O         97.8730   18.3830   88.4040 O.2    63  TYR63      -0.2867
     95  CB        98.8500   16.8380   86.2010 C.3    63  TYR63       0.0534
     96  CG        98.4530   16.6880   84.7470 C.ar   63  TYR63      -0.0201
     97  CD1       97.1160   16.8300   84.3570 C.ar   63  TYR63      -0.0009
     98  CD2       99.4000   16.4510   83.7590 C.ar   63  TYR63      -0.0009
     99  CE1       96.7300   16.7300   83.0230 C.ar   63  TYR63       0.0417
    100  CE2       99.0170   16.3470   82.4180 C.ar   63  TYR63       0.0417
    101  CZ        97.6810   16.4900   82.0590 C.ar   63  TYR63       0.1957
    102  OH        97.2910   16.3950   80.7430 O.3    63  TYR63      -0.2866
@<TRIPOS>BOND
     1    63    61    1
     2    61    62    1
     3    61    60    1
     4    59    58    2
     5    60    57    1
     6    57    58    1
     7    57    56    1
     8    71    69    1
     9    70    69    1
    10    69    68    1
    11    68    65    1
    12    34    35    1
    13    34    33    1
    14    53    52    2
    15    65    64    1
    16    65    66    1
    17    47    46    2
    18    52    51    1
    19    51    54    1
    20    51    50    1
    21    22    20   ar
    22    22    21   ar
    23    33    32    1
    24    54    55    1
    25    49    48    1
    26    20    18   ar
    27    66    67    2
    28    21    19   ar
    29    46    50   am
    30    46    45    1
    31    32    29    1
    32    48    45    1
    33    18    17   ar
    34    18    16   ar
    35    31    30    2
    36    19    16   ar
    37    79    77    1
    38    29    30    1
    39    29    28    1
    40    17    15   ar
    41    16    14   ar
    42    45    44    1
    43    30    36   am
    44    77    76    1
    45    76    78    1
    46    76    73    1
    47    15    14   ar
    48    14    13    1
    49    72    73    1
    50    73    74    1
    51    36    37    1
    52    39    38    2
    53    13    10    1
    54    12    11    2
    55    37    38    1
    56    37    40    1
    57    10    11    1
    58    10     9    1
    59    11    23   am
    60     8     6    1
    61    74    75    2
    62    26    25    2
    63    40    41    1
    64    23    24    1
    65    24    25    1
    66    24    27    1
    67   102   101    1
    68    42    41    1
    69     6     7    1
    70     6     5    1
    71     4     3    2
    72    41    43    1
    73     2     5    1
    74     2     3    1
    75     2     1    1
    76   101   100   ar
    77   101    99   ar
    78    86    88   ar
    79    86    85   ar
    80    88    90   ar
    81   100    98   ar
    82    80    81    1
    83    99    97   ar
    84    81    84    1
    85    81    82    1
    86    84    85    1
    87    85    87   ar
    88    90    89   ar
    89    98    96   ar
    90    97    96   ar
    91    87    89   ar
    92    82    83    2
    93    96    95    1
    94    91    92    1
    95    95    92    1
    96    92    93    1
    97    93    94    2
