@<TRIPOS>MOLECULE
tmp/5xmjD01.pdb
 85 79 0 0 0
SMALL
GASTEIGER

@<TRIPOS>ATOM
      1  N         -1.9010   30.8240   39.3260 N.3    49  GLY49      -0.1225
      2  CA        -1.5520   31.8410   40.3160 C.3    49  GLY49       0.1811
      3  C         -2.3000   33.1620   40.3850 C.2    49  GLY49       0.2280
      4  O         -2.7620   33.5660   41.4590 O.2    49  GLY49      -0.2866
      5  N          0.9670   37.3090   47.0910 N.3   141  PHE141     -0.1241
      6  CA         1.7680   36.6030   46.1020 C.3   141  PHE141      0.1605
      7  C          3.2140   37.0880   46.1430 C.2   141  PHE141      0.2264
      8  O          3.5060   38.1870   46.6260 O.2   141  PHE141     -0.2867
      9  CB         1.1790   36.8180   44.7000 C.3   141  PHE141      0.0534
     10  CG         1.4370   35.6960   43.7460 C.ar  141  PHE141     -0.0203
     11  CD1        0.4890   34.6990   43.5730 C.ar  141  PHE141     -0.0042
     12  CD2        2.6020   35.6400   43.0140 C.ar  141  PHE141     -0.0042
     13  CE1        0.7060   33.6640   42.6920 C.ar  141  PHE141     -0.0003
     14  CE2        2.8270   34.6020   42.1360 C.ar  141  PHE141     -0.0003
     15  CZ         1.8780   33.6160   41.9740 C.ar  141  PHE141     -0.0000
     16  N         10.8460   27.2980   40.6280 N.3   257  HIS257     -0.1241
     17  CA         9.8480   27.6830   41.6110 C.3   257  HIS257      0.1621
     18  C          9.9190   26.7470   42.7960 C.2   257  HIS257      0.2264
     19  O          9.9800   25.5240   42.6100 O.2   257  HIS257     -0.2867
     20  CB         8.4390   27.6230   41.0390 C.3   257  HIS257      0.0745
     21  CG         7.3620   28.0330   42.0100 C.ar  257  HIS257      0.0817
     22  ND1        7.1000   29.3460   42.3430 N.ar  257  HIS257     -0.2268
     23  CD2        6.5080   27.2870   42.7520 C.ar  257  HIS257      0.1154
     24  CE1        6.1130   29.3920   43.2220 C.ar  257  HIS257      0.1986
     25  NE2        5.7420   28.1560   43.4930 N.ar  257  HIS257     -0.2212
     26  N          3.2670   22.0490   39.2270 N.3   267  LEU267     -0.1245
     27  CA         3.2630   23.1460   40.1610 C.3   267  LEU267      0.1561
     28  C          1.9980   23.1990   40.9930 C.2   267  LEU267      0.2260
     29  O          0.9090   22.8780   40.5180 O.2   267  LEU267     -0.2867
     30  CB         3.4290   24.4370   39.3860 C.3   267  LEU267      0.0270
     31  CG         3.1540   25.7010   40.1580 C.3   267  LEU267      0.0019
     32  CD1        4.1180   26.7170   39.6310 C.3   267  LEU267      0.0001
     33  CD2        1.7210   26.1610   39.9910 C.3   267  LEU267      0.0001
     34  N          0.2730   26.3070   43.2880 N.3   269  THR269     -0.1203
     35  CA         0.3820   27.7510   43.2180 C.3   269  THR269      0.1994
     36  C          1.0410   28.3400   44.4750 C.2   269  THR269      0.2617
     37  O          1.1530   27.6860   45.5200 O.2   269  THR269     -0.2717
     38  CB        -1.0040   28.3510   42.9440 C.3   269  THR269      0.1784
     39  OG1       -0.9930   29.7670   43.1970 O.3   269  THR269     -0.2211
     40  CG2       -2.1340   27.6000   43.7020 C.3   269  THR269      0.0376
     41  N          1.5540   29.5830   44.3170 N.am  270  GLU270     -0.1979
     42  CA         2.1580   30.4090   45.3670 C.3   270  GLU270      0.1602
     43  C          1.1390   31.2600   46.1090 C.2   270  GLU270      0.2287
     44  O          1.4750   31.8470   47.1510 O.2   270  GLU270     -0.2864
     45  CB         3.2640   31.3140   44.7690 C.3   270  GLU270      0.0415
     46  CG         4.0520   32.2120   45.7720 C.3   270  GLU270      0.1163
     47  CD         5.1930   33.0090   45.1160 C.2   270  GLU270      0.3649
     48  OE1        6.1900   33.3780   45.7800 O.co2 270  GLU270     -0.2457
     49  OE2        5.1170   33.2500   43.9030 O.co2 270  GLU270     -0.2457
     50  N         11.8190   34.5070   44.6790 N.3   301  ARG301     -0.1245
     51  CA        11.9280   33.1120   44.2770 C.3   301  ARG301      0.1563
     52  C         13.3510   32.6410   44.4510 C.2   301  ARG301      0.2260
     53  O         13.5970   31.5360   44.9290 O.2   301  ARG301     -0.2867
     54  CB        11.5100   32.9090   42.8340 C.3   301  ARG301      0.0307
     55  CG        11.0190   31.5160   42.6550 C.3   301  ARG301      0.0489
     56  CD         9.5250   31.6070   42.9360 C.3   301  ARG301      0.2205
     57  NE         8.8130   32.4520   41.9770 N.pl3 301  ARG301     -0.0865
     58  CZ         7.5140   32.7200   42.0330 C.cat 301  ARG301      0.5346
     59  NH1        6.7820   32.2350   43.0160 N.pl3 301  ARG301      0.1354
     60  NH2        6.9580   33.4790   41.1090 N.pl3 301  ARG301      0.1354
     61  N         10.8880   26.5380   36.5450 N.3   369  HIS369     -0.1241
     62  CA         9.6280   27.2190   36.2860 C.3   369  HIS369      0.1621
     63  C          9.6800   28.2110   35.1410 C.2   369  HIS369      0.2264
     64  O          9.4760   27.8380   33.9820 O.2   369  HIS369     -0.2867
     65  CB         9.2330   27.9600   37.5630 C.3   369  HIS369      0.0745
     66  CG         7.8510   28.5280   37.5660 C.ar  369  HIS369      0.0817
     67  ND1        6.7280   27.7710   37.3230 N.ar  369  HIS369     -0.2268
     68  CD2        7.4120   29.7630   37.8840 C.ar  369  HIS369      0.1154
     69  CE1        5.6590   28.5310   37.4540 C.ar  369  HIS369      0.1986
     70  NE2        6.0470   29.7430   37.7970 N.ar  369  HIS369     -0.2212
     71  N         12.0620   36.7630   37.8300 N.3   405  ARG405     -0.1245
     72  CA        10.7500   37.2660   37.4980 C.3   405  ARG405      0.1563
     73  C          9.9410   37.3390   38.7790 C.2   405  ARG405      0.2260
     74  O          9.8360   36.3540   39.5160 O.2   405  ARG405     -0.2867
     75  CB        10.0630   36.3530   36.4840 C.3   405  ARG405      0.0307
     76  CG         8.5380   36.4370   36.4890 C.3   405  ARG405      0.0489
     77  CD         7.8950   35.2310   35.8130 C.3   405  ARG405      0.2205
     78  NE         8.0960   33.9960   36.5700 N.pl3 405  ARG405     -0.0865
     79  CZ         7.5270   33.7230   37.7460 C.cat 405  ARG405      0.5346
     80  NH1        6.7040   34.5970   38.3160 N.pl3 405  ARG405      0.1354
     81  NH2        7.7910   32.5770   38.3630 N.pl3 405  ARG405      0.1354
     82  N          3.7220   36.3310   39.5140 N.3   408  GLY408     -0.1225
     83  CA         2.4510   36.8430   39.0130 C.3   408  GLY408      0.1811
     84  C          2.5210   37.9610   37.9830 C.2   408  GLY408      0.2280
     85  O          1.4680   38.3820   37.4830 O.2   408  GLY408     -0.2866
@<TRIPOS>BOND
     1    64    63    2
     2    63    62    1
     3    77    76    1
     4    77    78    1
     5    62    61    1
     6    62    65    1
     7    75    76    1
     8    75    72    1
     9    78    79    2
    10    67    69   ar
    11    67    66   ar
    12    69    70   ar
    13    85    84    2
    14    72    71    1
    15    72    73    1
    16    65    66    1
    17    66    68   ar
    18    79    80    1
    19    79    81    1
    20    70    68   ar
    21    84    83    1
    22    73    74    2
    23    83    82    1
    24    26    27    1
    25     1     2    1
    26    30    31    1
    27    30    27    1
    28    32    31    1
    29    33    31    1
    30    27    28    1
    31     2     3    1
    32     3     4    2
    33    29    28    2
    34    16    17    1
    35    20    17    1
    36    20    21    1
    37    60    58    1
    38    17    18    1
    39    15    14   ar
    40    15    13   ar
    41    57    58    2
    42    57    56    1
    43    21    22   ar
    44    21    23   ar
    45    58    59    1
    46    14    12   ar
    47    22    24   ar
    48    19    18    2
    49    55    54    1
    50    55    56    1
    51    13    11   ar
    52    23    25   ar
    53    54    51    1
    54    38    39    1
    55    38    35    1
    56    38    40    1
    57    12    10   ar
    58    35    34    1
    59    35    36    1
    60    24    25   ar
    61    11    10   ar
    62    10     9    1
    63    49    47   ar
    64    51    52    1
    65    51    50    1
    66    41    36   am
    67    41    42    1
    68    52    53    2
    69    36    37    2
    70     9     6    1
    71    45    42    1
    72    45    46    1
    73    47    46    1
    74    47    48   ar
    75    42    43    1
    76     6     7    1
    77     6     5    1
    78    43    44    2
    79     7     8    2
