@<TRIPOS>MOLECULE
tmp/5xmjL01.pdb
 92 90 0 0 0
SMALL
GASTEIGER

@<TRIPOS>ATOM
      1  N         74.1230    2.4780  106.5180 N.3    87  MET87      -0.1231
      2  CA        74.7390    3.7780  106.5630 C.3    87  MET87       0.1687
      3  C         73.8220    4.8340  105.9710 C.2    87  MET87       0.2434
      4  O         73.3180    4.6440  104.8650 O.2    87  MET87      -0.2733
      5  CB        76.0300    3.7340  105.7860 C.3    87  MET87       0.0400
      6  CG        76.9890    2.8080  106.3820 C.3    87  MET87       0.0596
      7  SD        78.5350    3.0790  105.6100 S.3    87  MET87      -0.1393
      8  CE        78.7400    4.8250  105.8870 C.3    87  MET87       0.0692
      9  N         73.6180    5.9360  106.6810 N.am   88  PRO88      -0.2718
     10  CA        72.7200    6.9920  106.2010 C.3    88  PRO88       0.1535
     11  C         73.2670    7.7430  104.9830 C.2    88  PRO88       0.2598
     12  O         73.7270    8.8760  105.1230 O.2    88  PRO88      -0.2715
     13  CB        72.6210    7.9340  107.4030 C.3    88  PRO88       0.0310
     14  CG        73.9080    7.7440  108.1290 C.3    88  PRO88       0.0237
     15  CD        74.2670    6.2950  107.9540 C.3    88  PRO88       0.0939
     16  N         73.2080    7.1240  103.8060 N.am   89  PHE89      -0.1974
     17  CA        73.6060    7.8100  102.5730 C.3    89  PHE89       0.1639
     18  C         72.4750    8.6580  102.0130 C.2    89  PHE89       0.2290
     19  O         72.6950    9.8100  101.6040 O.2    89  PHE89      -0.2864
     20  CB        74.0070    6.8040  101.4950 C.3    89  PHE89       0.0560
     21  CG        75.3300    6.1440  101.7090 C.ar   89  PHE89      -0.0200
     22  CD1       76.5060    6.8870  101.6570 C.ar   89  PHE89      -0.0042
     23  CD2       75.4030    4.7490  101.8790 C.ar   89  PHE89      -0.0042
     24  CE1       77.7250    6.2690  101.8140 C.ar   89  PHE89      -0.0003
     25  CE2       76.6220    4.0970  102.0410 C.ar   89  PHE89      -0.0003
     26  CZ        77.7880    4.8620  102.0110 C.ar   89  PHE89      -0.0000
     27  N         69.8980   11.2300  101.3380 N.3    91  GLN91      -0.1245
     28  CA        69.9780   12.5840  101.8760 C.3    91  GLN91       0.1566
     29  C         68.9200   12.8400  102.9150 C.2    91  GLN91       0.2260
     30  O         69.0280   13.7940  103.6940 O.2    91  GLN91      -0.2867
     31  CB        69.8420   13.6180  100.7670 C.3    91  GLN91       0.0367
     32  CG        68.4780   13.7530  100.0900 C.3    91  GLN91       0.0905
     33  CD        68.2120   12.6800   99.0740 C.2    91  GLN91       0.2608
     34  OE1       68.7630   11.5980   99.1580 O.2    91  GLN91      -0.2717
     35  NE2       67.4300   13.0030   98.0610 N.am   91  GLN91      -0.0878
     36  N         70.2150   11.0760  106.2660 N.3    94  TRP94      -0.1227
     37  CA        71.0390   12.0870  106.9140 C.3    94  TRP94       0.1737
     38  C         70.1700   13.1910  107.4910 C.2    94  TRP94       0.2595
     39  O         70.2070   13.4420  108.6910 O.2    94  TRP94      -0.2718
     40  CB        72.0600   12.6660  105.9420 C.3    94  TRP94       0.0564
     41  CG        73.0610   13.5400  106.5780 C.ar   94  TRP94       0.0003
     42  CD1       73.0440   14.8920  106.6980 C.ar   94  TRP94       0.0946
     43  CD2       74.2330   13.0960  107.2190 C.ar   94  TRP94       0.0152
     44  NE1       74.1640   15.3300  107.3620 N.ar   94  TRP94      -0.2442
     45  CE2       74.9050   14.2370  107.7030 C.ar   94  TRP94       0.0810
     46  CE3       74.7910   11.8290  107.4310 C.ar   94  TRP94       0.0012
     47  CZ2       76.0930   14.1530  108.3790 C.ar   94  TRP94       0.0191
     48  CZ3       75.9760   11.7430  108.1050 C.ar   94  TRP94       0.0001
     49  CH2       76.6210   12.8970  108.5720 C.ar   94  TRP94       0.0015
     50  N         69.3620   13.8480  106.6630 N.am   95  LYS95      -0.1980
     51  CA        68.6190   15.0060  107.1660 C.3    95  LYS95       0.1596
     52  C         67.8730   14.6880  108.4700 C.2    95  LYS95       0.2287
     53  O         68.0190   15.4050  109.4900 O.2    95  LYS95      -0.2864
     54  CB        67.6500   15.5280  106.0870 C.3    95  LYS95       0.0298
     55  CG        68.0400   16.8780  105.3750 C.3    95  LYS95       0.0038
     56  CD        66.9460   17.3140  104.3920 C.3    95  LYS95       0.0206
     57  CE        66.9980   18.7910  104.0450 C.3    95  LYS95       0.1093
     58  NZ        68.2430   19.2000  103.3960 N.3    95  LYS95      -0.1314
     59  N         70.1550   13.8440  111.5100 N.3    98  ARG98      -0.1245
     60  CA        70.8160   15.0040  112.0780 C.3    98  ARG98       0.1563
     61  C         69.8580   15.8000  112.9390 C.2    98  ARG98       0.2260
     62  O         70.2140   16.2040  114.0530 O.2    98  ARG98      -0.2867
     63  CB        71.4350   15.8520  110.9880 C.3    98  ARG98       0.0307
     64  CG        72.2960   17.0290  111.4730 C.3    98  ARG98       0.0489
     65  CD        73.4630   17.2070  110.4600 C.3    98  ARG98       0.2205
     66  NE        74.1590   18.4940  110.4720 N.pl3  98  ARG98      -0.0865
     67  CZ        74.2110   19.3260  109.4310 C.cat  98  ARG98       0.5346
     68  NH1       73.6220   19.0120  108.2760 N.pl3  98  ARG98       0.1354
     69  NH2       74.8730   20.4720  109.5410 N.pl3  98  ARG98       0.1354
     70  N         79.7320    6.9550  111.6850 N.3   116  VAL116     -0.1231
     71  CA        79.6320    7.1260  110.2350 C.3   116  VAL116      0.1692
     72  C         80.8070    7.9320  109.6790 C.2   116  VAL116      0.2591
     73  O         81.5480    7.4580  108.7930 O.2   116  VAL116     -0.2718
     74  CB        78.2900    7.7700  109.8830 C.3   116  VAL116      0.0266
     75  CG1       78.3520    8.3730  108.5000 C.3   116  VAL116      0.0020
     76  CG2       77.2090    6.7080  110.0040 C.3   116  VAL116      0.0020
     77  N         80.9610    9.1840  110.1290 N.am  117  ILE117     -0.1980
     78  CA        82.0560    9.9730  109.5660 C.3   117  ILE117      0.1595
     79  C         83.3680    9.2090  109.6770 C.2   117  ILE117      0.2287
     80  O         84.1390    9.0950  108.6990 O.2   117  ILE117     -0.2864
     81  CB        82.1460   11.3600  110.2320 C.3   117  ILE117      0.0276
     82  CG1       80.8710   12.1650  109.9960 C.3   117  ILE117      0.0022
     83  CG2       83.3950   12.1440  109.7800 C.3   117  ILE117      0.0022
     84  CD1       80.9580   13.5460  110.5950 C.3   117  ILE117      0.0001
     85  N         83.8610    6.4640  106.8160 N.3   120  ILE120     -0.1245
     86  CA        84.3650    6.8330  105.4850 C.3   120  ILE120      0.1561
     87  C         85.8190    7.2620  105.5810 C.2   120  ILE120      0.2260
     88  O         86.6110    6.9700  104.6770 O.2   120  ILE120     -0.2867
     89  CB        83.5600    7.9140  104.7120 C.3   120  ILE120      0.0252
     90  CG1       83.5700    9.3040  105.3760 C.3   120  ILE120      0.0019
     91  CG2       82.1650    7.3860  104.2430 C.3   120  ILE120      0.0019
     92  CD1       83.3720   10.4670  104.3490 C.3   120  ILE120      0.0001
@<TRIPOS>BOND
     1    35    33   am
     2    33    34    2
     3    33    32    1
     4    32    31    1
     5    31    28    1
     6    27    28    1
     7    20    21    1
     8    20    17    1
     9    19    18    2
    10    22    21   ar
    11    22    24   ar
    12    21    23   ar
    13    24    26   ar
    14    28    29    1
    15    23    25   ar
    16    26    25   ar
    17    18    17    1
    18    17    16    1
    19    29    30    2
    20    58    57    1
    21    16    11   am
    22    57    56    1
    23    91    89    1
    24    92    90    1
    25    56    55    1
    26    88    87    2
    27    89    90    1
    28    89    86    1
    29     4     3    2
    30    11    12    2
    31    11    10    1
    32    55    54    1
    33    86    87    1
    34    86    85    1
    35     7     8    1
    36     7     6    1
    37     5     6    1
    38     5     2    1
    39    40    41    1
    40    40    37    1
    41     3     2    1
    42     3     9   am
    43    54    51    1
    44    10     9    1
    45    10    13    1
    46    36    37    1
    47     1     2    1
    48    41    42   ar
    49    41    43   ar
    50    50    51    1
    51    50    38   am
    52     9    15    1
    53    42    44   ar
    54    37    38    1
    55    51    52    1
    56    43    46   ar
    57    43    45   ar
    58    44    45   ar
    59    13    14    1
    60    46    48   ar
    61    38    39    2
    62    45    47   ar
    63    15    14    1
    64    48    49   ar
    65    68    67    1
    66    47    49   ar
    67    52    53    2
    68    75    74    1
    69    80    79    2
    70    73    72    2
    71    67    69    1
    72    67    66    2
    73    78    79    1
    74    78    77    1
    75    78    81    1
    76    72    77   am
    77    72    71    1
    78    83    81    1
    79    74    76    1
    80    74    71    1
    81    82    81    1
    82    82    84    1
    83    71    70    1
    84    65    66    1
    85    65    64    1
    86    63    64    1
    87    63    60    1
    88    59    60    1
    89    60    61    1
    90    61    62    2
