@<TRIPOS>MOLECULE
tmp/5xmkC00.pdb
 161 154 0 0 0
SMALL
GASTEIGER

@<TRIPOS>ATOM
      1  N         81.8100  134.7780  123.6880 N.3    16  ASP16      -0.1225
      2  CA        82.3420  133.5470  124.2790 C.3    16  ASP16       0.1805
      3  C         83.4380  133.8430  125.3020 C.2    16  ASP16       0.2598
      4  O         83.8450  132.9640  126.0640 O.2    16  ASP16      -0.2718
      5  CB        82.8290  132.5880  123.1900 C.3    16  ASP16       0.1424
      6  CG        81.7060  132.1430  122.2510 C.2    16  ASP16       0.3668
      7  OD1       80.5890  131.8600  122.7410 O.co2  16  ASP16      -0.2456
      8  OD2       81.9370  132.0730  121.0190 O.co2  16  ASP16      -0.2456
      9  N         83.9050  135.0900  125.3130 N.am   17  VAL17      -0.1966
     10  CA        84.9130  135.5550  126.2410 C.3    17  VAL17       0.1727
     11  C         84.2390  136.3320  127.3700 C.2    17  VAL17       0.2616
     12  O         83.6750  137.3980  127.1450 O.2    17  VAL17      -0.2715
     13  CB        85.9330  136.4720  125.5270 C.3    17  VAL17       0.0290
     14  CG1       87.0830  136.8230  126.4700 C.3    17  VAL17       0.0023
     15  CG2       86.4510  135.8170  124.2400 C.3    17  VAL17       0.0023
     16  N         84.2470  135.7680  128.5710 N.am   18  ALA18      -0.1977
     17  CA        83.7610  136.4660  129.7670 C.3    18  ALA18       0.1597
     18  C         84.9040  137.1210  130.5400 C.2    18  ALA18       0.2287
     19  O         85.8270  136.4240  130.9660 O.2    18  ALA18      -0.2864
     20  CB        83.0080  135.5050  130.6800 C.3    18  ALA18       0.0319
     21  N         99.4600  131.4260  132.6330 N.3    57  PRO57      -0.2102
     22  CA        98.9150  130.5920  131.5450 C.3    57  PRO57       0.1504
     23  C         97.4600  130.1310  131.8250 C.2    57  PRO57       0.2576
     24  O         97.0490  130.0230  132.9850 O.2    57  PRO57      -0.2718
     25  CB        99.8610  129.3870  131.5330 C.3    57  PRO57       0.0282
     26  CG       100.3530  129.3020  132.9380 C.3    57  PRO57       0.0208
     27  CD       100.5310  130.7280  133.3660 C.3    57  PRO57       0.0893
     28  N         96.6940  129.8640  130.7720 N.am   58  GLY58      -0.1943
     29  CA        95.3310  129.3510  130.9080 C.3    58  GLY58       0.2014
     30  C         94.2310  130.3970  130.9880 C.2    58  GLY58       0.2640
     31  O         93.0840  130.0450  131.2250 O.2    58  GLY58      -0.2714
     32  N         94.5340  131.6790  130.7890 N.am   59  THR59      -0.1936
     33  CA        93.5410  132.7410  131.0390 C.3    59  THR59       0.2028
     34  C         92.8730  133.3010  129.7780 C.2    59  THR59       0.2643
     35  O         92.3420  134.4170  129.7820 O.2    59  THR59      -0.2714
     36  CB        94.1670  133.9200  131.7780 C.3    59  THR59       0.1808
     37  OG1       95.3490  134.3140  131.0730 O.3    59  THR59      -0.2208
     38  CG2       94.4940  133.5170  133.2000 C.3    59  THR59       0.0379
     39  N         92.8720  132.5020  128.7180 N.am   60  GLY60      -0.1939
     40  CA        92.2170  132.8660  127.4890 C.3    60  GLY60       0.2014
     41  C         92.9250  133.9450  126.7040 C.2    60  GLY60       0.2639
     42  O         92.2910  134.5820  125.8790 O.2    60  GLY60      -0.2714
     43  N         94.2260  134.1460  126.9180 N.am   61  LYS61      -0.1963
     44  CA        95.0020  135.0360  126.0390 C.3    61  LYS61       0.1728
     45  C         94.9600  134.4820  124.6030 C.2    61  LYS61       0.2617
     46  O         94.5600  135.1870  123.6630 O.2    61  LYS61      -0.2715
     47  CB        96.4320  135.2180  126.5640 C.3    61  LYS61       0.0311
     48  CG        96.5110  135.9070  127.9320 C.3    61  LYS61       0.0038
     49  CD        97.9400  135.9600  128.4800 C.3    61  LYS61       0.0206
     50  CE        98.5650  134.5840  128.7410 C.3    61  LYS61       0.1093
     51  NZ        97.6630  133.5780  129.3680 N.3    61  LYS61      -0.1314
     52  N         95.2750  133.1980  124.4690 N.am   62  SER62      -0.1936
     53  CA        95.1150  132.5400  123.1720 C.3    62  SER62       0.2055
     54  C         93.6550  132.5630  122.7370 C.2    62  SER62       0.2643
     55  O         93.3730  132.7850  121.5780 O.2    62  SER62      -0.2714
     56  CB        95.6480  131.1030  123.1730 C.3    62  SER62       0.2130
     57  OG        97.0180  131.0540  123.5330 O.3    62  SER62      -0.2179
     58  N         92.7500  132.3040  123.6710 N.am   63  TYR63      -0.1973
     59  CA        91.3250  132.3430  123.4050 C.3    63  TYR63       0.1639
     60  C         90.9060  133.7200  122.8810 C.2    63  TYR63       0.2290
     61  O         90.1600  133.8320  121.9020 O.2    63  TYR63      -0.2864
     62  CB        90.5230  131.9970  124.6710 C.3    63  TYR63       0.0560
     63  CG        89.1150  131.4730  124.4410 C.ar   63  TYR63      -0.0198
     64  CD1       88.8920  130.3400  123.6570 C.ar   63  TYR63      -0.0009
     65  CD2       88.0060  132.0820  125.0490 C.ar   63  TYR63      -0.0009
     66  CE1       87.6110  129.8500  123.4540 C.ar   63  TYR63       0.0417
     67  CE2       86.7260  131.5910  124.8510 C.ar   63  TYR63       0.0417
     68  CZ        86.5320  130.4740  124.0580 C.ar   63  TYR63       0.1957
     69  OH        85.2640  129.9770  123.8660 O.3    63  TYR63      -0.2866
     70  N         92.0430  134.1950  119.3700 N.3    66  LYS66      -0.1245
     71  CA        91.1540  133.5130  118.4330 C.3    66  LYS66       0.1561
     72  C         89.8510  134.2870  118.2360 C.2    66  LYS66       0.2260
     73  O         89.3470  134.4010  117.1200 O.2    66  LYS66      -0.2867
     74  CB        90.8580  132.0520  118.8280 C.3    66  LYS66       0.0271
     75  CG        92.0900  131.1570  118.7970 C.3    66  LYS66       0.0035
     76  CD        91.7460  129.6700  118.7970 C.3    66  LYS66       0.0206
     77  CE        92.9950  128.8040  118.6970 C.3    66  LYS66       0.1093
     78  NZ        93.7360  128.9810  117.4150 N.3    66  LYS66      -0.1314
     79  N        102.9260  134.5730  119.7710 N.3   114  ASP114     -0.1225
     80  CA       102.8740  133.9920  121.0830 C.3   114  ASP114      0.1805
     81  C        104.2610  133.9050  121.7090 C.2   114  ASP114      0.2597
     82  O        105.2600  133.6630  121.0300 O.2   114  ASP114     -0.2718
     83  CB       102.2280  132.6180  121.0150 C.3   114  ASP114      0.1424
     84  CG       101.7900  132.1210  122.3690 C.2   114  ASP114      0.3668
     85  OD1      101.4310  132.9690  123.2130 O.co2 114  ASP114     -0.2456
     86  OD2      101.8140  130.8910  122.6030 O.co2 114  ASP114     -0.2456
     87  N        104.2880  134.1230  123.0170 N.am  115  GLN115     -0.1979
     88  CA       105.4590  133.9260  123.8520 C.3   115  GLN115      0.1601
     89  C        106.5830  134.7940  123.3320 C.2   115  GLN115      0.2287
     90  O        107.6700  134.3210  122.9720 O.2   115  GLN115     -0.2864
     91  CB       105.8350  132.4480  123.9280 C.3   115  GLN115      0.0394
     92  CG       104.7310  131.5500  124.5030 C.3   115  GLN115      0.0908
     93  CD       104.5860  131.6540  126.0200 C.2   115  GLN115      0.2608
     94  OE1      103.6190  132.2310  126.5180 O.2   115  GLN115     -0.2717
     95  NE2      105.5460  131.0970  126.7580 N.am  115  GLN115     -0.0878
     96  N        101.9500  137.9470  122.9110 N.3   157  ALA157     -0.1231
     97  CA       101.5000  137.2430  124.1370 C.3   157  ALA157      0.1694
     98  C        102.6860  136.7340  124.9460 C.2   157  ALA157      0.2593
     99  O        103.6600  136.2470  124.3470 O.2   157  ALA157     -0.2718
    100  CB       100.5600  136.0940  123.7680 C.3   157  ALA157      0.0304
    101  N        102.6140  136.8280  126.2760 N.am  158  THR158     -0.1939
    102  CA       103.6670  136.2940  127.1570 C.3   158  THR158      0.2028
    103  C        103.1330  135.8900  128.5390 C.2   158  THR158      0.2642
    104  O        102.2510  136.5500  129.0640 O.2   158  THR158     -0.2714
    105  CB       104.8320  137.3150  127.3310 C.3   158  THR158      0.1808
    106  OG1      105.9400  136.6760  127.9630 O.3   158  THR158     -0.2208
    107  CG2      104.4360  138.5480  128.1670 C.3   158  THR158      0.0379
    108  N        103.6610  134.8200  129.1370 N.am  159  ASN159     -0.1971
    109  CA       103.4550  134.5470  130.5750 C.3   159  ASN159      0.1688
    110  C        104.4810  135.2690  131.4850 C.2   159  ASN159      0.2292
    111  O        104.1700  135.6310  132.6310 O.2   159  ASN159     -0.2864
    112  CB       103.4820  133.0330  130.8370 C.3   159  ASN159      0.1181
    113  CG       102.3780  132.2850  130.0890 C.2   159  ASN159      0.2629
    114  OD1      101.3900  132.8680  129.6300 O.2   159  ASN159     -0.2716
    115  ND2      102.5830  131.0000  129.9130 N.am  159  ASN159     -0.0877
    116  N         90.2950  134.7310  136.3290 N.3   181  PRO181     -0.2116
    117  CA        88.8970  135.1750  136.4400 C.3   181  PRO181      0.1372
    118  C         88.4370  135.3470  137.8900 C.2   181  PRO181      0.2244
    119  O         88.8370  134.5620  138.7430 O.2   181  PRO181     -0.2868
    120  CB        88.0920  134.0400  135.7760 C.3   181  PRO181      0.0268
    121  CG        89.0850  133.1490  135.1110 C.3   181  PRO181      0.0207
    122  CD        90.4010  133.3590  135.7940 C.3   181  PRO181      0.0892
    123  N         81.3480  131.9480  132.9920 N.3   189  MET189     -0.1245
    124  CA        81.9850  130.8800  132.2540 C.3   189  MET189      0.1570
    125  C         81.2990  129.5510  132.4720 C.2   189  MET189      0.2261
    126  O         81.2180  128.7650  131.5650 O.2   189  MET189     -0.2867
    127  CB        83.4840  130.7610  132.5170 C.3   189  MET189      0.0387
    128  CG        84.2980  131.8760  131.8850 C.3   189  MET189      0.0595
    129  SD        85.9810  131.8360  132.5140 S.3   189  MET189     -0.1393
    130  CE        86.5380  130.3820  131.6380 C.3   189  MET189      0.0692
    131  N         78.2700  129.5580  130.2980 N.3   192  ILE192     -0.1231
    132  CA        78.7230  129.3740  128.9110 C.3   192  ILE192      0.1692
    133  C         79.0630  127.8990  128.6630 C.2   192  ILE192      0.2592
    134  O         78.6990  127.3310  127.6440 O.2   192  ILE192     -0.2718
    135  CB        79.9280  130.2910  128.5640 C.3   192  ILE192      0.0266
    136  CG1       79.4570  131.7470  128.4200 C.3   192  ILE192      0.0019
    137  CG2       80.6320  129.8270  127.2870 C.3   192  ILE192      0.0020
    138  CD1       80.5670  132.7830  128.4220 C.3   192  ILE192      0.0001
    139  N         79.7410  127.3110  129.6480 N.am  193  ASN193     -0.1974
    140  CA        80.2130  125.9410  129.5660 C.3   193  ASN193      0.1688
    141  C         79.1190  124.8960  129.6550 C.2   193  ASN193      0.2292
    142  O         79.4180  123.7440  129.4000 O.2   193  ASN193     -0.2864
    143  CB        81.2750  125.6660  130.6440 C.3   193  ASN193      0.1181
    144  CG        82.6760  126.1400  130.2450 C.2   193  ASN193      0.2629
    145  OD1       83.2470  125.6750  129.2580 O.2   193  ASN193     -0.2716
    146  ND2       83.2320  127.0660  131.0210 N.am  193  ASN193     -0.0877
    147  N         90.7090  129.5790  133.0100 N.3   218  GLY218     -0.1210
    148  CA        89.7750  129.1450  131.9880 C.3   218  GLY218      0.1956
    149  C         89.9690  127.6890  131.6250 C.2   218  GLY218      0.2612
    150  O         89.0030  126.9270  131.5330 O.2   218  GLY218     -0.2717
    151  N         91.2290  127.3150  131.4570 N.am  219  SER219     -0.1952
    152  CA        91.5870  125.9550  131.1210 C.3   219  SER219      0.1924
    153  C         91.1130  124.9940  132.2140 C.2   219  SER219      0.2314
    154  O         90.5310  123.9320  131.9490 O.2   219  SER219     -0.2863
    155  CB        93.1130  125.8450  130.9480 C.3   219  SER219      0.2116
    156  OG        93.5710  126.6420  129.8700 O.3   219  SER219     -0.2180
    157  N         87.4210  124.5530  132.1310 N.3   222  ALA222     -0.1245
    158  CA        87.1010  123.6810  131.0190 C.3   222  ALA222      0.1562
    159  C         87.2740  122.2090  131.4160 C.2   222  ALA222      0.2260
    160  O         86.4140  121.3650  131.1640 O.2   222  ALA222     -0.2867
    161  CB        88.0080  124.0320  129.8390 C.3   222  ALA222      0.0290
@<TRIPOS>BOND
     1    73    72    2
     2    78    77    1
     3    72    71    1
     4    71    74    1
     5    71    70    1
     6    77    76    1
     7    75    76    1
     8    75    74    1
     9    79    80    1
    10    83    80    1
    11    83    84    1
    12     8     6   ar
    13    82    81    2
    14    80    81    1
    15    55    54    2
    16    81    87   am
    17    61    60    2
    18     6     7   ar
    19     6     5    1
    20    84    86   ar
    21    84    85   ar
    22    54    53    1
    23    54    58   am
    24    60    59    1
    25    96    97    1
    26    90    89    2
    27    87    88    1
    28    53    56    1
    29    53    52    1
    30    56    57    1
    31     5     2    1
    32    89    88    1
    33    59    58    1
    34    59    62    1
    35    66    64   ar
    36    66    68   ar
    37    64    63   ar
    38    46    45    2
    39     1     2    1
    40   100    97    1
    41    88    91    1
    42    69    68    1
    43    91    92    1
    44    68    67   ar
    45    97    98    1
    46    15    13    1
    47     2     3    1
    48    99    98    2
    49    63    62    1
    50    63    65   ar
    51    52    45   am
    52    92    93    1
    53    45    44    1
    54    67    65   ar
    55    98   101   am
    56     3     9   am
    57     3     4    2
    58     9    10    1
    59    13    10    1
    60    13    14    1
    61    42    41    2
    62    93    94    2
    63    93    95   am
    64    44    47    1
    65    44    43    1
    66    10    11    1
    67   101   102    1
    68    47    48    1
    69    41    43   am
    70    41    40    1
    71    12    11    2
    72   102   105    1
    73   102   103    1
    74   137   135    1
    75   105   106    1
    76   105   107    1
    77    11    16   am
    78    40    39    1
    79   134   133    2
    80    48    49    1
    81   136   138    1
    82   136   135    1
    83    49    50    1
    84   103   104    2
    85   103   108   am
    86   135   132    1
    87    16    17    1
    88   133   132    1
    89   133   139   am
    90    39    34   am
    91    50    51    1
    92   132   131    1
    93   108   109    1
    94   145   144    2
    95   142   141    2
    96   140   139    1
    97   140   141    1
    98   140   143    1
    99   114   113    2
   100    17    18    1
   101    17    20    1
   102    34    35    2
   103    34    33    1
   104   161   158    1
   105   156   155    1
   106   115   113   am
   107   113   112    1
   108   144   143    1
   109   144   146   am
   110    18    19    2
   111   109   112    1
   112   109   110    1
   113    28    29    1
   114    28    23   am
   115    32    30   am
   116    32    33    1
   117    29    30    1
   118   155   152    1
   119    30    31    2
   120   158   159    1
   121   158   157    1
   122    33    36    1
   123    37    36    1
   124   152   151    1
   125   152   153    1
   126   160   159    2
   127   151   149   am
   128   110   111    2
   129   150   149    2
   130    25    22    1
   131    25    26    1
   132    22    23    1
   133    22    21    1
   134   126   125    2
   135   149   148    1
   136   130   129    1
   137    36    38    1
   138    23    24    2
   139   128   129    1
   140   128   127    1
   141   154   153    2
   142   148   147    1
   143   124   125    1
   144   124   127    1
   145   124   123    1
   146    21    27    1
   147    26    27    1
   148   121   120    1
   149   121   122    1
   150   120   117    1
   151   122   116    1
   152   116   117    1
   153   117   118    1
   154   118   119    2
