@<TRIPOS>MOLECULE
tmp/5xmpA01.pdb
 152 144 0 0 0
SMALL
GASTEIGER

@<TRIPOS>ATOM
      1  N        135.1950   17.6350  332.3630 N.3   124  LEU124     -0.1231
      2  CA       134.3590   16.4250  332.2930 C.3   124  LEU124      0.1693
      3  C        134.1470   15.7710  333.6660 C.2   124  LEU124      0.2592
      4  O        133.0110   15.5920  334.0870 O.2   124  LEU124     -0.2718
      5  CB       134.9890   15.4340  331.3260 C.3   124  LEU124      0.0284
      6  CG       134.2730   14.1320  330.9830 C.3   124  LEU124      0.0019
      7  CD1      133.4360   14.3190  329.7250 C.3   124  LEU124      0.0001
      8  CD2      135.2910   13.0150  330.7780 C.3   124  LEU124      0.0001
      9  N        135.2450   15.4030  334.3350 N.am  125  CYS125     -0.1970
     10  CA       135.2730   14.9640  335.7510 C.3   125  CYS125      0.1712
     11  C        134.3810   15.7740  336.7010 C.2   125  CYS125      0.2296
     12  O        133.7910   15.2120  337.6130 O.2   125  CYS125     -0.2864
     13  CB       136.7220   14.9730  336.3070 C.3   125  CYS125      0.0983
     14  SG       137.8480   13.6590  335.7340 S.3   125  CYS125     -0.0798
     15  N        131.5860   17.5520  335.8470 N.3   127  GLY127     -0.1210
     16  CA       130.1900   17.6820  335.3960 C.3   127  GLY127      0.1956
     17  C        129.9460   18.1570  333.9720 C.2   127  GLY127      0.2612
     18  O        128.8220   18.0470  333.4740 O.2   127  GLY127     -0.2717
     19  N        130.9840   18.6490  333.3020 N.am  128  GLY128     -0.1942
     20  CA       130.8550   19.1320  331.9350 C.3   128  GLY128      0.2014
     21  C        130.7620   18.0340  330.8790 C.2   128  GLY128      0.2639
     22  O        131.1420   16.8840  331.1110 O.2   128  GLY128     -0.2714
     23  N        130.2110   18.3840  329.7220 N.am  129  HIS129     -0.1959
     24  CA       130.2140   17.5070  328.5700 C.3   129  HIS129      0.1787
     25  C        131.5530   17.5040  327.8510 C.2   129  HIS129      0.2620
     26  O        132.3780   18.4050  328.0390 O.2   129  HIS129     -0.2715
     27  CB       129.1000   17.8900  327.6090 C.3   129  HIS129      0.0785
     28  CG       128.7570   16.8020  326.6430 C.ar  129  HIS129      0.0821
     29  ND1      128.9790   16.9180  325.2930 N.ar  129  HIS129     -0.2267
     30  CD2      128.2660   15.5580  326.8350 C.ar  129  HIS129      0.1154
     31  CE1      128.6350   15.7980  324.6870 C.ar  129  HIS129      0.1986
     32  NE2      128.1840   14.9600  325.5990 N.ar  129  HIS129     -0.2212
     33  N        131.7590   16.4560  327.0530 N.am  130  LEU130     -0.1977
     34  CA       132.9040   16.3130  326.1430 C.3   130  LEU130      0.1596
     35  C        133.0200   17.4530  325.1450 C.2   130  LEU130      0.2287
     36  O        134.1110   17.9500  324.8700 O.2   130  LEU130     -0.2864
     37  CB       132.7710   15.0050  325.3660 C.3   130  LEU130      0.0297
     38  CG       133.0250   13.7600  326.2160 C.3   130  LEU130      0.0022
     39  CD1      132.2890   12.5570  325.6600 C.3   130  LEU130      0.0001
     40  CD2      134.5260   13.4960  326.2890 C.3   130  LEU130      0.0001
     41  N        136.4620   19.2290  326.3280 N.3   134  PHE134     -0.1241
     42  CA       137.1960   18.2480  327.1250 C.3   134  PHE134      0.1605
     43  C        138.4760   17.7780  326.4480 C.2   134  PHE134      0.2264
     44  O        138.4750   17.4540  325.2510 O.2   134  PHE134     -0.2867
     45  CB       136.3910   17.0050  327.4660 C.3   134  PHE134      0.0534
     46  CG       137.1680   16.0280  328.3160 C.ar  134  PHE134     -0.0203
     47  CD1      137.6360   16.4030  329.5750 C.ar  134  PHE134     -0.0042
     48  CD2      137.4990   14.7630  327.8400 C.ar  134  PHE134     -0.0042
     49  CE1      138.3720   15.5140  330.3530 C.ar  134  PHE134     -0.0003
     50  CE2      138.2390   13.8810  328.6210 C.ar  134  PHE134     -0.0003
     51  CZ       138.6680   14.2540  329.8780 C.ar  134  PHE134     -0.0000
     52  N        142.3310   15.4760  327.7390 N.3   136  ASP136     -0.1239
     53  CA       143.1960   14.8260  328.7030 C.3   136  ASP136      0.1674
     54  C        144.5850   15.3240  328.3590 C.2   136  ASP136      0.2266
     55  O        144.7810   15.9680  327.3310 O.2   136  ASP136     -0.2867
     56  CB       143.1130   13.2990  328.5250 C.3   136  ASP136      0.1410
     57  CG       143.1860   12.5410  329.8360 C.2   136  ASP136      0.3668
     58  OD1      143.9300   12.9640  330.7580 O.co2 136  ASP136     -0.2456
     59  OD2      142.4920   11.5040  329.9310 O.co2 136  ASP136     -0.2456
     60  N        146.8290   13.0560  327.7860 N.3   138  LYS138     -0.1231
     61  CA       147.1260   11.9780  326.8330 C.3   138  LYS138      0.1693
     62  C        146.6820   12.2690  325.3830 C.2   138  LYS138      0.2591
     63  O        147.3100   11.7830  324.4250 O.2   138  LYS138     -0.2718
     64  CB       146.4590   10.6690  327.3060 C.3   138  LYS138      0.0285
     65  CG       147.3210    9.4170  327.1860 C.3   138  LYS138      0.0035
     66  CD       148.3560    9.3140  328.3070 C.3   138  LYS138      0.0206
     67  CE       149.7760    9.5870  327.8230 C.3   138  LYS138      0.1093
     68  NZ       150.6620    9.9190  328.9690 N.3   138  LYS138     -0.1314
     69  N        145.5930   13.0320  325.2320 N.am  139  LYS139     -0.1980
     70  CA       145.0030   13.3030  323.9150 C.3   139  LYS139      0.1596
     71  C        143.9850   14.4510  323.9600 C.2   139  LYS139      0.2287
     72  O        143.4010   14.7140  325.0040 O.2   139  LYS139     -0.2864
     73  CB       144.3120   12.0350  323.3920 C.3   139  LYS139      0.0298
     74  CG       144.2380   11.9380  321.8690 C.3   139  LYS139      0.0038
     75  CD       143.2140   10.8930  321.4650 C.3   139  LYS139      0.0206
     76  CE       142.9950   10.8660  319.9720 C.3   139  LYS139      0.1093
     77  NZ       142.1250   11.9770  319.5000 N.3   139  LYS139     -0.1314
     78  N        140.7430   14.9390  323.3990 N.3   141  VAL141     -0.1245
     79  CA       139.7130   13.9090  323.3280 C.3   141  VAL141      0.1561
     80  C        138.5030   14.3360  322.4980 C.2   141  VAL141      0.2260
     81  O        138.0070   13.5720  321.6820 O.2   141  VAL141     -0.2867
     82  CB       139.2840   13.4900  324.7550 C.3   141  VAL141      0.0252
     83  CG1      138.0550   12.5850  324.7420 C.3   141  VAL141      0.0019
     84  CG2      140.4510   12.7890  325.4540 C.3   141  VAL141      0.0019
     85  N        126.3860   18.0180  332.2030 N.3   183  THR183     -0.1203
     86  CA       125.8460   16.6690  331.9970 C.3   183  THR183      0.1994
     87  C        125.4560   16.0350  333.3240 C.2   183  THR183      0.2618
     88  O        124.4500   15.3320  333.3890 O.2   183  THR183     -0.2717
     89  CB       126.7390   15.7120  331.1570 C.3   183  THR183      0.1784
     90  OG1      127.3040   14.6780  331.9600 O.3   183  THR183     -0.2211
     91  CG2      127.8140   16.4350  330.4350 C.3   183  THR183      0.0376
     92  N        126.2320   16.2780  334.3750 N.am  184  SER184     -0.1951
     93  CA       125.9420   15.6710  335.6740 C.3   184  SER184      0.1924
     94  C        126.2080   16.6460  336.7820 C.2   184  SER184      0.2314
     95  O        127.0750   16.4300  337.6070 O.2   184  SER184     -0.2863
     96  CB       126.7630   14.3900  335.8550 C.3   184  SER184      0.2116
     97  OG       128.1480   14.6790  335.7860 O.3   184  SER184     -0.2180
     98  N        124.4130    5.0020  335.8200 N.3   354  ASN354     -0.1225
     99  CA       125.7780    5.0720  335.3180 C.3   354  ASN354      0.1785
    100  C        126.7260    5.6070  336.3600 C.2   354  ASN354      0.2597
    101  O        126.3540    6.3960  337.2240 O.2   354  ASN354     -0.2718
    102  CB       125.8930    5.8920  334.0260 C.3   354  ASN354      0.1169
    103  CG       125.5690    7.3640  334.2240 C.2   354  ASN354      0.2627
    104  OD1      124.4110    7.7490  334.1860 O.2   354  ASN354     -0.2716
    105  ND2      126.5870    8.1820  334.4500 N.am  354  ASN354     -0.0877
    106  N        127.9510    5.1200  336.2650 N.am  355  LYS355     -0.1966
    107  CA       129.0560    5.5540  337.0810 C.3   355  LYS355      0.1728
    108  C        129.3780    6.9980  336.7570 C.2   355  LYS355      0.2616
    109  O        129.2560    7.4170  335.6150 O.2   355  LYS355     -0.2715
    110  CB       130.2930    4.6640  336.8430 C.3   355  LYS355      0.0311
    111  CG       130.5230    4.2650  335.3740 C.3   355  LYS355      0.0038
    112  CD       131.9600    4.4500  334.8790 C.3   355  LYS355      0.0206
    113  CE       132.7190    3.1560  334.6160 C.3   355  LYS355      0.1093
    114  NZ       132.6620    2.7470  333.1820 N.3   355  LYS355     -0.1314
    115  N        129.8120    7.7390  337.7690 N.am  356  ASN356     -0.1958
    116  CA       130.1140    9.1540  337.6350 C.3   356  ASN356      0.1819
    117  C        131.2100    9.5770  338.6040 C.2   356  ASN356      0.2621
    118  O        131.2240    9.1440  339.7740 O.2   356  ASN356     -0.2715
    119  CB       128.8390    9.9800  337.8990 C.3   356  ASN356      0.1195
    120  CG       128.9360   11.4010  337.3530 C.2   356  ASN356      0.2630
    121  OD1      128.4010   11.7040  336.2980 O.2   356  ASN356     -0.2716
    122  ND2      129.6410   12.2610  338.0650 N.am  356  ASN356     -0.0877
    123  N        132.1120   10.4300  338.1180 N.am  357  THR357     -0.1951
    124  CA       133.1000   11.0960  338.9560 C.3   357  THR357      0.1897
    125  C        132.4850   11.9810  340.0390 C.2   357  THR357      0.2313
    126  O        131.3290   12.4170  339.9350 O.2   357  THR357     -0.2863
    127  CB       134.0300   11.9990  338.1190 C.3   357  THR357      0.1794
    128  OG1      133.3580   12.3690  336.9090 O.3   357  THR357     -0.2208
    129  CG2      135.3290   11.2830  337.7690 C.3   357  THR357      0.0378
    130  N        139.6450   10.0790  335.9790 N.3   364  ALA364     -0.1245
    131  CA       138.3890    9.3920  335.6140 C.3   364  ALA364      0.1562
    132  C        138.5610    7.8860  335.3980 C.2   364  ALA364      0.2260
    133  O        137.6750    7.2340  334.7990 O.2   364  ALA364     -0.2867
    134  CB       137.7940   10.0290  334.3600 C.3   364  ALA364      0.0290
    135  N        135.7970    6.1400  338.8610 N.3   367  PRO367     -0.2116
    136  CA       134.9600    7.1230  339.5670 C.3   367  PRO367      0.1372
    137  C        134.2880    6.5900  340.8380 C.2   367  PRO367      0.2244
    138  O        133.9070    5.4020  340.8910 O.2   367  PRO367     -0.2868
    139  CB       133.8890    7.4720  338.5330 C.3   367  PRO367      0.0268
    140  CG       133.7850    6.2550  337.6990 C.3   367  PRO367      0.0207
    141  CD       135.2050    5.8010  337.5530 C.3   367  PRO367      0.0892
    142  N        125.4590    8.3820  338.9840 N.3   371  ARG371     -0.1245
    143  CA       124.4580    9.3930  338.6970 C.3   371  ARG371      0.1563
    144  C        123.1330    8.7290  338.4570 C.2   371  ARG371      0.2260
    145  O        123.0750    7.7180  337.7870 O.2   371  ARG371     -0.2867
    146  CB       124.8380   10.1750  337.4560 C.3   371  ARG371      0.0307
    147  CG       123.8370   11.2500  337.0370 C.3   371  ARG371      0.0489
    148  CD       124.2730   11.8470  335.7160 C.3   371  ARG371      0.2205
    149  NE       123.9990   10.9520  334.6050 N.pl3 371  ARG371     -0.0865
    150  CZ       124.1870   11.2460  333.3210 C.cat 371  ARG371      0.5346
    151  NH1      124.6580   12.4330  332.9600 N.pl3 371  ARG371      0.1354
    152  NH2      123.8920   10.3360  332.3900 N.pl3 371  ARG371      0.1354
@<TRIPOS>BOND
     1    77    76    1
     2    76    75    1
     3    75    74    1
     4    81    80    2
     5    74    73    1
     6    80    79    1
     7    79    78    1
     8    79    82    1
     9    73    70    1
    10    70    71    1
    11    70    69    1
    12    71    72    2
    13    63    62    2
    14    31    29   ar
    15    31    32   ar
    16    83    82    1
    17    82    84    1
    18    36    35    2
    19    35    34    1
    20    69    62   am
    21    44    43    2
    22    29    28   ar
    23    37    34    1
    24    37    38    1
    25    62    61    1
    26    32    30   ar
    27    39    38    1
    28    34    33    1
    29    38    40    1
    30    41    42    1
    31    43    42    1
    32    28    30   ar
    33    28    27    1
    34    61    64    1
    35    61    60    1
    36    33    25   am
    37    42    45    1
    38    65    64    1
    39    65    66    1
    40    55    54    2
    41    45    46    1
    42    27    24    1
    43    52    53    1
    44    67    66    1
    45    67    68    1
    46    48    46   ar
    47    48    50   ar
    48    25    26    2
    49    25    24    1
    50    46    47   ar
    51    54    53    1
    52    56    53    1
    53    56    57    1
    54    24    23    1
    55    50    51   ar
    56    47    49   ar
    57    23    21   am
    58     7     6    1
    59    57    59   ar
    60    57    58   ar
    61    51    49   ar
    62    91    89    1
    63     8     6    1
    64    21    22    2
    65    21    20    1
    66     6     5    1
    67    89    90    1
    68    89    86    1
    69     5     2    1
    70    20    19    1
    71    86    85    1
    72    86    87    1
    73     2     1    1
    74     2     3    1
    75   152   150    1
    76   151   150    1
    77   114   113    1
    78    19    17   am
    79   150   149    2
    80    87    88    2
    81    87    92   am
    82    18    17    2
    83     3     4    2
    84     3     9   am
    85    17    16    1
    86   102   103    1
    87   102    99    1
    88   104   103    2
    89   103   105   am
    90     9    10    1
    91   134   131    1
    92    92    93    1
    93   149   148    1
    94   113   112    1
    95   133   132    2
    96   112   111    1
    97    99    98    1
    98    99   100    1
    99   111   110    1
   100    16    15    1
   101   132   131    1
   102   131   130    1
   103   109   108    2
   104    93    96    1
   105    93    94    1
   106   148   147    1
   107    14    13    1
   108    10    13    1
   109    10    11    1
   110    97    96    1
   111   106   100   am
   112   106   107    1
   113   121   120    2
   114   100   101    2
   115    11    12    2
   116   108   107    1
   117   108   115   am
   118    94    95    2
   119   110   107    1
   120   128   127    1
   121   147   146    1
   122   120   119    1
   123   120   122   am
   124   146   143    1
   125   141   140    1
   126   141   135    1
   127   116   115    1
   128   116   119    1
   129   116   117    1
   130   140   139    1
   131   129   127    1
   132   145   144    2
   133   123   117   am
   134   123   124    1
   135   127   124    1
   136   144   143    1
   137   139   136    1
   138   117   118    2
   139   143   142    1
   140   135   136    1
   141   124   125    1
   142   136   137    1
   143   126   125    2
   144   137   138    2
