@<TRIPOS>MOLECULE
tmp/5xmqB03.pdb
 135 128 0 0 0
SMALL
GASTEIGER

@<TRIPOS>ATOM
      1  N        134.2050   -4.3770   59.4400 N.3   124  LEU124     -0.1245
      2  CA       132.7310   -4.4780   59.4820 C.3   124  LEU124      0.1561
      3  C        132.0960   -4.3920   58.0950 C.2   124  LEU124      0.2260
      4  O        131.3290   -5.2640   57.7030 O.2   124  LEU124     -0.2867
      5  CB       132.1560   -3.3760   60.3970 C.3   124  LEU124      0.0270
      6  CG       130.6350   -3.2310   60.5420 C.3   124  LEU124      0.0019
      7  CD1      130.0520   -4.4460   61.2330 C.3   124  LEU124      0.0001
      8  CD2      130.2890   -1.9670   61.3190 C.3   124  LEU124      0.0001
      9  N        132.2780   -7.4340   55.9460 N.3   127  GLY127     -0.1210
     10  CA       131.5590   -8.6180   56.4210 C.3   127  GLY127      0.1956
     11  C        131.9620   -9.1830   57.7690 C.2   127  GLY127      0.2612
     12  O        131.3850  -10.1710   58.1980 O.2   127  GLY127     -0.2717
     13  N        132.9210   -8.5600   58.4520 N.am  128  GLY128     -0.1942
     14  CA       133.2760   -8.9670   59.8030 C.3   128  GLY128      0.2014
     15  C        132.2650   -8.5120   60.8550 C.2   128  GLY128      0.2639
     16  O        131.3640   -7.7130   60.5680 O.2   128  GLY128     -0.2714
     17  N        132.4050   -9.0270   62.0750 N.am  129  HIS129     -0.1959
     18  CA       131.5750   -8.5840   63.1910 C.3   129  HIS129      0.1787
     19  C        132.1640   -7.4080   63.9510 C.2   129  HIS129      0.2620
     20  O        133.3570   -7.1420   63.9010 O.2   129  HIS129     -0.2715
     21  CB       131.2870   -9.7240   64.1680 C.3   129  HIS129      0.0785
     22  CG       130.0610   -9.4990   64.9980 C.ar  129  HIS129      0.0821
     23  ND1      130.1100   -9.3440   66.3640 N.ar  129  HIS129     -0.2267
     24  CD2      128.7570   -9.3500   64.6500 C.ar  129  HIS129      0.1154
     25  CE1      128.8910   -9.1350   66.8280 C.ar  129  HIS129      0.1986
     26  NE2      128.0500   -9.1410   65.8090 N.ar  129  HIS129     -0.2212
     27  N        131.2770   -6.7140   64.6600 N.am  130  LEU130     -0.1977
     28  CA       131.6500   -5.6210   65.5800 C.3   130  LEU130      0.1596
     29  C        132.7390   -6.0610   66.5460 C.2   130  LEU130      0.2287
     30  O        133.7280   -5.3500   66.7290 O.2   130  LEU130     -0.2864
     31  CB       130.4240   -5.1570   66.3720 C.3   130  LEU130      0.0297
     32  CG       129.3650   -4.4420   65.5330 C.3   130  LEU130      0.0022
     33  CD1      128.0160   -4.4620   66.2470 C.3   130  LEU130      0.0001
     34  CD2      129.8110   -3.0090   65.2360 C.3   130  LEU130      0.0001
     35  N        136.1990   -3.8960   65.6490 N.3   134  PHE134     -0.1241
     36  CA       135.6530   -2.7910   64.8920 C.3   134  PHE134      0.1605
     37  C        135.8190   -1.4190   65.5570 C.2   134  PHE134      0.2264
     38  O        135.4360   -1.2240   66.7180 O.2   134  PHE134     -0.2867
     39  CB       134.1850   -2.9870   64.5410 C.3   134  PHE134      0.0534
     40  CG       133.6690   -1.8930   63.6810 C.ar  134  PHE134     -0.0203
     41  CD1      134.2500   -1.6540   62.4320 C.ar  134  PHE134     -0.0042
     42  CD2      132.6820   -1.0290   64.1370 C.ar  134  PHE134     -0.0042
     43  CE1      133.8190   -0.6050   61.6460 C.ar  134  PHE134     -0.0003
     44  CE2      132.2500    0.0210   63.3420 C.ar  134  PHE134     -0.0003
     45  CZ       132.8260    0.2330   62.1000 C.ar  134  PHE134     -0.0000
     46  N        136.0900    3.1180   64.2560 N.3   136  ASP136     -0.1239
     47  CA       136.0200    4.2240   63.3050 C.3   136  ASP136      0.1674
     48  C        137.1820    5.1600   63.6140 C.2   136  ASP136      0.2266
     49  O        137.6990    5.1570   64.7350 O.2   136  ASP136     -0.2867
     50  CB       134.7080    5.0080   63.5050 C.3   136  ASP136      0.1410
     51  CG       133.6840    4.7540   62.4260 C.2   136  ASP136      0.3668
     52  OD1      133.5950    3.6190   61.9140 O.co2 136  ASP136     -0.2456
     53  OD2      132.9490    5.7090   62.0970 O.co2 136  ASP136     -0.2456
     54  N        134.5300    1.7830   68.5460 N.3   141  VAL141     -0.1245
     55  CA       133.1180    1.4270   68.6060 C.3   141  VAL141      0.1561
     56  C        132.8710    0.1430   69.4300 C.2   141  VAL141      0.2260
     57  O        131.9050    0.0560   70.1920 O.2   141  VAL141     -0.2867
     58  CB       132.5740    1.2830   67.1540 C.3   141  VAL141      0.0252
     59  CG1      131.2780    0.4970   67.0820 C.3   141  VAL141      0.0019
     60  CG2      132.4110    2.6480   66.5080 C.3   141  VAL141      0.0019
     61  N        130.1870  -12.1540   59.4590 N.3   183  THR183     -0.1203
     62  CA       128.7280  -11.9190   59.6660 C.3   183  THR183      0.1994
     63  C        127.9680  -11.8070   58.3580 C.2   183  THR183      0.2618
     64  O        126.8730  -12.2890   58.2650 O.2   183  THR183     -0.2717
     65  CB       128.3840  -10.7790   60.6540 C.3   183  THR183      0.1784
     66  OG1      127.5880   -9.7470   60.0380 O.3   183  THR183     -0.2211
     67  CG2      129.5850  -10.2440   61.2960 C.3   183  THR183      0.0376
     68  N        128.5500  -11.2170   57.3300 N.am  184  SER184     -0.1951
     69  CA       127.8950  -11.2350   56.0440 C.3   184  SER184      0.1924
     70  C        128.8930  -11.5610   54.9590 C.2   184  SER184      0.2314
     71  O        129.1650  -10.7530   54.0930 O.2   184  SER184     -0.2863
     72  CB       127.1460   -9.9230   55.7900 C.3   184  SER184      0.2116
     73  OG       128.0340   -8.8480   55.8340 O.3   184  SER184     -0.2180
     74  N        118.0030   -7.1900   55.8700 N.3   354  ASN354     -0.1225
     75  CA       118.7450   -6.0410   56.3750 C.3   354  ASN354      0.1785
     76  C        119.6770   -5.4710   55.3590 C.2   354  ASN354      0.2597
     77  O        120.2360   -6.1830   54.5200 O.2   354  ASN354     -0.2718
     78  CB       119.4770   -6.3350   57.6940 C.3   354  ASN354      0.1169
     79  CG       120.5110   -7.4350   57.5720 C.2   354  ASN354      0.2627
     80  OD1      120.1990   -8.5990   57.7640 O.2   354  ASN354     -0.2716
     81  ND2      121.7460   -7.0610   57.2730 N.am  354  ASN354     -0.0877
     82  N        119.8450   -4.1630   55.4420 N.am  355  LYS355     -0.1966
     83  CA       120.7780   -3.4660   54.5940 C.3   355  LYS355      0.1728
     84  C        122.1820   -3.9020   54.9240 C.2   355  LYS355      0.2616
     85  O        122.4850   -4.2700   56.0510 O.2   355  LYS355     -0.2715
     86  CB       120.6190   -1.9470   54.7160 C.3   355  LYS355      0.0311
     87  CG       120.9140   -1.3870   56.1010 C.3   355  LYS355      0.0038
     88  CD       120.6750    0.1060   56.1640 C.3   355  LYS355      0.0206
     89  CE       120.0110    0.5080   57.4640 C.3   355  LYS355      0.1093
     90  NZ       121.0430    0.6480   58.5180 N.3   355  LYS355     -0.1314
     91  N        123.0460   -3.8460   53.9280 N.am  356  ASN356     -0.1958
     92  CA       124.3960   -4.3800   54.0560 C.3   356  ASN356      0.1819
     93  C        125.3400   -3.6420   53.1030 C.2   356  ASN356      0.2621
     94  O        125.0140   -3.4110   51.9370 O.2   356  ASN356     -0.2715
     95  CB       124.3750   -5.9000   53.7590 C.3   356  ASN356      0.1195
     96  CG       125.4720   -6.6660   54.5000 C.2   356  ASN356      0.2630
     97  OD1      125.2210   -7.3030   55.5170 O.2   356  ASN356     -0.2716
     98  ND2      126.6870   -6.5740   54.0130 N.am  356  ASN356     -0.0877
     99  N        126.5170   -3.2980   53.5920 N.am  357  THR357     -0.1951
    100  CA       127.5450   -2.6950   52.7550 C.3   357  THR357      0.1897
    101  C        128.0790   -3.6410   51.6470 C.2   357  THR357      0.2313
    102  O        127.9830   -4.8710   51.7540 O.2   357  THR357     -0.2863
    103  CB       128.7300   -2.1980   53.6090 C.3   357  THR357      0.1794
    104  OG1      129.1370   -3.2260   54.5090 O.3   357  THR357     -0.2208
    105  CG2      128.3490   -0.9920   54.4080 C.3   357  THR357      0.0378
    106  N        129.8040    3.8430   54.8000 N.3   364  ALA364     -0.1231
    107  CA       128.9560    2.9910   55.6710 C.3   364  ALA364      0.1694
    108  C        127.7010    3.6890   56.2230 C.2   364  ALA364      0.2591
    109  O        126.9520    3.0910   57.0070 O.2   364  ALA364     -0.2718
    110  CB       129.7670    2.3960   56.8180 C.3   364  ALA364      0.0304
    111  N        127.4630    4.9330   55.7990 N.am  365  VAL365     -0.1980
    112  CA       126.3150    5.7050   56.2680 C.3   365  VAL365      0.1595
    113  C        125.1090    5.1970   55.4930 C.2   365  VAL365      0.2287
    114  O        124.0680    4.9430   56.0750 O.2   365  VAL365     -0.2864
    115  CB       126.4560    7.2400   56.0580 C.3   365  VAL365      0.0276
    116  CG1      125.4630    7.9790   56.9460 C.3   365  VAL365      0.0022
    117  CG2      127.8660    7.7350   56.3590 C.3   365  VAL365      0.0022
    118  N        124.5560    2.1000   52.9110 N.3   367  PRO367     -0.2116
    119  CA       125.0480    0.9200   52.2090 C.3   367  PRO367      0.1372
    120  C        124.2550    0.5800   50.9530 C.2   367  PRO367      0.2244
    121  O        123.0370    0.8590   50.8630 O.2   367  PRO367     -0.2868
    122  CB       124.8610   -0.1900   53.2350 C.3   367  PRO367      0.0268
    123  CG       123.7120    0.2560   54.0420 C.3   367  PRO367      0.0207
    124  CD       123.8950    1.7280   54.1730 C.3   367  PRO367      0.0892
    125  N        121.3580   -7.9530   52.7520 N.3   371  ARG371     -0.1245
    126  CA       121.7290   -9.3040   53.0370 C.3   371  ARG371      0.1563
    127  C        120.4640  -10.1060   53.2400 C.2   371  ARG371      0.2260
    128  O        119.5720   -9.6750   53.9620 O.2   371  ARG371     -0.2867
    129  CB       122.5790   -9.3410   54.3060 C.3   371  ARG371      0.0307
    130  CG       123.0810  -10.7280   54.6800 C.3   371  ARG371      0.0489
    131  CD       123.7370  -10.6600   56.0430 C.3   371  ARG371      0.2205
    132  NE       122.7570  -10.4980   57.1240 N.pl3 371  ARG371     -0.0865
    133  CZ       123.0540  -10.5420   58.4170 C.cat 371  ARG371      0.5346
    134  NH1      124.3150  -10.7670   58.8210 N.pl3 371  ARG371      0.1354
    135  NH2      122.0880  -10.4000   59.3290 N.pl3 371  ARG371      0.1354
@<TRIPOS>BOND
     1   121   120    2
     2   120   119    1
     3   101   102    2
     4   101   100    1
     5    94    93    2
     6   119   118    1
     7   119   122    1
     8   125   126    1
     9   100    99    1
    10   100   103    1
    11   118   124    1
    12   126   127    1
    13   126   129    1
    14    93    99   am
    15    93    92    1
    16   122   123    1
    17   127   128    2
    18   103   105    1
    19   103   104    1
    20    95    92    1
    21    95    96    1
    22    91    92    1
    23    91    84   am
    24    98    96   am
    25   123   124    1
    26    71    70    2
    27   129   130    1
    28    96    97    2
    29    77    76    2
    30    83    86    1
    31    83    84    1
    32    83    82    1
    33   130   131    1
    34    86    87    1
    35   106   107    1
    36    84    85    2
    37    70    69    1
    38    76    82   am
    39    76    75    1
    40   113   114    2
    41   113   112    1
    42   107   108    1
    43   107   110    1
    44    72    73    1
    45    72    69    1
    46   111   108   am
    47   111   112    1
    48    74    75    1
    49     9    10    1
    50   131   132    1
    51    69    68    1
    52   115   112    1
    53   115   117    1
    54   115   116    1
    55    87    88    1
    56    88    89    1
    57   108   109    2
    58    75    78    1
    59    10    11    1
    60   132   133    2
    61    81    79   am
    62    68    63   am
    63    89    90    1
    64    79    78    1
    65    79    80    2
    66     4     3    2
    67    11    12    2
    68    11    13   am
    69     3     2    1
    70    64    63    2
    71    63    62    1
    72   133   134    1
    73   133   135    1
    74    13    14    1
    75     1     2    1
    76    61    62    1
    77     2     5    1
    78    62    65    1
    79    14    15    1
    80    66    65    1
    81     5     6    1
    82     6     7    1
    83     6     8    1
    84    16    15    2
    85    65    67    1
    86    15    17   am
    87    43    45   ar
    88    43    41   ar
    89    52    51   ar
    90    17    18    1
    91    53    51   ar
    92    45    44   ar
    93    51    50    1
    94    41    40   ar
    95    18    19    1
    96    18    21    1
    97    47    50    1
    98    47    48    1
    99    47    46    1
   100    44    42   ar
   101    48    49    2
   102    40    42   ar
   103    40    39    1
   104    20    19    2
   105    19    27   am
   106    21    22    1
   107    39    36    1
   108    24    22   ar
   109    24    26   ar
   110    27    28    1
   111    36    37    1
   112    36    35    1
   113    22    23   ar
   114    34    32    1
   115    32    33    1
   116    32    31    1
   117    37    38    2
   118    28    31    1
   119    28    29    1
   120    26    25   ar
   121    23    25   ar
   122    60    58    1
   123    29    30    2
   124    59    58    1
   125    58    55    1
   126    54    55    1
   127    55    56    1
   128    56    57    2
