@<TRIPOS>MOLECULE
tmp/5xmrA01.pdb
 135 128 0 0 0
SMALL
GASTEIGER

@<TRIPOS>ATOM
      1  N         34.6790   40.1010   97.5290 N.3   124  LEU124     -0.1245
      2  CA        33.8440   38.9010   97.5370 C.3   124  LEU124      0.1561
      3  C         33.7510   38.2690   98.9280 C.2   124  LEU124      0.2260
      4  O         32.6610   37.9680   99.3970 O.2   124  LEU124     -0.2867
      5  CB        34.4130   37.8920   96.5380 C.3   124  LEU124      0.0270
      6  CG        33.7340   36.5330   96.3610 C.3   124  LEU124      0.0019
      7  CD1       32.7980   36.5350   95.1670 C.3   124  LEU124      0.0001
      8  CD2       34.8110   35.4690   96.1900 C.3   124  LEU124      0.0001
      9  N         31.2970   39.9520  101.1390 N.3   127  GLY127     -0.1210
     10  CA        29.8990   39.9440  100.7010 C.3   127  GLY127      0.1956
     11  C         29.6150   40.5390   99.3290 C.2   127  GLY127      0.2612
     12  O         28.4660   40.5660   98.8890 O.2   127  GLY127     -0.2717
     13  N         30.6470   41.0100   98.6430 N.am  128  GLY128     -0.1942
     14  CA        30.4900   41.4840   97.2750 C.3   128  GLY128      0.2014
     15  C         30.3770   40.3830   96.2280 C.2   128  GLY128      0.2639
     16  O         30.5990   39.2160   96.5200 O.2   128  GLY128     -0.2714
     17  N         29.9940   40.7700   95.0120 N.am  129  HIS129     -0.1959
     18  CA        29.9500   39.8760   93.8760 C.3   129  HIS129      0.1787
     19  C         31.2580   39.8720   93.1210 C.2   129  HIS129      0.2620
     20  O         32.1220   40.7420   93.3180 O.2   129  HIS129     -0.2715
     21  CB        28.8010   40.2620   92.9310 C.3   129  HIS129      0.0785
     22  CG        28.3730   39.1560   92.0110 C.ar  129  HIS129      0.0821
     23  ND1       28.5890   39.1990   90.6540 N.ar  129  HIS129     -0.2267
     24  CD2       27.8010   37.9570   92.2610 C.ar  129  HIS129      0.1154
     25  CE1       28.1440   38.0880   90.1010 C.ar  129  HIS129      0.1986
     26  NE2       27.6540   37.3170   91.0550 N.ar  129  HIS129     -0.2212
     27  N         31.3960   38.8580   92.2690 N.am  130  LEU130     -0.1977
     28  CA        32.5570   38.6930   91.3910 C.3   130  LEU130      0.1596
     29  C         32.6860   39.8710   90.4390 C.2   130  LEU130      0.2287
     30  O         33.7800   40.4070   90.2700 O.2   130  LEU130     -0.2864
     31  CB        32.4190   37.4130   90.5610 C.3   130  LEU130      0.0297
     32  CG        32.3740   36.0920   91.3360 C.3   130  LEU130      0.0022
     33  CD1       31.5570   35.0680   90.5720 C.3   130  LEU130      0.0001
     34  CD2       33.7790   35.5790   91.6380 C.3   130  LEU130      0.0001
     35  N         36.2370   41.6460   91.5190 N.3   134  PHE134     -0.1241
     36  CA        36.9040   40.6550   92.3450 C.3   134  PHE134      0.1605
     37  C         38.1250   40.0300   91.6880 C.2   134  PHE134      0.2264
     38  O         38.0490   39.5380   90.5630 O.2   134  PHE134     -0.2867
     39  CB        35.9980   39.5040   92.7600 C.3   134  PHE134      0.0534
     40  CG        36.7300   38.4650   93.5470 C.ar  134  PHE134     -0.0203
     41  CD1       37.2150   38.7600   94.8300 C.ar  134  PHE134     -0.0042
     42  CD2       37.0290   37.2250   92.9830 C.ar  134  PHE134     -0.0042
     43  CE1       37.9420   37.8180   95.5500 C.ar  134  PHE134     -0.0003
     44  CE2       37.7430   36.2790   93.7090 C.ar  134  PHE134     -0.0003
     45  CZ        38.2040   36.5790   94.9900 C.ar  134  PHE134     -0.0000
     46  N         42.1510   37.9210   93.0020 N.3   136  ASP136     -0.1239
     47  CA        43.0660   37.3130   93.9550 C.3   136  ASP136      0.1674
     48  C         44.4540   37.8250   93.5810 C.2   136  ASP136      0.2266
     49  O         44.6600   38.2770   92.4570 O.2   136  ASP136     -0.2867
     50  CB        43.0150   35.7900   93.7670 C.3   136  ASP136      0.1410
     51  CG        42.9820   35.0300   95.0730 C.2   136  ASP136      0.3668
     52  OD1       42.1580   35.3790   95.9520 O.co2 136  ASP136     -0.2456
     53  OD2       43.7670   34.0640   95.2070 O.co2 136  ASP136     -0.2456
     54  N         40.4670   37.2960   88.6080 N.3   141  VAL141     -0.1245
     55  CA        39.4680   36.2420   88.5900 C.3   141  VAL141      0.1561
     56  C         38.2620   36.6400   87.7450 C.2   141  VAL141      0.2260
     57  O         37.6900   35.8090   87.0330 O.2   141  VAL141     -0.2867
     58  CB        39.0180   35.9230   90.0460 C.3   141  VAL141      0.0252
     59  CG1       37.7990   35.0240   90.0900 C.3   141  VAL141      0.0019
     60  CG2       40.1610   35.2930   90.8280 C.3   141  VAL141      0.0019
     61  N         26.0690   40.5170   97.4110 N.3   183  THR183     -0.1203
     62  CA        25.5270   39.1650   97.1760 C.3   183  THR183      0.1994
     63  C         25.1610   38.4700   98.4840 C.2   183  THR183      0.2618
     64  O         24.1330   37.7840   98.5480 O.2   183  THR183     -0.2717
     65  CB        26.4040   38.2400   96.2730 C.3   183  THR183      0.1784
     66  OG1       26.8950   37.1120   97.0070 O.3   183  THR183     -0.2211
     67  CG2       27.4970   38.9600   95.6460 C.3   183  THR183      0.0376
     68  N         25.9820   38.6530   99.5160 N.am  184  SER184     -0.1951
     69  CA        25.7120   38.0670  100.8210 C.3   184  SER184      0.1924
     70  C         25.8970   39.0470  101.9570 C.2   184  SER184      0.2314
     71  O         26.5940   38.7730  102.9030 O.2   184  SER184     -0.2863
     72  CB        26.5600   36.8010  101.0370 C.3   184  SER184      0.2116
     73  OG        27.7660   36.7930  100.2780 O.3   184  SER184     -0.2180
     74  N         24.3170   27.4000  100.9510 N.3   354  ASN354     -0.1225
     75  CA        25.6610   27.4780  100.4370 C.3   354  ASN354      0.1785
     76  C         26.6220   27.9770  101.4830 C.2   354  ASN354      0.2597
     77  O         26.2500   28.7470  102.3720 O.2   354  ASN354     -0.2718
     78  CB        25.7380   28.3290   99.1630 C.3   354  ASN354      0.1169
     79  CG        25.3270   29.7570   99.3840 C.2   354  ASN354      0.2627
     80  OD1       24.1360   30.0610   99.4340 O.2   354  ASN354     -0.2716
     81  ND2       26.3050   30.6450   99.5320 N.am  354  ASN354     -0.0877
     82  N         27.8510   27.5080  101.3660 N.am  355  LYS355     -0.1966
     83  CA        28.9330   27.9660  102.2030 C.3   355  LYS355      0.1728
     84  C         29.2600   29.4100  101.8770 C.2   355  LYS355      0.2616
     85  O         29.0760   29.8470  100.7470 O.2   355  LYS355     -0.2715
     86  CB        30.1920   27.0970  102.0370 C.3   355  LYS355      0.0311
     87  CG        30.4240   26.5150  100.6540 C.3   355  LYS355      0.0038
     88  CD        31.8840   26.3870  100.2790 C.3   355  LYS355      0.0206
     89  CE        32.0310   25.3150   99.1980 C.3   355  LYS355      0.1093
     90  NZ        32.9260   25.7330   98.0990 N.3   355  LYS355     -0.1314
     91  N         29.7650   30.1280  102.8710 N.am  356  ASN356     -0.1958
     92  CA        30.0140   31.5420  102.7460 C.3   356  ASN356      0.1819
     93  C         31.1220   32.0160  103.6910 C.2   356  ASN356      0.2621
     94  O         31.2340   31.5610  104.8380 O.2   356  ASN356     -0.2715
     95  CB        28.7190   32.3240  103.0420 C.3   356  ASN356      0.1195
     96  CG        28.5980   33.5820  102.1990 C.2   356  ASN356      0.2630
     97  OD1       29.2010   34.5980  102.4980 O.2   356  ASN356     -0.2716
     98  ND2       27.8490   33.4970  101.1180 N.am  356  ASN356     -0.0877
     99  N         31.9150   32.9630  103.2180 N.am  357  THR357     -0.1951
    100  CA        32.9630   33.5390  104.0280 C.3   357  THR357      0.1897
    101  C         32.4170   34.4130  105.1740 C.2   357  THR357      0.2313
    102  O         31.2600   34.8530  105.1490 O.2   357  THR357     -0.2863
    103  CB        33.9080   34.3780  103.1640 C.3   357  THR357      0.1794
    104  OG1       33.1360   35.3320  102.4380 O.3   357  THR357     -0.2208
    105  CG2       34.6500   33.5020  102.1690 C.3   357  THR357      0.0378
    106  N         39.2220   32.2890  100.6500 N.3   364  ALA364     -0.1231
    107  CA        37.9320   31.8130  100.1220 C.3   364  ALA364      0.1694
    108  C         37.7570   30.2750  100.1040 C.2   364  ALA364      0.2591
    109  O         36.6300   29.7920  100.0390 O.2   364  ALA364     -0.2718
    110  CB        37.7060   32.3790   98.7280 C.3   364  ALA364      0.0304
    111  N         38.8630   29.5270  100.1610 N.am  365  VAL365     -0.1980
    112  CA        38.8550   28.0560  100.0320 C.3   365  VAL365      0.1595
    113  C         38.2120   27.3280  101.2150 C.2   365  VAL365      0.2287
    114  O         37.6100   26.2760  101.0230 O.2   365  VAL365     -0.2864
    115  CB        40.2840   27.4680   99.8450 C.3   365  VAL365      0.0276
    116  CG1       40.2350   25.9470   99.6490 C.3   365  VAL365      0.0022
    117  CG2       41.0050   28.1180   98.6640 C.3   365  VAL365      0.0022
    118  N         35.6280   28.5270  103.7740 N.3   367  PRO367     -0.2116
    119  CA        34.7290   29.4990  104.3960 C.3   367  PRO367      0.1372
    120  C         34.0920   28.9840  105.6900 C.2   367  PRO367      0.2244
    121  O         33.7310   27.7940  105.7740 O.2   367  PRO367     -0.2868
    122  CB        33.6520   29.6910  103.3360 C.3   367  PRO367      0.0268
    123  CG        33.5940   28.3910  102.6690 C.3   367  PRO367      0.0207
    124  CD        35.0320   27.9920  102.5420 C.3   367  PRO367      0.0892
    125  N         25.1860   30.6200  104.2180 N.3   371  ARG371     -0.1245
    126  CA        24.2500   31.6630  103.9240 C.3   371  ARG371      0.1563
    127  C         22.8990   31.0410  103.6300 C.2   371  ARG371      0.2260
    128  O         22.7990   30.0680  102.8750 O.2   371  ARG371     -0.2867
    129  CB        24.7360   32.4460  102.7240 C.3   371  ARG371      0.0307
    130  CG        23.8720   33.6390  102.3560 C.3   371  ARG371      0.0489
    131  CD        24.2920   34.2040  101.0080 C.3   371  ARG371      0.2205
    132  NE        24.0280   33.2870   99.9100 N.pl3 371  ARG371     -0.0865
    133  CZ        23.8820   33.6250   98.6360 C.cat 371  ARG371      0.5346
    134  NH1       23.8990   34.8930   98.2400 N.pl3 371  ARG371      0.1354
    135  NH2       23.6760   32.6690   97.7350 N.pl3 371  ARG371      0.1354
@<TRIPOS>BOND
     1    57    56    2
     2    56    55    1
     3    55    54    1
     4    55    58    1
     5    58    59    1
     6    58    60    1
     7    25    23   ar
     8    25    26   ar
     9    30    29    2
    10    29    28    1
    11    31    32    1
    12    31    28    1
    13    38    37    2
    14    33    32    1
    15    23    22   ar
    16    26    24   ar
    17    32    34    1
    18    28    27    1
    19    35    36    1
    20    37    36    1
    21    22    24   ar
    22    22    21    1
    23    27    19   am
    24    36    39    1
    25    49    48    2
    26    39    40    1
    27    21    18    1
    28    42    40   ar
    29    42    44   ar
    30    46    47    1
    31    19    20    2
    32    19    18    1
    33    40    41   ar
    34    48    47    1
    35    44    45   ar
    36    50    47    1
    37    50    51    1
    38    18    17    1
    39    41    43   ar
    40    45    43   ar
    41    17    15   am
    42    51    53   ar
    43    51    52   ar
    44     7     6    1
    45    67    65    1
    46     8     6    1
    47    15    16    2
    48    15    14    1
    49    65    66    1
    50    65    62    1
    51     6     5    1
    52     5     2    1
    53    62    61    1
    54    62    63    1
    55    14    13    1
    56     1     2    1
    57     2     3    1
    58   135   133    1
    59    90    89    1
    60   134   133    1
    61    63    64    2
    62    63    68   am
    63   133   132    2
    64    13    11   am
    65   117   115    1
    66   110   107    1
    67    12    11    2
    68     3     4    2
    69    78    79    1
    70    78    75    1
    71    89    88    1
    72    11    10    1
    73    79    80    2
    74    79    81   am
    75    68    69    1
    76   116   115    1
    77   115   112    1
    78   132   131    1
    79   112   111    1
    80   112   113    1
    81   109   108    2
    82   108   107    1
    83   108   111   am
    84   107   106    1
    85    73    72    1
    86    88    87    1
    87    75    74    1
    88    75    76    1
    89    87    86    1
    90    10     9    1
    91    85    84    2
    92    69    72    1
    93    69    70    1
    94   131   130    1
    95   114   113    2
    96    98    96   am
    97    82    76   am
    98    82    83    1
    99    76    77    2
   100    84    83    1
   101    84    91   am
   102    70    71    2
   103    86    83    1
   104   105   103    1
   105    96    97    2
   106    96    95    1
   107   130   129    1
   108   104   103    1
   109   124   123    1
   110   124   118    1
   111   123   122    1
   112   129   126    1
   113    92    91    1
   114    92    95    1
   115    92    93    1
   116   128   127    2
   117   103   100    1
   118    99    93   am
   119    99   100    1
   120   122   119    1
   121   127   126    1
   122    93    94    2
   123   118   119    1
   124   126   125    1
   125   100   101    1
   126   119   120    1
   127   102   101    2
   128   120   121    2
