@<TRIPOS>MOLECULE
tmp/5xmvB03.pdb
 121 115 0 0 0
SMALL
GASTEIGER

@<TRIPOS>ATOM
      1  N         33.0090   33.2140   58.3620 N.3   124  LEU124     -0.1245
      2  CA        31.5440   33.3800   58.3140 C.3   124  LEU124      0.1561
      3  C         30.8630   33.1220   59.6520 C.2   124  LEU124      0.2260
      4  O         30.0300   33.9240   60.0700 O.2   124  LEU124     -0.2867
      5  CB        30.9180   32.4900   57.2510 C.3   124  LEU124      0.0270
      6  CG        29.3810   32.5340   57.2020 C.3   124  LEU124      0.0019
      7  CD1       28.8630   32.7140   55.7880 C.3   124  LEU124      0.0001
      8  CD2       28.7870   31.2800   57.8470 C.3   124  LEU124      0.0001
      9  N         30.9710   36.0720   61.8000 N.3   127  GLY127     -0.1210
     10  CA        30.2740   37.2870   61.3620 C.3   127  GLY127      0.1956
     11  C         30.7360   37.9030   60.0500 C.2   127  GLY127      0.2612
     12  O         30.2040   38.9250   59.6510 O.2   127  GLY127     -0.2717
     13  N         31.7010   37.2830   59.3690 N.am  128  GLY128     -0.1942
     14  CA        32.0630   37.6970   58.0200 C.3   128  GLY128      0.2014
     15  C         31.0200   37.3090   56.9760 C.2   128  GLY128      0.2639
     16  O         30.0890   36.5400   57.2510 O.2   128  GLY128     -0.2714
     17  N         31.1710   37.8720   55.7740 N.am  129  HIS129     -0.1959
     18  CA        30.3600   37.4980   54.6430 C.3   129  HIS129      0.1787
     19  C         30.9820   36.3380   53.8870 C.2   129  HIS129      0.2620
     20  O         32.1870   36.0870   53.9690 O.2   129  HIS129     -0.2715
     21  CB        30.1330   38.6830   53.7000 C.3   129  HIS129      0.0785
     22  CG        28.9690   38.4880   52.7710 C.ar  129  HIS129      0.0821
     23  ND1       29.1220   38.3700   51.4090 N.ar  129  HIS129     -0.2267
     24  CD2       27.6450   38.3220   53.0130 C.ar  129  HIS129      0.1154
     25  CE1       27.9440   38.1640   50.8480 C.ar  129  HIS129      0.1986
     26  NE2       27.0280   38.1420   51.7990 N.ar  129  HIS129     -0.2212
     27  N         30.1240   35.6500   53.1390 N.am  130  LEU130     -0.1977
     28  CA        30.5190   34.5890   52.2020 C.3   130  LEU130      0.1596
     29  C         31.6090   35.0460   51.2250 C.2   130  LEU130      0.2287
     30  O         32.5420   34.3030   50.9560 O.2   130  LEU130     -0.2864
     31  CB        29.3070   34.1300   51.3920 C.3   130  LEU130      0.0297
     32  CG        28.1200   33.5430   52.1780 C.3   130  LEU130      0.0022
     33  CD1       26.8410   33.6260   51.3570 C.3   130  LEU130      0.0001
     34  CD2       28.4170   32.0970   52.5510 C.3   130  LEU130      0.0001
     35  N         35.0200   32.7940   52.3070 N.3   134  PHE134     -0.1241
     36  CA        34.4770   31.6730   53.0510 C.3   134  PHE134      0.1605
     37  C         34.6970   30.3070   52.3980 C.2   134  PHE134      0.2264
     38  O         34.3790   30.1230   51.2210 O.2   134  PHE134     -0.2867
     39  CB        32.9840   31.8330   53.3180 C.3   134  PHE134      0.0534
     40  CG        32.4370   30.7200   54.1520 C.ar  134  PHE134     -0.0203
     41  CD1       32.9690   30.4640   55.4090 C.ar  134  PHE134     -0.0042
     42  CD2       31.4740   29.8730   53.6580 C.ar  134  PHE134     -0.0042
     43  CE1       32.5180   29.3980   56.1680 C.ar  134  PHE134     -0.0003
     44  CE2       31.0180   28.8140   54.4240 C.ar  134  PHE134     -0.0003
     45  CZ        31.5470   28.5740   55.6750 C.ar  134  PHE134     -0.0000
     46  N         33.3030   26.9550   49.4450 N.3   141  VAL141     -0.1245
     47  CA        31.8880   27.3280   49.3600 C.3   141  VAL141      0.1561
     48  C         31.6790   28.6160   48.5470 C.2   141  VAL141      0.2260
     49  O         30.7420   28.7220   47.7700 O.2   141  VAL141     -0.2867
     50  CB        31.2730   27.4910   50.7920 C.3   141  VAL141      0.0252
     51  CG1       29.8340   28.0060   50.7560 C.3   141  VAL141      0.0019
     52  CG2       31.3180   26.1650   51.5640 C.3   141  VAL141      0.0019
     53  N         28.9650   41.0720   58.3760 N.3   183  THR183     -0.1203
     54  CA        27.5160   40.8520   58.2070 C.3   183  THR183      0.1994
     55  C         26.7560   40.8220   59.5270 C.2   183  THR183      0.2618
     56  O         25.6470   41.3380   59.6080 O.2   183  THR183     -0.2717
     57  CB        27.1230   39.6460   57.3320 C.3   183  THR183      0.1784
     58  OG1       26.7070   38.5320   58.1380 O.3   183  THR183     -0.2211
     59  CG2       28.2010   39.2420   56.3980 C.3   183  THR183      0.0376
     60  N         27.3540   40.2580   60.5700 N.am  184  SER184     -0.1951
     61  CA        26.7070   40.2610   61.8830 C.3   184  SER184      0.1924
     62  C         27.7250   40.5490   62.9540 C.2   184  SER184      0.2314
     63  O         28.1310   39.6740   63.6980 O.2   184  SER184     -0.2863
     64  CB        25.9890   38.9330   62.1240 C.3   184  SER184      0.2116
     65  OG        26.8690   37.8420   61.9680 O.3   184  SER184     -0.2180
     66  N         16.7200   36.1000   61.8970 N.3   354  ASN354     -0.1225
     67  CA        17.4820   34.9710   61.4020 C.3   354  ASN354      0.1785
     68  C         18.3600   34.3890   62.4560 C.2   354  ASN354      0.2597
     69  O         18.7670   35.0740   63.3930 O.2   354  ASN354     -0.2718
     70  CB        18.2760   35.3090   60.1250 C.3   354  ASN354      0.1169
     71  CG        19.4300   36.2620   60.3740 C.2   354  ASN354      0.2627
     72  OD1       19.2530   37.4680   60.3150 O.2   354  ASN354     -0.2716
     73  ND2       20.5970   35.7230   60.6840 N.am  354  ASN354     -0.0877
     74  N         18.6340   33.1050   62.2910 N.am  355  LYS355     -0.1966
     75  CA        19.5420   32.3940   63.1400 C.3   355  LYS355      0.1728
     76  C         20.9640   32.8240   62.8080 C.2   355  LYS355      0.2616
     77  O         21.2580   33.2820   61.6960 O.2   355  LYS355     -0.2715
     78  CB        19.3610   30.8730   63.0090 C.3   355  LYS355      0.0311
     79  CG        19.5560   30.2820   61.6130 C.3   355  LYS355      0.0038
     80  CD        19.7670   28.7650   61.6700 C.3   355  LYS355      0.0206
     81  CE        18.8660   28.0290   60.6820 C.3   355  LYS355      0.1093
     82  NZ        19.0680   28.3620   59.2410 N.3   355  LYS355     -0.1314
     83  N         21.8540   32.6900   63.7740 N.am  356  ASN356     -0.1958
     84  CA        23.1660   33.2940   63.6300 C.3   356  ASN356      0.1819
     85  C         24.0890   32.6430   64.6290 C.2   356  ASN356      0.2621
     86  O         23.7120   32.4140   65.7810 O.2   356  ASN356     -0.2715
     87  CB        23.0580   34.8300   63.8430 C.3   356  ASN356      0.1195
     88  CG        24.1500   35.6150   63.1050 C.2   356  ASN356      0.2630
     89  OD1       23.9310   36.1780   62.0020 O.2   356  ASN356     -0.2716
     90  ND2       25.3200   35.6220   63.6740 N.am  356  ASN356     -0.0877
     91  N         25.2970   32.3320   64.1880 N.am  357  THR357     -0.1951
     92  CA        26.3220   31.7580   65.0540 C.3   357  THR357      0.1897
     93  C         26.7190   32.6870   66.2000 C.2   357  THR357      0.2313
     94  O         26.4320   33.8900   66.1620 O.2   357  THR357     -0.2863
     95  CB        27.5680   31.4400   64.2220 C.3   357  THR357      0.1794
     96  OG1       27.8230   32.5370   63.3280 O.3   357  THR357     -0.2208
     97  CG2       27.3500   30.1680   63.4030 C.3   357  THR357      0.0378
     98  N         29.2350   25.7080   62.2000 N.3   364  CYS364     -0.1235
     99  CA        28.0700   26.4530   61.6900 C.3   364  CYS364      0.1677
    100  C         26.7540   25.6530   61.8440 C.2   364  CYS364      0.2270
    101  O         25.6640   26.2050   61.6620 O.2   364  CYS364     -0.2867
    102  CB        28.2670   26.8310   60.2150 C.3   364  CYS364      0.0956
    103  SG        27.7430   28.5100   59.8380 S.3   364  CYS364     -0.0801
    104  N         23.5050   26.8550   65.0630 N.3   367  PRO367     -0.2116
    105  CA        23.9530   28.1160   65.6700 C.3   367  PRO367      0.1372
    106  C         23.1180   28.4630   66.9110 C.2   367  PRO367      0.2244
    107  O         21.9000   28.2170   66.9200 O.2   367  PRO367     -0.2868
    108  CB        23.7080   29.1420   64.5620 C.3   367  PRO367      0.0268
    109  CG        22.5660   28.5710   63.7820 C.3   367  PRO367      0.0207
    110  CD        22.8310   27.0860   63.7720 C.3   367  PRO367      0.0892
    111  N         20.1100   36.9060   65.0850 N.3   371  ARG371     -0.1245
    112  CA        20.4740   38.2390   64.8190 C.3   371  ARG371      0.1563
    113  C         19.2090   39.0350   64.5950 C.2   371  ARG371      0.2260
    114  O         18.2960   38.5940   63.8800 O.2   371  ARG371     -0.2867
    115  CB        21.3950   38.2630   63.5940 C.3   371  ARG371      0.0307
    116  CG        21.8930   39.6430   63.2040 C.3   371  ARG371      0.0489
    117  CD        22.5820   39.5810   61.8580 C.3   371  ARG371      0.2205
    118  NE        21.6100   39.4460   60.7840 N.pl3 371  ARG371     -0.0865
    119  CZ        21.8380   39.6480   59.4970 C.cat 371  ARG371      0.5346
    120  NH1       23.0510   40.0230   59.0550 N.pl3 371  ARG371      0.1354
    121  NH2       20.8310   39.4750   58.6270 N.pl3 371  ARG371      0.1354
@<TRIPOS>BOND
     1    49    48    2
     2    48    47    1
     3    47    46    1
     4    47    50    1
     5    51    50    1
     6    50    52    1
     7    25    23   ar
     8    25    26   ar
     9    30    29    2
    10    38    37    2
    11    29    28    1
    12    33    32    1
    13    31    32    1
    14    31    28    1
    15    23    22   ar
    16    26    24   ar
    17    32    34    1
    18    28    27    1
    19    35    36    1
    20    37    36    1
    21    22    24   ar
    22    22    21    1
    23    36    39    1
    24    27    19   am
    25    39    40    1
    26    42    40   ar
    27    42    44   ar
    28    21    18    1
    29    19    20    2
    30    19    18    1
    31    40    41   ar
    32    44    45   ar
    33    18    17    1
    34    41    43   ar
    35    45    43   ar
    36    17    15   am
    37     7     6    1
    38    59    57    1
    39    15    16    2
    40    15    14    1
    41     6     5    1
    42     6     8    1
    43     5     2    1
    44    57    58    1
    45    57    54    1
    46    14    13    1
    47    54    53    1
    48    54    55    1
    49     2     1    1
    50     2     3    1
    51   121   119    1
    52   120   119    1
    53    82    81    1
    54    13    11   am
    55   119   118    2
    56    55    56    2
    57    55    60   am
    58    12    11    2
    59     3     4    2
    60   103   102    1
    61    11    10    1
    62    70    71    1
    63    70    67    1
    64   102    99    1
    65    72    71    2
    66    71    73   am
    67    60    61    1
    68    81    80    1
    69   118   117    1
    70    10     9    1
    71    67    66    1
    72    67    68    1
    73    79    80    1
    74    79    78    1
    75   101   100    2
    76    99   100    1
    77    99    98    1
    78    77    76    2
    79   117   116    1
    80    61    64    1
    81    61    62    1
    82    65    64    1
    83    89    88    2
    84    74    68   am
    85    74    75    1
    86    68    69    2
    87    76    75    1
    88    76    83   am
    89    62    63    2
    90    78    75    1
    91    88    90   am
    92    88    87    1
    93   116   115    1
    94    96    95    1
    95    97    95    1
    96   115   112    1
    97    84    83    1
    98    84    87    1
    99    84    85    1
   100   110   109    1
   101   110   104    1
   102   109   108    1
   103   114   113    2
   104    91    85   am
   105    91    92    1
   106    95    92    1
   107   108   105    1
   108   113   112    1
   109    85    86    2
   110   112   111    1
   111    92    93    1
   112   104   105    1
   113   105   106    1
   114    94    93    2
   115   106   107    2
