@<TRIPOS>MOLECULE
tmp/5xnaA00.pdb
 154 146 0 0 0
SMALL
GASTEIGER

@<TRIPOS>ATOM
      1  N         -9.7550   19.6580   -0.5000 N.3    21  PHE21      -0.1241
      2  CA       -10.8850   19.1170    0.2480 C.3    21  PHE21       0.1605
      3  C        -12.2140   19.4500   -0.4140 C.2    21  PHE21       0.2264
      4  O        -13.1290   18.6220   -0.4140 O.2    21  PHE21      -0.2867
      5  CB       -10.8500   19.6200    1.6910 C.3    21  PHE21       0.0534
      6  CG       -11.8100   18.9040    2.5990 C.ar   21  PHE21      -0.0203
      7  CD1      -11.5260   17.6330    3.0680 C.ar   21  PHE21      -0.0042
      8  CD2      -12.9980   19.5090    2.9810 C.ar   21  PHE21      -0.0042
      9  CE1      -12.4150   16.9720    3.9100 C.ar   21  PHE21      -0.0003
     10  CE2      -13.8840   18.8620    3.8190 C.ar   21  PHE21      -0.0003
     11  CZ       -13.5910   17.5860    4.2810 C.ar   21  PHE21      -0.0000
     12  N        -13.0450   17.0080   -3.0470 N.3    24  PHE24      -0.1227
     13  CA       -13.5340   15.7600   -2.4700 C.3    24  PHE24       0.1736
     14  C        -15.0090   15.8730   -2.1100 C.2    24  PHE24       0.2595
     15  O        -15.8100   14.9930   -2.4420 O.2    24  PHE24      -0.2718
     16  CB       -12.7110   15.3840   -1.2390 C.3    24  PHE24       0.0547
     17  CG       -13.3150   14.2570   -0.4340 C.ar   24  PHE24      -0.0202
     18  CD1      -13.1900   12.9370   -0.8590 C.ar   24  PHE24      -0.0042
     19  CD2      -14.0100   14.5170    0.7460 C.ar   24  PHE24      -0.0042
     20  CE1      -13.7440   11.8960   -0.1230 C.ar   24  PHE24      -0.0003
     21  CE2      -14.5640   13.4820    1.4910 C.ar   24  PHE24      -0.0003
     22  CZ       -14.4330   12.1750    1.0570 C.ar   24  PHE24      -0.0000
     23  N        -15.3850   16.9590   -1.4240 N.am   25  ILE25      -0.1980
     24  CA       -16.7840   17.1730   -1.0530 C.3    25  ILE25       0.1595
     25  C        -17.6640   17.2690   -2.2940 C.2    25  ILE25       0.2287
     26  O        -18.7860   16.7430   -2.3220 O.2    25  ILE25      -0.2864
     27  CB       -16.9130   18.4300   -0.1700 C.3    25  ILE25       0.0276
     28  CG1      -16.2480   18.2050    1.1910 C.3    25  ILE25       0.0022
     29  CG2      -18.3750   18.8330   -0.0110 C.3    25  ILE25       0.0022
     30  CD1      -16.8230   17.0390    1.9890 C.3    25  ILE25       0.0001
     31  N        -18.4250   13.9690   -3.8700 N.3    28  LEU28      -0.1245
     32  CA       -19.4600   13.3110   -3.0850 C.3    28  LEU28       0.1561
     33  C        -20.8590   13.8320   -3.3830 C.2    28  LEU28       0.2260
     34  O        -21.8360   13.1870   -2.9850 O.2    28  LEU28      -0.2867
     35  CB       -19.1760   13.4810   -1.5930 C.3    28  LEU28       0.0270
     36  CG       -18.0490   12.6400   -1.0020 C.3    28  LEU28       0.0019
     37  CD1      -18.0260   12.8180    0.5150 C.3    28  LEU28       0.0001
     38  CD2      -18.2470   11.1840   -1.3750 C.3    28  LEU28       0.0001
     39  N        -22.0430   17.0010   -2.3710 N.3    30  LEU30      -0.1245
     40  CA       -22.4840   17.7230   -1.1900 C.3    30  LEU30       0.1561
     41  C        -22.2050   19.2140   -1.3460 C.2    30  LEU30       0.2260
     42  O        -21.2330   19.6010   -2.0050 O.2    30  LEU30      -0.2867
     43  CB       -21.7820   17.1950    0.0680 C.3    30  LEU30       0.0270
     44  CG       -22.1330   15.7600    0.4570 C.3    30  LEU30       0.0019
     45  CD1      -21.1240   15.1970    1.4410 C.3    30  LEU30       0.0001
     46  CD2      -23.5200   15.7300    1.0570 C.3    30  LEU30       0.0001
     47  N        -20.3930   22.0150    3.8630 N.3    35  TYR35      -0.1241
     48  CA       -19.4900   20.9240    4.1940 C.3    35  TYR35       0.1605
     49  C        -18.0490   21.1730    3.7830 C.2    35  TYR35       0.2264
     50  O        -17.1710   20.3960    4.1770 O.2    35  TYR35      -0.2867
     51  CB       -19.9770   19.6160    3.5490 C.3    35  TYR35       0.0534
     52  CG       -21.3520   19.2150    4.0180 C.ar   35  TYR35      -0.0201
     53  CD1      -22.4910   19.7060    3.3900 C.ar   35  TYR35      -0.0009
     54  CD2      -21.5150   18.3620    5.1040 C.ar   35  TYR35      -0.0009
     55  CE1      -23.7540   19.3540    3.8270 C.ar   35  TYR35       0.0417
     56  CE2      -22.7730   18.0020    5.5480 C.ar   35  TYR35       0.0417
     57  CZ       -23.8880   18.4990    4.9060 C.ar   35  TYR35       0.1957
     58  OH       -25.1420   18.1450    5.3430 O.3    35  TYR35      -0.2866
     59  N        -12.2500   20.9780   13.5050 N.3    41  THR41      -0.1218
     60  CA       -12.7590   19.6150   13.5320 C.3    41  THR41       0.1862
     61  C        -11.9000   18.8130   14.4950 C.2    41  THR41       0.2287
     62  O        -10.6800   18.9820   14.5240 O.2    41  THR41      -0.2866
     63  CB       -12.7280   18.9820   12.1170 C.3    41  THR41       0.1770
     64  OG1      -13.5650   19.7410   11.2340 O.3    41  THR41      -0.2211
     65  CG2      -13.2070   17.5070   12.1350 C.3    41  THR41       0.0375
     66  N        -11.0420   14.8590   15.9820 N.3    43  HIS43      -0.1241
     67  CA       -11.1590   13.4090   15.9480 C.3    43  HIS43       0.1621
     68  C        -10.5960   12.8880   17.2590 C.2    43  HIS43       0.2264
     69  O         -9.4360   13.1550   17.5840 O.2    43  HIS43      -0.2867
     70  CB       -10.3890   12.7930   14.7690 C.3    43  HIS43       0.0745
     71  CG       -11.0240   13.0230   13.4350 C.ar   43  HIS43       0.0817
     72  ND1      -12.0130   12.2080   12.9320 N.ar   43  HIS43      -0.2268
     73  CD2      -10.8000   13.9670   12.4910 C.ar   43  HIS43       0.1154
     74  CE1      -12.3840   12.6470   11.7410 C.ar   43  HIS43       0.1986
     75  NE2      -11.6570   13.7100   11.4490 N.ar   43  HIS43      -0.2212
     76  N        -16.2360   12.2230   16.1520 N.3    56  ILE56      -0.1245
     77  CA       -15.9420   13.3210   15.2410 C.3    56  ILE56       0.1561
     78  C        -16.8000   14.4980   15.6580 C.2    56  ILE56       0.2260
     79  O        -18.0160   14.3530   15.8130 O.2    56  ILE56      -0.2867
     80  CB       -16.2280   12.9450   13.7750 C.3    56  ILE56       0.0252
     81  CG1      -15.4630   11.6770   13.3820 C.3    56  ILE56       0.0019
     82  CG2      -15.8440   14.1010   12.8650 C.3    56  ILE56       0.0019
     83  CD1      -16.2790   10.4020   13.5090 C.3    56  ILE56       0.0001
     84  N        -17.5350   18.7780   14.9050 N.3    58  VAL58      -0.1245
     85  CA       -17.3610   20.0670   14.2340 C.3    58  VAL58       0.1561
     86  C        -18.2520   21.0520   14.9890 C.2    58  VAL58       0.2260
     87  O        -19.4370   21.2060   14.6450 O.2    58  VAL58      -0.2867
     88  CB       -17.7220   20.0060   12.7370 C.3    58  VAL58       0.0252
     89  CG1      -17.2980   21.3210   12.0410 C.3    58  VAL58       0.0019
     90  CG2      -17.0510   18.8250   12.0540 C.3    58  VAL58       0.0019
     91  N        -22.1140   19.4830   15.1150 N.3    63  TYR63      -0.1241
     92  CA       -21.9800   18.1110   14.6490 C.3    63  TYR63       0.1605
     93  C        -21.1430   17.3210   15.6410 C.2    63  TYR63       0.2264
     94  O        -20.0240   17.7230   15.9850 O.2    63  TYR63      -0.2867
     95  CB       -21.3360   18.0590   13.2620 C.3    63  TYR63       0.0534
     96  CG       -21.2810   16.6500   12.7210 C.ar   63  TYR63      -0.0201
     97  CD1      -22.4070   16.0660   12.1520 C.ar   63  TYR63      -0.0009
     98  CD2      -20.1120   15.8960   12.7950 C.ar   63  TYR63      -0.0009
     99  CE1      -22.3790   14.7760   11.6680 C.ar   63  TYR63       0.0417
    100  CE2      -20.0710   14.5980   12.3060 C.ar   63  TYR63       0.0417
    101  CZ       -21.2120   14.0460   11.7430 C.ar   63  TYR63       0.1957
    102  OH       -21.1980   12.7610   11.2540 O.3    63  TYR63      -0.2866
    103  N        -16.0950    5.3740   -0.1390 N.3   108  ILE108     -0.1245
    104  CA       -15.1580    6.3710    0.3670 C.3   108  ILE108      0.1561
    105  C        -14.0530    5.6510    1.1180 C.2   108  ILE108      0.2260
    106  O        -14.3310    4.7330    1.9020 O.2   108  ILE108     -0.2867
    107  CB       -15.8470    7.3790    1.3110 C.3   108  ILE108      0.0252
    108  CG1      -16.9580    8.1360    0.5980 C.3   108  ILE108      0.0019
    109  CG2      -14.8190    8.3180    1.9330 C.3   108  ILE108      0.0019
    110  CD1      -17.8550    8.9030    1.5350 C.3   108  ILE108      0.0001
    111  N         -4.9110   12.9040    7.5430 N.3   121  LYS121     -0.1245
    112  CA        -6.0940   12.1690    7.1140 C.3   121  LYS121      0.1561
    113  C         -6.2360   12.3230    5.6110 C.2   121  LYS121      0.2260
    114  O         -6.2440   13.4460    5.0950 O.2   121  LYS121     -0.2867
    115  CB        -7.3700   12.6540    7.8080 C.3   121  LYS121      0.0271
    116  CG        -8.6150   11.8700    7.3590 C.3   121  LYS121      0.0035
    117  CD        -9.8370   12.1160    8.2380 C.3   121  LYS121      0.0206
    118  CE       -10.9850   11.1980    7.8330 C.3   121  LYS121      0.1093
    119  NZ       -12.2970   11.5650    8.4550 N.3   121  LYS121     -0.1314
    120  N         -8.7480   11.4630    2.3540 N.3   123  TYR123     -0.1241
    121  CA       -10.1090   11.1460    1.9420 C.3   123  TYR123      0.1605
    122  C        -10.0850   10.8540    0.4470 C.2   123  TYR123      0.2264
    123  O         -9.5630   11.6600   -0.3270 O.2   123  TYR123     -0.2867
    124  CB       -11.0600   12.3150    2.2090 C.3   123  TYR123      0.0534
    125  CG       -10.9350   13.0250    3.5510 C.ar  123  TYR123     -0.0201
    126  CD1       -9.7910   13.7610    3.8830 C.ar  123  TYR123     -0.0009
    127  CD2      -11.9940   13.0340    4.4460 C.ar  123  TYR123     -0.0009
    128  CE1       -9.6910   14.4370    5.0930 C.ar  123  TYR123      0.0417
    129  CE2      -11.9050   13.7110    5.6580 C.ar  123  TYR123      0.0417
    130  CZ       -10.7540   14.4100    5.9770 C.ar  123  TYR123      0.1957
    131  OH       -10.6720   15.0810    7.1820 O.3   123  TYR123     -0.2866
    132  N         -6.0500   16.3050    4.9880 N.3   132  ARG132     -0.1245
    133  CA        -6.2020   17.2720    6.0610 C.3   132  ARG132      0.1563
    134  C         -5.2600   16.8670    7.1790 C.2   132  ARG132      0.2260
    135  O         -5.0870   15.6790    7.4480 O.2   132  ARG132     -0.2867
    136  CB        -7.6520   17.3180    6.5270 C.3   132  ARG132      0.0307
    137  CG        -7.9450   18.3920    7.4880 C.3   132  ARG132      0.0489
    138  CD        -9.4410   18.5690    7.5780 C.3   132  ARG132      0.2205
    139  NE        -9.7700   19.8480    8.1600 N.pl3 132  ARG132     -0.0865
    140  CZ       -10.9150   20.1020    8.7690 C.cat 132  ARG132      0.5346
    141  NH1      -11.8320   19.1460    8.8870 N.pl3 132  ARG132      0.1354
    142  NH2      -11.1310   21.3040    9.2570 N.pl3 132  ARG132      0.1354
    143  N         -3.9320   17.1550   11.2010 N.3   134  TYR134     -0.1241
    144  CA        -4.4040   17.3530   12.5570 C.3   134  TYR134      0.1605
    145  C         -3.2150   17.3720   13.5030 C.2   134  TYR134      0.2264
    146  O         -2.2090   16.6990   13.2690 O.2   134  TYR134     -0.2867
    147  CB        -5.3740   16.2300   12.9480 C.3   134  TYR134      0.0534
    148  CG        -6.6610   16.2920   12.1740 C.ar  134  TYR134     -0.0201
    149  CD1       -6.7210   15.8670   10.8450 C.ar  134  TYR134     -0.0009
    150  CD2       -7.8260   16.7760   12.7670 C.ar  134  TYR134     -0.0009
    151  CE1       -7.9040   15.9380   10.1210 C.ar  134  TYR134      0.0417
    152  CE2       -9.0080   16.8510   12.0570 C.ar  134  TYR134      0.0417
    153  CZ        -9.0470   16.4240   10.7410 C.ar  134  TYR134      0.1957
    154  OH       -10.2270   16.5080   10.0490 O.3   134  TYR134     -0.2866
@<TRIPOS>BOND
     1    31    32    1
     2    33    32    1
     3    33    34    2
     4    32    35    1
     5    12    13    1
     6    13    14    1
     7    13    16    1
     8    15    14    2
     9    39    40    1
    10    26    25    2
    11    25    24    1
    12    14    23   am
    13    42    41    2
    14    35    36    1
    15    23    24    1
    16    38    36    1
    17    41    40    1
    18    16    17    1
    19    40    43    1
    20    24    27    1
    21    36    37    1
    22    18    17   ar
    23    18    20   ar
    24     1     2    1
    25    17    19   ar
    26     3     4    2
    27     3     2    1
    28   123   122    2
    29    27    29    1
    30    27    28    1
    31   103   104    1
    32    20    22   ar
    33    43    44    1
    34     2     5    1
    35   104   105    1
    36   104   107    1
    37   122   121    1
    38    44    46    1
    39    44    45    1
    40   108   107    1
    41   108   110    1
    42    19    21   ar
    43    22    21   ar
    44   105   106    2
    45    28    30    1
    46   107   109    1
    47     5     6    1
    48   121   124    1
    49   121   120    1
    50   124   125    1
    51     6     8   ar
    52     6     7   ar
    53     8    10   ar
    54     7     9   ar
    55    53    55   ar
    56    53    52   ar
    57    51    52    1
    58    51    48    1
    59   125   126   ar
    60   125   127   ar
    61    49    50    2
    62    49    48    1
    63    10    11   ar
    64    55    57   ar
    65    47    48    1
    66   126   128   ar
    67     9    11   ar
    68    52    54   ar
    69   127   129   ar
    70    57    58    1
    71    57    56   ar
    72   132   133    1
    73   128   130   ar
    74   114   113    2
    75    54    56   ar
    76   113   112    1
    77   129   130   ar
    78   130   131    1
    79   133   136    1
    80   133   134    1
    81   136   137    1
    82   112   111    1
    83   112   115    1
    84   134   135    2
    85   116   115    1
    86   116   117    1
    87   137   138    1
    88   138   139    1
    89   118   117    1
    90   118   119    1
    91   139   140    2
    92   140   141    1
    93   140   142    1
    94   154   153    1
    95   151   153   ar
    96   151   149   ar
    97   153   152   ar
    98   149   148   ar
    99   143   144    1
   100    64    63    1
   101   102   101    1
   102    75    74   ar
   103    75    73   ar
   104    99   101   ar
   105    99    97   ar
   106    74    72   ar
   107   101   100   ar
   108    89    88    1
   109    90    88    1
   110   152   150   ar
   111    63    65    1
   112    63    60    1
   113    97    96   ar
   114   148   150   ar
   115   148   147    1
   116   100    98   ar
   117    73    71   ar
   118   144   147    1
   119   144   145    1
   120    96    98   ar
   121    96    95    1
   122    88    85    1
   123    82    80    1
   124    72    71   ar
   125    95    92    1
   126   146   145    2
   127    81    83    1
   128    81    80    1
   129    71    70    1
   130    59    60    1
   131    60    61    1
   132    80    77    1
   133    85    84    1
   134    85    86    1
   135    61    62    2
   136    87    86    2
   137    92    91    1
   138    92    93    1
   139    70    67    1
   140    77    78    1
   141    77    76    1
   142    93    94    2
   143    78    79    2
   144    67    66    1
   145    67    68    1
   146    68    69    2
