@<TRIPOS>MOLECULE
tmp/5xncC01.pdb
 152 147 0 0 0
SMALL
GASTEIGER

@<TRIPOS>ATOM
      1  N         26.0870   16.9320   82.3950 N.3   128  ASP128     -0.1225
      2  CA        27.2620   17.0820   83.2640 C.3   128  ASP128      0.1805
      3  C         28.3810   17.9320   82.6400 C.2   128  ASP128      0.2598
      4  O         29.5710   17.6990   82.9030 O.2   128  ASP128     -0.2718
      5  CB        27.7580   15.6700   83.6040 C.3   128  ASP128      0.1424
      6  CG        28.8640   15.6690   84.7140 C.2   128  ASP128      0.3668
      7  OD1       28.9130   16.5660   85.5880 O.co2 128  ASP128     -0.2456
      8  OD2       29.7890   14.7870   84.6480 O.co2 128  ASP128     -0.2456
      9  N         28.0520   18.9170   81.8150 N.am  129  GLN129     -0.1965
     10  CA        28.9940   19.7170   81.0660 C.3   129  GLN129      0.1733
     11  C         29.6790   20.8080   81.8510 C.2   129  GLN129      0.2616
     12  O         29.1300   21.4310   82.8040 O.2   129  GLN129     -0.2715
     13  CB        28.3880   20.3880   79.8160 C.3   129  GLN129      0.0408
     14  CG        27.9560   19.3260   78.7580 C.3   129  GLN129      0.0908
     15  CD        27.1900   19.8990   77.6280 C.2   129  GLN129      0.2608
     16  OE1       26.9380   21.1360   77.5610 O.2   129  GLN129     -0.2717
     17  NE2       26.7930   19.0250   76.7110 N.am  129  GLN129     -0.0878
     18  N         30.8800   21.0560   81.3930 N.am  130  ALA130     -0.1977
     19  CA        31.6740   22.1640   81.7990 C.3   130  ALA130      0.1597
     20  C         32.9260   22.1590   81.0040 C.2   130  ALA130      0.2287
     21  O         33.7120   21.2280   81.1380 O.2   130  ALA130     -0.2864
     22  CB        32.0090   22.1030   83.3020 C.3   130  ALA130      0.0319
     23  N         32.3700   18.8280   74.7990 N.3   161  ASP161     -0.1225
     24  CA        32.0400   20.2260   75.2870 C.3   161  ASP161      0.1805
     25  C         33.2480   21.1270   75.2940 C.2   161  ASP161      0.2597
     26  O         33.1700   22.3330   74.9840 O.2   161  ASP161     -0.2718
     27  CB        31.3130   20.2690   76.6330 C.3   161  ASP161      0.1424
     28  CG        32.0400   19.6390   77.7440 C.2   161  ASP161      0.3668
     29  OD1       33.1210   18.9050   77.5870 O.co2 161  ASP161     -0.2456
     30  OD2       31.5050   19.8630   78.8480 O.co2 161  ASP161     -0.2456
     31  N         34.4180   20.4810   75.4730 N.am  162  ASP162     -0.1974
     32  CA        35.7260   21.1610   75.4450 C.3   162  ASP162      0.1709
     33  C         36.1640   21.5910   74.1310 C.2   162  ASP162      0.2293
     34  O         37.0530   22.4220   74.0590 O.2   162  ASP162     -0.2864
     35  CB        36.8940   20.2630   76.0460 C.3   162  ASP162      0.1436
     36  CG        36.6280   19.8790   77.4740 C.2   162  ASP162      0.3671
     37  OD1       36.2530   20.7810   78.2650 O.co2 162  ASP162     -0.2456
     38  OD2       36.7600   18.6320   77.8020 O.co2 162  ASP162     -0.2456
     39  N         36.6620   13.2940   78.4730 N.3   227  ASP227     -0.1225
     40  CA        36.7580   13.9630   79.7940 C.3   227  ASP227      0.1790
     41  C         35.5710   13.6610   80.5830 C.2   227  ASP227      0.2440
     42  O         34.6160   14.3940   80.4600 O.2   227  ASP227     -0.2733
     43  CB        37.1250   15.4390   79.6250 C.3   227  ASP227      0.1423
     44  CG        37.7800   16.0670   80.9120 C.2   227  ASP227      0.3668
     45  OD1       38.4000   15.3710   81.7430 O.co2 227  ASP227     -0.2456
     46  OD2       37.7050   17.3610   81.0700 O.co2 227  ASP227     -0.2456
     47  N         35.5470   12.4840   81.2320 N.am  228  PRO228     -0.2718
     48  CA        34.3190   11.8550   81.5700 C.3   228  PRO228      0.1520
     49  C         33.7540   12.2570   82.9190 C.2   228  PRO228      0.2440
     50  O         34.4560   12.8480   83.7500 O.2   228  PRO228     -0.2731
     51  CB        34.7120   10.3820   81.6590 C.3   228  PRO228      0.0310
     52  CG        36.1800   10.4770   82.2150 C.3   228  PRO228      0.0237
     53  CD        36.7250   11.5930   81.4460 C.3   228  PRO228      0.0939
     54  N         32.4300   11.9440   83.1430 N.am  229  PRO229     -0.2716
     55  CA        31.9000   11.9090   84.4920 C.3   229  PRO229      0.1536
     56  C         32.7720   10.8760   85.2620 C.2   229  PRO229      0.2598
     57  O         33.6300   10.1940   84.6620 O.2   229  PRO229     -0.2715
     58  CB        30.4920   11.3560   84.3210 C.3   229  PRO229      0.0310
     59  CG        30.1900   11.4100   82.8610 C.3   229  PRO229      0.0237
     60  CD        31.5640   11.1890   82.2560 C.3   229  PRO229      0.0939
     61  N         32.5150   10.7840   86.5770 N.am  230  GLU230     -0.1978
     62  CA        33.4580   10.1310   87.4680 C.3   230  GLU230      0.1602
     63  C         32.9400    8.9940   88.2770 C.2   230  GLU230      0.2287
     64  O         33.6350    8.4550   89.1940 O.2   230  GLU230     -0.2864
     65  CB        34.2170   11.1940   88.3010 C.3   230  GLU230      0.0415
     66  CG        35.4330   11.6390   87.4950 C.3   230  GLU230      0.1163
     67  CD        36.2920   12.7250   88.1540 C.2   230  GLU230      0.3649
     68  OE1       36.9560   13.3780   87.3100 O.co2 230  GLU230     -0.2457
     69  OE2       36.2620   12.9320   89.4310 O.co2 230  GLU230     -0.2457
     70  N         40.8300   13.4360   81.7910 N.3   256  GLY256     -0.1225
     71  CA        40.9330   13.9830   83.1260 C.3   256  GLY256      0.1811
     72  C         40.2370   13.1990   84.2670 C.2   256  GLY256      0.2280
     73  O         39.2040   12.5410   84.0100 O.2   256  GLY256     -0.2866
     74  N         39.3210   14.0960   88.4850 N.3   258  THR258     -0.1218
     75  CA        39.4270   15.0740   89.5510 C.3   258  THR258      0.1862
     76  C         39.6620   14.4900   90.9150 C.2   258  THR258      0.2287
     77  O         39.4090   13.3130   91.1480 O.2   258  THR258     -0.2866
     78  CB        38.0540   15.8920   89.7400 C.3   258  THR258      0.1770
     79  OG1       37.0550   15.0290   90.2680 O.3   258  THR258     -0.2211
     80  CG2       37.5150   16.3560   88.4410 C.3   258  THR258      0.0375
     81  N         35.5500   15.3600   92.7610 N.3   261  GLU261     -0.1245
     82  CA        34.4210   14.4460   92.7430 C.3   261  GLU261      0.1567
     83  C         34.8290   13.0030   92.8980 C.2   261  GLU261      0.2260
     84  O         33.9680   12.1280   92.6850 O.2   261  GLU261     -0.2867
     85  CB        33.5690   14.6110   91.4800 C.3   261  GLU261      0.0388
     86  CG        33.2790   16.1160   91.2980 C.3   261  GLU261      0.1160
     87  CD        32.0080   16.3820   90.3990 C.2   261  GLU261      0.3649
     88  OE1       32.1710   16.7000   89.2170 O.co2 261  GLU261     -0.2457
     89  OE2       30.9310   16.0340   90.8840 O.co2 261  GLU261     -0.2457
     90  N         38.6790   24.1850   84.5830 N.3   292  TYR292     -0.1241
     91  CA        37.2790   24.1730   84.0680 C.3   292  TYR292      0.1605
     92  C         36.7150   25.5540   84.2990 C.2   292  TYR292      0.2264
     93  O         36.8410   26.1440   85.3620 O.2   292  TYR292     -0.2867
     94  CB        36.4750   23.1010   84.7660 C.3   292  TYR292      0.0534
     95  CG        36.9370   21.7090   84.3980 C.ar  292  TYR292     -0.0201
     96  CD1       38.0830   21.1490   85.0460 C.ar  292  TYR292     -0.0009
     97  CD2       36.3890   20.9850   83.3490 C.ar  292  TYR292     -0.0009
     98  CE1       38.5220   19.9010   84.6470 C.ar  292  TYR292      0.0417
     99  CE2       36.7580   19.6740   83.0260 C.ar  292  TYR292      0.0417
    100  CZ        37.9390   19.1460   83.6580 C.ar  292  TYR292      0.1957
    101  OH        38.5220   17.9170   83.3910 O.3   292  TYR292     -0.2866
    102  N         30.4970   26.9630   85.7090 N.3   295  TRP295     -0.1241
    103  CA        29.3460   26.6140   84.9410 C.3   295  TRP295      0.1605
    104  C         28.0690   27.3870   85.5150 C.2   295  TRP295      0.2264
    105  O         27.9410   27.5820   86.7340 O.2   295  TRP295     -0.2867
    106  CB        29.1060   25.1050   84.8730 C.3   295  TRP295      0.0550
    107  CG        29.2240   24.4310   86.1050 C.ar  295  TRP295      0.0003
    108  CD1       28.2470   24.0280   86.9330 C.ar  295  TRP295      0.0946
    109  CD2       30.4450   23.9720   86.6830 C.ar  295  TRP295      0.0152
    110  NE1       28.7810   23.4750   88.0800 N.ar  295  TRP295     -0.2442
    111  CE2       30.1300   23.3590   87.8950 C.ar  295  TRP295      0.0810
    112  CE3       31.7880   24.0350   86.2850 C.ar  295  TRP295      0.0012
    113  CZ2       31.1060   22.8560   88.7590 C.ar  295  TRP295      0.0191
    114  CZ3       32.7140   23.5290   87.1120 C.ar  295  TRP295      0.0001
    115  CH2       32.4180   22.9240   88.3080 C.ar  295  TRP295      0.0015
    116  N         24.8660   26.6880   85.6650 N.3   297  TYR297     -0.1241
    117  CA        23.9700   25.8980   86.4970 C.3   297  TYR297      0.1605
    118  C         24.2900   25.5220   87.9450 C.2   297  TYR297      0.2264
    119  O         23.5000   24.7560   88.5320 O.2   297  TYR297     -0.2867
    120  CB        23.4490   24.7160   85.7370 C.3   297  TYR297      0.0534
    121  CG        24.5810   23.6610   85.4980 C.ar  297  TYR297     -0.0201
    122  CD1       24.8870   22.7400   86.4490 C.ar  297  TYR297     -0.0009
    123  CD2       25.2880   23.6300   84.3040 C.ar  297  TYR297     -0.0009
    124  CE1       25.8990   21.7560   86.1820 C.ar  297  TYR297      0.0417
    125  CE2       26.2550   22.6920   84.0130 C.ar  297  TYR297      0.0417
    126  CZ        26.5520   21.7040   84.9330 C.ar  297  TYR297      0.1957
    127  OH        27.5450   20.7190   84.7140 O.3   297  TYR297     -0.2866
    128  N         37.6150   24.4500   90.0290 N.3   318  TYR318     -0.1241
    129  CA        37.4140   23.0100   89.7260 C.3   318  TYR318      0.1605
    130  C         38.4510   22.7330   88.5980 C.2   318  TYR318      0.2264
    131  O         38.5070   23.4200   87.5290 O.2   318  TYR318     -0.2867
    132  CB        35.9500   22.7650   89.2220 C.3   318  TYR318      0.0534
    133  CG        35.5470   21.3380   88.9110 C.ar  318  TYR318     -0.0201
    134  CD1       35.9360   20.6990   87.7610 C.ar  318  TYR318     -0.0009
    135  CD2       34.8270   20.6070   89.8140 C.ar  318  TYR318     -0.0009
    136  CE1       35.5740   19.3940   87.5010 C.ar  318  TYR318      0.0417
    137  CE2       34.3810   19.3450   89.5220 C.ar  318  TYR318      0.0417
    138  CZ        34.8080   18.7190   88.4000 C.ar  318  TYR318      0.1957
    139  OH        34.3750   17.4310   88.0960 O.3   318  TYR318     -0.2866
    140  N         41.1120   19.2720   87.0900 N.3   320  SER320     -0.1217
    141  CA        41.3690   17.8240   87.0960 C.3   320  SER320      0.1889
    142  C         42.8030   17.5160   86.6450 C.2   320  SER320      0.2288
    143  O         43.4690   18.2750   85.9730 O.2   320  SER320     -0.2866
    144  CB        40.4540   17.0630   86.1110 C.3   320  SER320      0.2089
    145  OG        40.6400   17.3740   84.7050 O.3   320  SER320     -0.2183
    146  N         28.6770   18.0110   91.3030 N.3   352  THR352     -0.1218
    147  CA        28.4600   19.0850   90.3780 C.3   352  THR352      0.1862
    148  C         27.3050   18.9140   89.3850 C.2   352  THR352      0.2287
    149  O         27.2910   19.5170   88.3620 O.2   352  THR352     -0.2866
    150  CB        29.7480   19.5050   89.6950 C.3   352  THR352      0.1770
    151  OG1       30.1140   18.5190   88.7470 O.3   352  THR352     -0.2211
    152  CG2       30.8350   19.7740   90.6930 C.3   352  THR352      0.0375
@<TRIPOS>BOND
     1    34    33    2
     2    33    32    1
     3    23    24    1
     4    26    25    2
     5    24    25    1
     6    24    27    1
     7    25    31   am
     8    32    31    1
     9    32    35    1
    10    35    36    1
    11    27    28    1
    12    17    15   am
    13    36    38   ar
    14    36    37   ar
    15    16    15    2
    16    29    28   ar
    17    15    14    1
    18    28    30   ar
    19    39    40    1
    20    14    13    1
    21    43    40    1
    22    43    44    1
    23    40    41    1
    24    13    10    1
    25    42    41    2
    26    41    47   am
    27    44    46   ar
    28    44    45   ar
    29    20    21    2
    30    20    19    1
    31    10     9    1
    32    10    11    1
    33    47    53    1
    34    47    48    1
    35    18    19    1
    36    18    11   am
    37    53    52    1
    38    48    51    1
    39    48    49    1
    40    51    52    1
    41    70    71    1
    42    19    22    1
    43     9     3   am
    44    11    12    2
    45    60    59    1
    46    60    54    1
    47     1     2    1
    48     3     4    2
    49     3     2    1
    50    59    58    1
    51    49    54   am
    52    49    50    2
    53    99    97   ar
    54    99   100   ar
    55    71    72    1
    56    54    55    1
    57     2     5    1
    58    97    95   ar
    59   101   100    1
    60     5     6    1
    61   100    98   ar
    62    73    72    2
    63   125   123   ar
    64   125   126   ar
    65    91    92    1
    66    91    90    1
    67    91    94    1
    68    92    93    2
    69   123   121   ar
    70    58    55    1
    71    95    94    1
    72    95    96   ar
    73    55    56    1
    74    98    96   ar
    75     8     6   ar
    76    57    56    2
    77   145   144    1
    78   127   126    1
    79     6     7   ar
    80   106   103    1
    81   106   107    1
    82   126   124   ar
    83   103   104    1
    84   103   102    1
    85    56    61   am
    86   121   120    1
    87   121   122   ar
    88   104   105    2
    89   116   117    1
    90   120   117    1
    91   143   142    2
    92   107   109   ar
    93   107   108   ar
    94   144   141    1
    95   124   122   ar
    96   112   109   ar
    97   112   114   ar
    98   117   118    1
    99    61    62    1
   100   142   141    1
   101   109   111   ar
   102   108   110   ar
   103   140   141    1
   104   114   115   ar
   105    68    67   ar
   106    62    63    1
   107    62    65    1
   108    66    67    1
   109    66    65    1
   110   136   134   ar
   111   136   138   ar
   112   131   130    2
   113   134   133   ar
   114   111   110   ar
   115   111   113   ar
   116   118   119    2
   117   139   138    1
   118    67    69   ar
   119    63    64    2
   120   115   113   ar
   121   149   148    2
   122   138   137   ar
   123    80    78    1
   124    74    75    1
   125   130   129    1
   126   151   150    1
   127   133   132    1
   128   133   135   ar
   129    88    87   ar
   130   132   129    1
   131   148   147    1
   132   137   135   ar
   133    75    78    1
   134    75    76    1
   135   150   147    1
   136   150   152    1
   137   129   128    1
   138    78    79    1
   139   147   146    1
   140    87    89   ar
   141    87    86    1
   142    76    77    2
   143    86    85    1
   144    85    82    1
   145    84    83    2
   146    82    81    1
   147    82    83    1
