@<TRIPOS>MOLECULE
tmp/5xncB02.pdb
 152 147 0 0 0
SMALL
GASTEIGER

@<TRIPOS>ATOM
      1  N         28.7980   -2.6860   54.7790 N.3   129  ASP129     -0.1225
      2  CA        27.6930   -2.3790   53.8740 C.3   129  ASP129      0.1805
      3  C         27.3000   -3.6510   53.0370 C.2   129  ASP129      0.2598
      4  O         26.9450   -3.5420   51.8470 O.2   129  ASP129     -0.2718
      5  CB        28.1550   -1.2960   52.9800 C.3   129  ASP129      0.1424
      6  CG        26.9740   -0.6750   52.1130 C.2   129  ASP129      0.3668
      7  OD1       25.8030   -0.7930   52.5430 O.co2 129  ASP129     -0.2456
      8  OD2       27.4070   -0.1990   51.0290 O.co2 129  ASP129     -0.2456
      9  N         27.3930   -4.8410   53.6310 N.am  130  GLN130     -0.1965
     10  CA        27.1370   -6.0520   52.8930 C.3   130  GLN130      0.1733
     11  C         25.6350   -6.3880   52.6700 C.2   130  GLN130      0.2616
     12  O         24.7980   -6.1370   53.5320 O.2   130  GLN130     -0.2715
     13  CB        27.7830   -7.2420   53.5550 C.3   130  GLN130      0.0408
     14  CG        29.3370   -7.2870   53.3170 C.3   130  GLN130      0.0908
     15  CD        30.0480   -8.3600   54.1280 C.2   130  GLN130      0.2608
     16  OE1       29.3940   -9.1540   54.8250 O.2   130  GLN130     -0.2717
     17  NE2       31.3970   -8.2900   54.1430 N.am  130  GLN130     -0.0878
     18  N         25.4000   -7.0920   51.5610 N.am  131  ALA131     -0.1977
     19  CA        24.1800   -7.7850   51.3060 C.3   131  ALA131      0.1597
     20  C         24.3780   -8.5540   50.0410 C.2   131  ALA131      0.2287
     21  O         24.5050   -7.9500   48.9240 O.2   131  ALA131     -0.2864
     22  CB        22.9650   -6.8280   51.0990 C.3   131  ALA131      0.0319
     23  N         31.0800  -10.3570   48.6280 N.3   162  ASP162     -0.1225
     24  CA        29.9550  -10.9500   49.3630 C.3   162  ASP162      0.1805
     25  C         28.9860  -11.7660   48.5250 C.2   162  ASP162      0.2597
     26  O         28.3560  -12.7390   48.9900 O.2   162  ASP162     -0.2718
     27  CB        29.2850   -9.9970   50.2740 C.3   162  ASP162      0.1424
     28  CG        28.5260   -8.8900   49.5980 C.2   162  ASP162      0.3668
     29  OD1       28.7630   -8.5330   48.4470 O.co2 162  ASP162     -0.2456
     30  OD2       27.6100   -8.3110   50.3230 O.co2 162  ASP162     -0.2456
     31  N         28.9330  -11.4320   47.2490 N.am  163  ASP163     -0.1974
     32  CA        27.9890  -12.0560   46.2910 C.3   163  ASP163      0.1709
     33  C         28.5280  -13.4200   45.8070 C.2   163  ASP163      0.2293
     34  O         27.7950  -14.1960   45.1730 O.2   163  ASP163     -0.2864
     35  CB        27.8610  -11.1830   45.0900 C.3   163  ASP163      0.1436
     36  CG        27.1980   -9.8560   45.4300 C.2   163  ASP163      0.3671
     37  OD1       26.1840   -9.9420   46.1800 O.co2 163  ASP163     -0.2456
     38  OD2       27.6140   -8.8270   44.8720 O.co2 163  ASP163     -0.2456
     39  N         30.4960   -4.5930   43.1710 N.3   228  ASP228     -0.1225
     40  CA        29.1070   -4.2490   43.4990 C.3   228  ASP228      0.1790
     41  C         29.1500   -3.2580   44.6590 C.2   228  ASP228      0.2440
     42  O         28.9910   -3.6410   45.8180 O.2   228  ASP228     -0.2733
     43  CB        28.2290   -5.4440   43.6940 C.3   228  ASP228      0.1423
     44  CG        26.7050   -5.0490   43.5170 C.2   228  ASP228      0.3668
     45  OD1       26.4090   -4.0300   42.8830 O.co2 228  ASP228     -0.2456
     46  OD2       25.8290   -5.7370   44.0050 O.co2 228  ASP228     -0.2456
     47  N         29.3860   -2.0210   44.3280 N.am  229  PRO229     -0.2718
     48  CA        29.9490   -1.1320   45.3430 C.3   229  PRO229      0.1520
     49  C         28.9540   -0.3960   46.2120 C.2   229  PRO229      0.2440
     50  O         27.7610   -0.3590   45.8910 O.2   229  PRO229     -0.2731
     51  CB        30.6800   -0.1040   44.4480 C.3   229  PRO229      0.0310
     52  CG        29.7730   -0.0070   43.2060 C.3   229  PRO229      0.0237
     53  CD        29.4400   -1.4250   42.9680 C.3   229  PRO229      0.0939
     54  N         29.4660    0.2970   47.2800 N.am  230  PRO230     -0.2716
     55  CA        28.6950    1.3020   47.9160 C.3   230  PRO230      0.1536
     56  C         28.4280    2.4350   46.9550 C.2   230  PRO230      0.2598
     57  O         29.1080    2.5500   45.9160 O.2   230  PRO230     -0.2715
     58  CB        29.5440    1.7520   49.1160 C.3   230  PRO230      0.0310
     59  CG        30.6150    0.7510   49.2350 C.3   230  PRO230      0.0237
     60  CD        30.8620    0.2670   47.7850 C.3   230  PRO230      0.0939
     61  N         27.5060    3.3510   47.3000 N.am  231  GLU231     -0.1978
     62  CA        27.0930    4.3270   46.2960 C.3   231  GLU231      0.1602
     63  C         27.4040    5.8100   46.5350 C.2   231  GLU231      0.2287
     64  O         26.9870    6.6820   45.8140 O.2   231  GLU231     -0.2864
     65  CB        25.6390    4.0820   46.0380 C.3   231  GLU231      0.0415
     66  CG        25.4830    2.7820   45.2290 C.3   231  GLU231      0.1163
     67  CD        24.1370    2.4830   44.6700 C.2   231  GLU231      0.3649
     68  OE1       23.1690    3.2570   44.8160 O.co2 231  GLU231     -0.2457
     69  OE2       24.0730    1.3870   44.1460 O.co2 231  GLU231     -0.2457
     70  N         26.8290   -2.8960   39.9050 N.3   257  GLY257     -0.1225
     71  CA        25.4700   -2.5080   40.1300 C.3   257  GLY257      0.1811
     72  C         25.3390   -1.0570   40.5900 C.2   257  GLY257      0.2280
     73  O         26.2030   -0.5470   41.2950 O.2   257  GLY257     -0.2866
     74  N         22.0780    1.3920   42.2930 N.3   259  THR259     -0.1218
     75  CA        20.6600    1.3770   42.6290 C.3   259  THR259      0.1862
     76  C         19.9610    2.6770   42.3660 C.2   259  THR259      0.2287
     77  O         20.6010    3.6730   42.2180 O.2   259  THR259     -0.2866
     78  CB        20.4330    1.0930   44.1750 C.3   259  THR259      0.1770
     79  OG1       20.7680    2.3100   44.9700 O.3   259  THR259     -0.2211
     80  CG2       21.2980   -0.0130   44.6540 C.3   259  THR259      0.0375
     81  N         19.4280    4.0900   46.7260 N.3   262  GLU262     -0.1301
     82  CA        20.4220    4.8640   47.4870 C.3   262  GLU262      0.1252
     83  C         21.1580    5.8780   46.6750 C.3   262  GLU262      0.2009
     84  O         22.1340    6.5860   47.1760 O.3   262  GLU262     -0.2188
     85  CB        21.4240    3.9030   48.2230 C.3   262  GLU262      0.0335
     86  CG        20.6720    2.8500   49.0150 C.3   262  GLU262      0.1156
     87  CD        21.5710    2.1790   50.1030 C.2   262  GLU262      0.3649
     88  OE1       22.0330    1.0280   49.9330 O.co2 262  GLU262     -0.2457
     89  OE2       21.6500    2.8500   51.1680 O.co2 262  GLU262     -0.2457
     90  N         18.7150   -8.3580   45.7490 N.3   293  TYR293     -0.1241
     91  CA        19.5430   -8.4970   46.9550 C.3   293  TYR293      0.1605
     92  C         18.7080   -9.2160   48.0000 C.2   293  TYR293      0.2264
     93  O         17.5520   -8.8570   48.2520 O.2   293  TYR293     -0.2867
     94  CB        20.0240   -7.1570   47.5640 C.3   293  TYR293      0.0534
     95  CG        21.0080   -6.4590   46.6860 C.ar  293  TYR293     -0.0201
     96  CD1       20.5440   -5.7780   45.5240 C.ar  293  TYR293     -0.0009
     97  CD2       22.3160   -6.6470   46.7840 C.ar  293  TYR293     -0.0009
     98  CE1       21.3810   -5.2290   44.5970 C.ar  293  TYR293      0.0417
     99  CE2       23.2010   -6.0650   45.8550 C.ar  293  TYR293      0.0417
    100  CZ        22.7560   -5.3180   44.7730 C.ar  293  TYR293      0.1957
    101  OH        23.5720   -4.7740   43.8500 O.3   293  TYR293     -0.2866
    102  N         18.7700   -8.3750   54.4190 N.3   296  TRP296     -0.1241
    103  CA        19.9080   -8.4690   55.3580 C.3   296  TRP296      0.1605
    104  C         19.3840   -8.4250   56.8260 C.2   296  TRP296      0.2264
    105  O         18.4380   -7.6260   57.1600 O.2   296  TRP296     -0.2867
    106  CB        20.9860   -7.4110   55.0630 C.3   296  TRP296      0.0550
    107  CG        20.5190   -6.0290   54.7990 C.ar  296  TRP296      0.0003
    108  CD1       20.3560   -5.0570   55.7230 C.ar  296  TRP296      0.0946
    109  CD2       19.9000   -5.5570   53.6390 C.ar  296  TRP296      0.0152
    110  NE1       19.7850   -3.9630   55.2360 N.ar  296  TRP296     -0.2442
    111  CE2       19.4080   -4.2270   53.9430 C.ar  296  TRP296      0.0810
    112  CE3       19.7620   -6.0510   52.3230 C.ar  296  TRP296      0.0012
    113  CZ2       18.8790   -3.4180   52.9690 C.ar  296  TRP296      0.0191
    114  CZ3       19.1310   -5.2310   51.3820 C.ar  296  TRP296      0.0001
    115  CH2       18.7730   -3.9380   51.6950 C.ar  296  TRP296      0.0015
    116  N         20.5940   -7.0880   59.6090 N.3   298  TYR298     -0.1241
    117  CA        20.8670   -5.9100   60.3990 C.3   298  TYR298      0.1605
    118  C         19.9270   -4.6640   60.0850 C.2   298  TYR298      0.2264
    119  O         20.2150   -3.5110   60.5430 O.2   298  TYR298     -0.2867
    120  CB        22.3330   -5.5740   60.2720 C.3   298  TYR298      0.0534
    121  CG        22.8220   -5.1900   58.8860 C.ar  298  TYR298     -0.0201
    122  CD1       22.6810   -3.8850   58.3980 C.ar  298  TYR298     -0.0009
    123  CD2       23.4210   -6.1180   58.0790 C.ar  298  TYR298     -0.0009
    124  CE1       23.1480   -3.4790   57.1610 C.ar  298  TYR298      0.0417
    125  CE2       23.9540   -5.7530   56.8800 C.ar  298  TYR298      0.0417
    126  CZ        23.8240   -4.4470   56.3640 C.ar  298  TYR298      0.1957
    127  OH        24.3580   -4.1250   55.0800 O.3   298  TYR298     -0.2866
    128  N         15.0240   -4.5690   47.5860 N.3   319  TYR319     -0.1241
    129  CA        16.1780   -3.8860   47.1830 C.3   319  TYR319      0.1605
    130  C         16.8220   -4.5360   45.9410 C.2   319  TYR319      0.2264
    131  O         17.1800   -5.7430   45.9950 O.2   319  TYR319     -0.2867
    132  CB        17.1920   -3.8660   48.3460 C.3   319  TYR319      0.0534
    133  CG        18.3750   -2.9340   48.2150 C.ar  319  TYR319     -0.0201
    134  CD1       19.5120   -3.2840   47.5710 C.ar  319  TYR319     -0.0009
    135  CD2       18.3630   -1.6640   48.7670 C.ar  319  TYR319     -0.0009
    136  CE1       20.6270   -2.5090   47.5340 C.ar  319  TYR319      0.0417
    137  CE2       19.4720   -0.8420   48.6800 C.ar  319  TYR319      0.0417
    138  CZ        20.6270   -1.3020   48.1100 C.ar  319  TYR319      0.1957
    139  OH        21.7700   -0.5100   48.0450 O.3   319  TYR319     -0.2866
    140  N         19.2330   -3.5340   42.1730 N.3   321  SER321     -0.1217
    141  CA        20.0890   -2.6500   41.4230 C.3   321  SER321      0.1889
    142  C         20.1430   -2.8600   39.9660 C.2   321  SER321      0.2288
    143  O         19.9160   -3.9720   39.4780 O.2   321  SER321     -0.2866
    144  CB        21.5260   -2.5650   41.9960 C.3   321  SER321      0.2089
    145  OG        22.3040   -3.6870   41.5950 O.3   321  SER321     -0.2183
    146  N         20.9810    2.2120   54.0120 N.3   353  THR353     -0.1218
    147  CA        20.9860    0.8210   54.4230 C.3   353  THR353      0.1862
    148  C         22.2060    0.3940   55.2150 C.2   353  THR353      0.2287
    149  O         22.4950   -0.8170   55.2850 O.2   353  THR353     -0.2866
    150  CB        20.7500   -0.1470   53.2480 C.3   353  THR353      0.1770
    151  OG1       21.8810   -0.0960   52.3860 O.3   353  THR353     -0.2211
    152  CG2       19.4850    0.1250   52.4630 C.3   353  THR353      0.0375
@<TRIPOS>BOND
     1   143   142    2
     2    70    71    1
     3   142   141    1
     4    71    72    1
     5    72    73    2
     6   141   144    1
     7   141   140    1
     8   145   144    1
     9    77    76    2
    10    74    75    1
    11    76    75    1
    12    75    78    1
    13    45    44   ar
    14    53    52    1
    15    53    47    1
    16    39    40    1
    17    52    51    1
    18    40    43    1
    19    40    41    1
    20    44    43    1
    21    44    46   ar
    22   101   100    1
    23    69    67   ar
    24    78    80    1
    25    78    79    1
    26    47    41   am
    27    47    48    1
    28    51    48    1
    29    98   100   ar
    30    98    96   ar
    31    41    42    2
    32    67    68   ar
    33    67    66    1
    34   100    99   ar
    35    38    36   ar
    36    35    36    1
    37    35    32    1
    38    34    33    2
    39    66    65    1
    40    48    49    1
    41    36    37   ar
    42    96    95   ar
    43    90    91    1
    44    33    32    1
    45    64    63    2
    46    99    97   ar
    47    50    49    2
    48    57    56    2
    49   130   131    2
    50   130   129    1
    51    65    62    1
    52    49    54   am
    53    32    31    1
    54    62    63    1
    55    62    61    1
    56    83    84    1
    57    83    82    1
    58    95    97   ar
    59    95    94    1
    60    81    82    1
    61    56    61   am
    62    56    55    1
    63    91    94    1
    64    91    92    1
    65   129   128    1
    66   129   132    1
    67    31    25   am
    68    54    60    1
    69    54    55    1
    70    82    85    1
    71   136   134   ar
    72   136   138   ar
    73   134   133   ar
    74    60    59    1
    75    55    58    1
    76    92    93    2
    77   139   138    1
    78   138   137   ar
    79   133   132    1
    80   133   135   ar
    81    85    86    1
    82    29    28   ar
    83    25    26    2
    84    25    24    1
    85    23    24    1
    86   137   135   ar
    87    21    20    2
    88    86    87    1
    89    58    59    1
    90    24    27    1
    91    28    27    1
    92    28    30   ar
    93    88    87   ar
    94    20    19    1
    95    87    89   ar
    96     8     6   ar
    97    22    19    1
    98    19    18    1
    99   114   115   ar
   100   114   112   ar
   101    18    11   am
   102   115   113   ar
   103     4     3    2
   104     6     7   ar
   105     6     5    1
   106   112   109   ar
   107   151   150    1
   108   152   150    1
   109    11    10    1
   110    11    12    2
   111    10    13    1
   112    10     9    1
   113   113   111   ar
   114     5     2    1
   115     3     9   am
   116     3     2    1
   117   150   147    1
   118    14    13    1
   119    14    15    1
   120   109   111   ar
   121   109   107   ar
   122     2     1    1
   123   111   110   ar
   124   146   147    1
   125    15    17   am
   126    15    16    2
   127   102   103    1
   128   147   148    1
   129   107   106    1
   130   107   108   ar
   131   106   103    1
   132   127   126    1
   133   148   149    2
   134   110   108   ar
   135   103   104    1
   136   126   125   ar
   137   126   124   ar
   138   104   105    2
   139   125   123   ar
   140   124   122   ar
   141   123   121   ar
   142   122   121   ar
   143   121   120    1
   144   116   117    1
   145   118   117    1
   146   118   119    2
   147   120   117    1
