@<TRIPOS>MOLECULE
tmp/5xncB01.pdb
 168 165 0 0 0
SMALL
GASTEIGER

@<TRIPOS>ATOM
      1  N         30.4980   -3.4480   56.8400 N.3   128  PHE128     -0.1227
      2  CA        31.0480   -3.3450   55.5130 C.3   128  PHE128      0.1736
      3  C         29.9540   -3.1410   54.3620 C.2   128  PHE128      0.2595
      4  O         30.1930   -3.4520   53.1760 O.2   128  PHE128     -0.2718
      5  CB        31.8540   -4.5640   55.2160 C.3   128  PHE128      0.0547
      6  CG        33.0100   -4.7490   56.1630 C.ar  128  PHE128     -0.0202
      7  CD1       33.8800   -3.6880   56.4050 C.ar  128  PHE128     -0.0042
      8  CD2       33.2530   -6.0010   56.7200 C.ar  128  PHE128     -0.0042
      9  CE1       35.0370   -3.8700   57.2500 C.ar  128  PHE128     -0.0003
     10  CE2       34.3220   -6.1950   57.5680 C.ar  128  PHE128     -0.0003
     11  CZ        35.2180   -5.0940   57.8800 C.ar  128  PHE128     -0.0000
     12  N         28.7980   -2.6860   54.7790 N.am  129  ASP129     -0.1960
     13  CA        27.6930   -2.3790   53.8740 C.3   129  ASP129      0.1840
     14  C         27.3000   -3.6510   53.0370 C.2   129  ASP129      0.2622
     15  O         26.9450   -3.5420   51.8470 O.2   129  ASP129     -0.2715
     16  CB        28.1550   -1.2960   52.9800 C.3   129  ASP129      0.1450
     17  CG        26.9740   -0.6750   52.1130 C.2   129  ASP129      0.3671
     18  OD1       25.8030   -0.7930   52.5430 O.co2 129  ASP129     -0.2456
     19  OD2       27.4070   -0.1990   51.0290 O.co2 129  ASP129     -0.2456
     20  N         27.3930   -4.8410   53.6310 N.am  130  GLN130     -0.1963
     21  CA        27.1370   -6.0520   52.8930 C.3   130  GLN130      0.1733
     22  C         25.6350   -6.3880   52.6700 C.2   130  GLN130      0.2616
     23  O         24.7980   -6.1370   53.5320 O.2   130  GLN130     -0.2715
     24  CB        27.7830   -7.2420   53.5550 C.3   130  GLN130      0.0408
     25  CG        29.3370   -7.2870   53.3170 C.3   130  GLN130      0.0908
     26  CD        30.0480   -8.3600   54.1280 C.2   130  GLN130      0.2608
     27  OE1       29.3940   -9.1540   54.8250 O.2   130  GLN130     -0.2717
     28  NE2       31.3970   -8.2900   54.1430 N.am  130  GLN130     -0.0878
     29  N         25.4000   -7.0920   51.5610 N.am  131  ALA131     -0.1977
     30  CA        24.1800   -7.7850   51.3060 C.3   131  ALA131      0.1597
     31  C         24.3780   -8.5540   50.0410 C.2   131  ALA131      0.2287
     32  O         24.5050   -7.9500   48.9240 O.2   131  ALA131     -0.2864
     33  CB        22.9650   -6.8280   51.0990 C.3   131  ALA131      0.0319
     34  N         35.7100   -6.9540   45.8760 N.3   160  GLY160     -0.1225
     35  CA        34.6670   -7.1870   46.8420 C.3   160  GLY160      0.1811
     36  C         33.7940   -8.2970   46.4340 C.2   160  GLY160      0.2280
     37  O         33.5090   -8.4470   45.2610 O.2   160  GLY160     -0.2866
     38  N         31.0800  -10.3570   48.6280 N.3   162  ASP162     -0.1239
     39  CA        29.9550  -10.9500   49.3630 C.3   162  ASP162      0.1674
     40  C         28.9860  -11.7660   48.5250 C.2   162  ASP162      0.2266
     41  O         28.3560  -12.7390   48.9900 O.2   162  ASP162     -0.2867
     42  CB        29.2850   -9.9970   50.2740 C.3   162  ASP162      0.1410
     43  CG        28.5260   -8.8900   49.5980 C.2   162  ASP162      0.3668
     44  OD1       28.7630   -8.5330   48.4470 O.co2 162  ASP162     -0.2456
     45  OD2       27.6100   -8.3110   50.3230 O.co2 162  ASP162     -0.2456
     46  N         39.5230   -9.6800   45.9180 N.3   181  LEU181     -0.1231
     47  CA        39.8460   -9.0930   47.1680 C.3   181  LEU181      0.1693
     48  C         38.5580   -8.7350   47.9580 C.2   181  LEU181      0.2592
     49  O         37.4690   -8.5320   47.4050 O.2   181  LEU181     -0.2718
     50  CB        40.7420   -7.8320   47.0210 C.3   181  LEU181      0.0284
     51  CG        40.1960   -6.5530   46.3050 C.3   181  LEU181      0.0019
     52  CD1       39.2510   -5.6890   47.1920 C.3   181  LEU181      0.0001
     53  CD2       41.3210   -5.6850   45.7290 C.3   181  LEU181      0.0001
     54  N         38.7680   -8.5310   49.2480 N.am  182  ASP182     -0.1960
     55  CA        37.6950   -8.0090   50.0930 C.3   182  ASP182      0.1840
     56  C         38.3090   -7.5480   51.3780 C.2   182  ASP182      0.2621
     57  O         39.3200   -8.0800   51.8490 O.2   182  ASP182     -0.2715
     58  CB        36.7000   -9.0980   50.4140 C.3   182  ASP182      0.1450
     59  CG        35.2960   -8.5520   50.7920 C.2   182  ASP182      0.3671
     60  OD1       35.0990   -8.0060   51.9200 O.co2 182  ASP182     -0.2456
     61  OD2       34.4280   -8.5490   49.8910 O.co2 182  ASP182     -0.2456
     62  N         37.6580   -6.6020   52.0180 N.am  183  ILE183     -0.1977
     63  CA        38.0980   -6.1130   53.3360 C.3   183  ILE183      0.1596
     64  C         37.7600   -7.2080   54.4070 C.2   183  ILE183      0.2287
     65  O         38.3480   -7.1780   55.4500 O.2   183  ILE183     -0.2864
     66  CB        37.4010   -4.7410   53.6890 C.3   183  ILE183      0.0276
     67  CG1       38.1400   -4.0750   54.8900 C.3   183  ILE183      0.0022
     68  CG2       35.9190   -4.9030   53.9630 C.3   183  ILE183      0.0022
     69  CD1       37.9510   -2.5520   54.9010 C.3   183  ILE183      0.0001
     70  N         35.1470  -13.5240   54.2170 N.3   187  LEU187     -0.1245
     71  CA        34.8920  -13.8660   52.7810 C.3   187  LEU187      0.1561
     72  C         36.1310  -14.3410   52.0670 C.2   187  LEU187      0.2260
     73  O         36.0740  -15.3510   51.3350 O.2   187  LEU187     -0.2867
     74  CB        34.3610  -12.5990   52.0030 C.3   187  LEU187      0.0270
     75  CG        32.9540  -12.3010   52.4880 C.3   187  LEU187      0.0019
     76  CD1       32.6210  -10.8990   52.0060 C.3   187  LEU187      0.0001
     77  CD2       32.0350  -13.3600   51.9000 C.3   187  LEU187      0.0001
     78  N         41.9220   -6.6990   51.5820 N.3   208  PHE208     -0.1227
     79  CA        42.3700   -5.3940   51.1750 C.3   208  PHE208      0.1736
     80  C         41.3120   -4.3680   51.4970 C.2   208  PHE208      0.2595
     81  O         40.1350   -4.6870   51.4830 O.2   208  PHE208     -0.2718
     82  CB        42.6390   -5.3660   49.6690 C.3   208  PHE208      0.0547
     83  CG        43.4490   -4.1780   49.2510 C.ar  208  PHE208     -0.0202
     84  CD1       44.8760   -4.1930   49.4350 C.ar  208  PHE208     -0.0042
     85  CD2       42.8820   -3.0950   48.6680 C.ar  208  PHE208     -0.0042
     86  CE1       45.6250   -3.1330   49.0440 C.ar  208  PHE208     -0.0003
     87  CE2       43.6780   -2.0070   48.2610 C.ar  208  PHE208     -0.0003
     88  CZ        45.0100   -2.0140   48.5080 C.ar  208  PHE208     -0.0000
     89  N         41.7510   -3.2010   51.9160 N.am  209  ASP209     -0.1960
     90  CA        40.8440   -2.0560   52.0810 C.3   209  ASP209      0.1840
     91  C         40.9660   -1.1310   50.8620 C.2   209  ASP209      0.2622
     92  O         42.0030   -0.4290   50.6760 O.2   209  ASP209     -0.2715
     93  CB        41.1520   -1.3060   53.3670 C.3   209  ASP209      0.1450
     94  CG        40.1510   -0.1030   53.5870 C.2   209  ASP209      0.3671
     95  OD1       39.3840    0.3270   52.6650 O.co2 209  ASP209     -0.2456
     96  OD2       40.1470    0.4580   54.6640 O.co2 209  ASP209     -0.2456
     97  N         39.9010   -1.0230   50.0570 N.am  210  LEU210     -0.1963
     98  CA        39.9310   -0.1480   48.8760 C.3   210  LEU210      0.1728
     99  C         39.9920    1.3800   49.1080 C.2   210  LEU210      0.2616
    100  O         40.1090    2.1890   48.1610 O.2   210  LEU210     -0.2715
    101  CB        38.6690   -0.4260   48.0010 C.3   210  LEU210      0.0311
    102  CG        38.8470   -1.7920   47.2690 C.3   210  LEU210      0.0022
    103  CD1       37.4250   -2.2340   46.7800 C.3   210  LEU210      0.0001
    104  CD2       39.8480   -1.9560   46.1690 C.3   210  LEU210      0.0001
    105  N         39.9770    1.8290   50.3290 N.am  211  ARG211     -0.1977
    106  CA        40.3830    3.2270   50.5780 C.3   211  ARG211      0.1597
    107  C         41.8390    3.4600   50.0880 C.2   211  ARG211      0.2287
    108  O         42.1670    4.5920   49.7930 O.2   211  ARG211     -0.2864
    109  CB        40.3290    3.5420   52.0500 C.3   211  ARG211      0.0334
    110  CG        38.9020    3.5560   52.6390 C.3   211  ARG211      0.0492
    111  CD        38.8980    3.7530   54.1240 C.3   211  ARG211      0.2205
    112  NE        37.5230    3.7700   54.6630 N.pl3 211  ARG211     -0.0865
    113  CZ        36.7720    2.7400   55.0230 C.cat 211  ARG211      0.5346
    114  NH1       37.1710    1.4360   54.8940 N.pl3 211  ARG211      0.1354
    115  NH2       35.6010    2.9770   55.5200 N.pl3 211  ARG211      0.1354
    116  N         30.4960   -4.5930   43.1710 N.3   228  ASP228     -0.1225
    117  CA        29.1070   -4.2490   43.4990 C.3   228  ASP228      0.1790
    118  C         29.1500   -3.2580   44.6590 C.2   228  ASP228      0.2440
    119  O         28.9910   -3.6410   45.8180 O.2   228  ASP228     -0.2733
    120  CB        28.2290   -5.4440   43.6940 C.3   228  ASP228      0.1423
    121  CG        26.7050   -5.0490   43.5170 C.2   228  ASP228      0.3668
    122  OD1       26.4090   -4.0300   42.8830 O.co2 228  ASP228     -0.2456
    123  OD2       25.8290   -5.7370   44.0050 O.co2 228  ASP228     -0.2456
    124  N         29.3860   -2.0210   44.3280 N.am  229  PRO229     -0.2718
    125  CA        29.9490   -1.1320   45.3430 C.3   229  PRO229      0.1520
    126  C         28.9540   -0.3960   46.2120 C.2   229  PRO229      0.2440
    127  O         27.7610   -0.3590   45.8910 O.2   229  PRO229     -0.2731
    128  CB        30.6800   -0.1040   44.4480 C.3   229  PRO229      0.0310
    129  CG        29.7730   -0.0070   43.2060 C.3   229  PRO229      0.0237
    130  CD        29.4400   -1.4250   42.9680 C.3   229  PRO229      0.0939
    131  N         29.4660    0.2970   47.2800 N.am  230  PRO230     -0.2727
    132  CA        28.6950    1.3020   47.9160 C.3   230  PRO230      0.1402
    133  C         28.4280    2.4350   46.9550 C.2   230  PRO230      0.2269
    134  O         29.1080    2.5500   45.9160 O.2   230  PRO230     -0.2865
    135  CB        29.5440    1.7520   49.1160 C.3   230  PRO230      0.0296
    136  CG        30.6150    0.7510   49.2350 C.3   230  PRO230      0.0237
    137  CD        30.8620    0.2670   47.7850 C.3   230  PRO230      0.0939
    138  N         35.9790    1.6080   44.0920 N.3   239  PHE239     -0.1241
    139  CA        35.6180    0.3040   43.6800 C.3   239  PHE239      0.1605
    140  C         35.6570    0.2510   42.1490 C.2   239  PHE239      0.2264
    141  O         36.3710   -0.6050   41.5290 O.2   239  PHE239     -0.2867
    142  CB        34.2130   -0.1660   44.1680 C.3   239  PHE239      0.0534
    143  CG        34.1520   -0.5090   45.6530 C.ar  239  PHE239     -0.0203
    144  CD1       34.3790    0.4260   46.6590 C.ar  239  PHE239     -0.0042
    145  CD2       33.8230   -1.7610   46.0270 C.ar  239  PHE239     -0.0042
    146  CE1       34.2560    0.0390   47.9640 C.ar  239  PHE239     -0.0003
    147  CE2       33.6830   -2.1430   47.3190 C.ar  239  PHE239     -0.0003
    148  CZ        33.9380   -1.2500   48.3200 C.ar  239  PHE239     -0.0000
    149  N         32.6820    6.4790   53.5060 N.3   345  LEU345     -0.1231
    150  CA        32.7140    5.6690   52.2950 C.3   345  LEU345      0.1693
    151  C         31.3490    5.1030   51.9070 C.2   345  LEU345      0.2592
    152  O         31.0890    4.8630   50.7410 O.2   345  LEU345     -0.2718
    153  CB        33.6440    4.4620   52.5200 C.3   345  LEU345      0.0284
    154  CG        33.9170    3.5200   51.3390 C.3   345  LEU345      0.0019
    155  CD1       34.6660    4.2570   50.2640 C.3   345  LEU345      0.0001
    156  CD2       34.7700    2.3960   51.8970 C.3   345  LEU345      0.0001
    157  N         30.5620    4.7190   52.9040 N.am  346  TYR346     -0.1976
    158  CA        29.2730    4.1000   52.7040 C.3   346  TYR346      0.1639
    159  C         28.1310    5.0900   52.8130 C.2   346  TYR346      0.2290
    160  O         27.0500    4.8450   52.2800 O.2   346  TYR346     -0.2864
    161  CB        29.0480    3.0470   53.7600 C.3   346  TYR346      0.0560
    162  CG        30.1880    2.0960   53.8680 C.ar  346  TYR346     -0.0198
    163  CD1       30.4740    1.2420   52.8470 C.ar  346  TYR346     -0.0009
    164  CD2       30.9860    2.0440   55.0350 C.ar  346  TYR346     -0.0009
    165  CE1       31.6070    0.3910   52.8980 C.ar  346  TYR346      0.0417
    166  CE2       32.0500    1.1470   55.1590 C.ar  346  TYR346      0.0417
    167  CZ        32.3250    0.2780   54.0850 C.ar  346  TYR346      0.1957
    168  OH        33.3990   -0.6170   54.0720 O.3   346  TYR346     -0.2866
@<TRIPOS>BOND
     1   141   140    2
     2   140   139    1
     3   122   121   ar
     4   130   129    1
     5   130   124    1
     6   116   117    1
     7   129   128    1
     8   117   120    1
     9   117   118    1
    10   121   120    1
    11   121   123   ar
    12   139   138    1
    13   139   142    1
    14   142   143    1
    15   124   118   am
    16   124   125    1
    17   128   125    1
    18   118   119    2
    19    37    36    2
    20   125   126    1
    21   143   145   ar
    22   143   144   ar
    23    53    51    1
    24    34    35    1
    25   127   126    2
    26   134   133    2
    27    46    47    1
    28   145   147   ar
    29   104   102    1
    30   126   131   am
    31    51    50    1
    32    51    52    1
    33    36    35    1
    34   144   146   ar
    35   103   102    1
    36   133   132    1
    37    50    47    1
    38    47    48    1
    39   102   101    1
    40   131   137    1
    41   131   132    1
    42   147   148   ar
    43    49    48    2
    44   137   136    1
    45   132   135    1
    46    48    54   am
    47   146   148   ar
    48   101    98    1
    49   100    99    2
    50    87    88   ar
    51    87    85   ar
    52    44    43   ar
    53    88    86   ar
    54    40    41    2
    55    40    39    1
    56    38    39    1
    57    85    83   ar
    58    98    99    1
    59    98    97    1
    60    32    31    2
    61    86    84   ar
    62    99   105   am
    63   135   136    1
    64    54    55    1
    65    83    84   ar
    66    83    82    1
    67    39    42    1
    68    43    42    1
    69    43    45   ar
    70    82    79    1
    71   108   107    2
    72    61    59   ar
    73    31    30    1
    74    97    91   am
    75   107   106    1
    76    55    58    1
    77    55    56    1
    78   155   154    1
    79   105   106    1
    80    58    59    1
    81   106   109    1
    82    92    91    2
    83   152   151    2
    84    59    60   ar
    85    91    90    1
    86    19    17   ar
    87    33    30    1
    88    79    80    1
    89    79    78    1
    90    30    29    1
    91    73    72    2
    92   154   156    1
    93   154   153    1
    94    56    57    2
    95    56    62   am
    96    81    80    2
    97    80    89   am
    98    29    22   am
    99    15    14    2
   100    77    75    1
   101   151   150    1
   102   151   157   am
   103    89    90    1
   104    74    75    1
   105    74    71    1
   106    76    75    1
   107    62    63    1
   108   109   110    1
   109    72    71    1
   110    90    93    1
   111    17    18   ar
   112    17    16    1
   113   160   159    2
   114   150   153    1
   115   150   149    1
   116   110   111    1
   117    95    94   ar
   118    22    21    1
   119    22    23    2
   120   158   159    1
   121   158   157    1
   122   158   161    1
   123    71    70    1
   124   163   165   ar
   125   163   162   ar
   126    21    24    1
   127    21    20    1
   128   165   167   ar
   129    16    13    1
   130    14    20   am
   131    14    13    1
   132     4     3    2
   133    25    24    1
   134    25    26    1
   135    63    66    1
   136    63    64    1
   137    93    94    1
   138    94    96   ar
   139    66    68    1
   140    66    67    1
   141   161   162    1
   142   162   164   ar
   143    13    12    1
   144   168   167    1
   145   167   166   ar
   146   111   112    1
   147    26    28   am
   148    26    27    2
   149     3    12   am
   150     3     2    1
   151    64    65    2
   152   112   113    2
   153    67    69    1
   154   114   113    1
   155   113   115    1
   156   164   166   ar
   157     5     2    1
   158     5     6    1
   159     2     1    1
   160     6     7   ar
   161     6     8   ar
   162     7     9   ar
   163     8    10   ar
   164     9    11   ar
   165    10    11   ar
