@<TRIPOS>MOLECULE
tmp/5xnhB00.pdb
 152 148 0 0 0
SMALL
GASTEIGER

@<TRIPOS>ATOM
      1  N         -7.6340  -17.7640   -8.9100 N.3   128  ASP128     -0.1225
      2  CA        -8.0100  -16.3600   -8.6670 C.3   128  ASP128      0.1805
      3  C         -9.2520  -15.9420   -9.5000 C.2   128  ASP128      0.2598
      4  O         -9.3290  -14.8500  -10.0290 O.2   128  ASP128     -0.2718
      5  CB        -6.7680  -15.4700   -8.9460 C.3   128  ASP128      0.1424
      6  CG        -7.0190  -13.9900   -8.7010 C.2   128  ASP128      0.3668
      7  OD1       -7.7100  -13.6400   -7.7260 O.co2 128  ASP128     -0.2456
      8  OD2       -6.5460  -13.1670   -9.5320 O.co2 128  ASP128     -0.2456
      9  N        -10.2230  -16.8310   -9.6070 N.am  129  GLN129     -0.1965
     10  CA       -11.3010  -16.6690  -10.5770 C.3   129  GLN129      0.1733
     11  C        -12.5130  -15.8890  -10.0870 C.2   129  GLN129      0.2616
     12  O        -12.9050  -16.0000   -8.9190 O.2   129  GLN129     -0.2715
     13  CB       -11.7970  -18.0350  -11.0410 C.3   129  GLN129      0.0408
     14  CG       -10.9780  -18.6230  -12.1510 C.3   129  GLN129      0.0908
     15  CD       -11.5130  -19.9680  -12.5900 C.2   129  GLN129      0.2608
     16  OE1      -12.4490  -20.5100  -11.9710 O.2   129  GLN129     -0.2717
     17  NE2      -10.9300  -20.5190  -13.6460 N.am  129  GLN129     -0.0878
     18  N        -13.1350  -15.1390  -11.0180 N.am  130  ALA130     -0.1977
     19  CA       -14.4550  -14.5800  -10.8200 C.3   130  ALA130      0.1597
     20  C        -14.9480  -14.0660  -12.1510 C.2   130  ALA130      0.2287
     21  O        -14.1750  -13.5480  -12.9530 O.2   130  ALA130     -0.2864
     22  CB       -14.4130  -13.4330   -9.8360 C.3   130  ALA130      0.0319
     23  N        -12.3350  -16.7930  -17.8660 N.3   161  ASP161     -0.1239
     24  CA       -13.2640  -16.7780  -16.7300 C.3   161  ASP161      0.1674
     25  C        -14.6700  -16.3510  -17.1450 C.2   161  ASP161      0.2266
     26  O        -15.6660  -16.9430  -16.7600 O.2   161  ASP161     -0.2867
     27  CB       -12.8160  -15.6380  -15.7680 C.3   161  ASP161      0.1410
     28  CG       -11.8870  -16.0770  -14.7190 C.2   161  ASP161      0.3668
     29  OD1      -10.9060  -16.7990  -15.0210 O.co2 161  ASP161     -0.2456
     30  OD2      -12.1220  -15.6460  -13.5680 O.co2 161  ASP161     -0.2456
     31  N         -7.9240  -10.1650  -18.8230 N.3   224  ASP224     -0.1225
     32  CA        -8.2770   -9.5520  -17.5300 C.3   224  ASP224      0.1790
     33  C         -7.2590  -10.0370  -16.5120 C.2   224  ASP224      0.2440
     34  O         -7.4540  -11.0740  -15.9160 O.2   224  ASP224     -0.2733
     35  CB        -9.7250   -9.8990  -17.1280 C.3   224  ASP224      0.1423
     36  CG       -10.3910   -8.7870  -16.2950 C.2   224  ASP224      0.3668
     37  OD1      -11.5140   -8.9950  -15.7630 O.co2 224  ASP224     -0.2456
     38  OD2       -9.7790   -7.6830  -16.1750 O.co2 224  ASP224     -0.2456
     39  N         -6.1240   -9.3620  -16.4030 N.am  225  PRO225     -0.2718
     40  CA        -4.9960   -9.9690  -15.7110 C.3   225  PRO225      0.1520
     41  C         -5.0700   -9.9280  -14.1920 C.2   225  PRO225      0.2440
     42  O         -5.8240   -9.1480  -13.6060 O.2   225  PRO225     -0.2731
     43  CB        -3.8000   -9.1280  -16.1620 C.3   225  PRO225      0.0310
     44  CG        -4.3940   -7.8170  -16.5560 C.3   225  PRO225      0.0237
     45  CD        -5.7120   -8.1830  -17.1660 C.3   225  PRO225      0.0939
     46  N         -4.2820  -10.7960  -13.5600 N.am  226  PRO226     -0.2716
     47  CA        -4.0970  -10.6170  -12.1490 C.3   226  PRO226      0.1536
     48  C         -3.5180   -9.2610  -11.8720 C.2   226  PRO226      0.2598
     49  O         -2.8590   -8.6820  -12.7220 O.2   226  PRO226     -0.2715
     50  CB        -3.1180  -11.7480  -11.7840 C.3   226  PRO226      0.0310
     51  CG        -3.4710  -12.8320  -12.7610 C.3   226  PRO226      0.0237
     52  CD        -3.6920  -12.0570  -14.0440 C.3   226  PRO226      0.0939
     53  N         -3.7480   -8.7750  -10.6700 N.am  227  GLU227     -0.1978
     54  CA        -3.5240   -7.3900  -10.3680 C.3   227  GLU227      0.1602
     55  C         -2.1510   -7.2210   -9.7640 C.2   227  GLU227      0.2287
     56  O         -2.0460   -6.8650   -8.5980 O.2   227  GLU227     -0.2864
     57  CB        -4.6370   -6.9090   -9.4270 C.3   227  GLU227      0.0415
     58  CG        -6.0200   -6.7980  -10.0890 C.3   227  GLU227      0.1163
     59  CD        -6.2910   -5.3990  -10.7030 C.2   227  GLU227      0.3649
     60  OE1       -6.0560   -4.3630  -10.0100 O.co2 227  GLU227     -0.2457
     61  OE2       -6.7810   -5.3280  -11.8570 O.co2 227  GLU227     -0.2457
     62  N         -8.9660   -5.2030  -17.9720 N.3   253  GLY253     -0.1210
     63  CA        -9.5640   -4.5740  -16.8080 C.3   253  GLY253      0.1956
     64  C         -8.4880   -4.2990  -15.7600 C.2   253  GLY253      0.2612
     65  O         -7.6090   -5.1350  -15.5360 O.2   253  GLY253     -0.2717
     66  N         -8.5380   -3.1280  -15.1460 N.am  254  ILE254     -0.1965
     67  CA        -7.6610   -2.8400  -14.0310 C.3   254  ILE254      0.1727
     68  C         -8.5350   -2.2950  -12.8890 C.2   254  ILE254      0.2616
     69  O         -9.2990   -1.3850  -13.1080 O.2   254  ILE254     -0.2715
     70  CB        -6.5820   -1.7580  -14.3890 C.3   254  ILE254      0.0290
     71  CG1       -5.6330   -2.1700  -15.5300 C.3   254  ILE254      0.0022
     72  CG2       -5.7800   -1.3680  -13.1510 C.3   254  ILE254      0.0023
     73  CD1       -4.8260   -3.4140  -15.2910 C.3   254  ILE254      0.0001
     74  N         -8.3360   -2.7540  -11.6540 N.am  255  THR255     -0.1951
     75  CA        -9.1900   -2.3650  -10.5390 C.3   255  THR255      0.1897
     76  C         -8.4990   -1.2820   -9.7320 C.2   255  THR255      0.2313
     77  O         -7.2720   -1.1940   -9.7300 O.2   255  THR255     -0.2863
     78  CB        -9.5170   -3.5330   -9.5500 C.3   255  THR255      0.1794
     79  OG1       -8.4160   -3.7320   -8.6450 O.3   255  THR255     -0.2208
     80  CG2       -9.7360   -4.8210  -10.2890 C.3   255  THR255      0.0378
     81  N         -7.6340   -3.6060   -5.9110 N.3   258  GLU258     -0.1245
     82  CA        -6.4010   -4.3180   -5.5680 C.3   258  GLU258      0.1567
     83  C         -5.1750   -3.6040   -6.0070 C.2   258  GLU258      0.2260
     84  O         -4.0990   -4.0690   -5.7480 O.2   258  GLU258     -0.2867
     85  CB        -6.3890   -5.7360   -6.1440 C.3   258  GLU258      0.0388
     86  CG        -7.6370   -6.5100   -5.7450 C.3   258  GLU258      0.1160
     87  CD        -7.5130   -8.0060   -5.8270 C.2   258  GLU258      0.3649
     88  OE1       -8.0200   -8.5620   -6.8510 O.co2 258  GLU258     -0.2457
     89  OE2       -6.9560   -8.6220   -4.8570 O.co2 258  GLU258     -0.2457
     90  N        -18.0590   -7.6640  -11.3240 N.3   289  TYR289     -0.1241
     91  CA       -17.7890   -9.0760  -11.0220 C.3   289  TYR289      0.1605
     92  C        -18.8710   -9.6540  -10.0950 C.2   289  TYR289      0.2264
     93  O        -19.2250   -9.0590   -9.0890 O.2   289  TYR289     -0.2867
     94  CB       -16.4020   -9.3030  -10.4120 C.3   289  TYR289      0.0534
     95  CG       -15.3190   -8.8990  -11.3690 C.ar  289  TYR289     -0.0201
     96  CD1      -15.0430   -7.5490  -11.6030 C.ar  289  TYR289     -0.0009
     97  CD2      -14.5800   -9.8490  -12.0900 C.ar  289  TYR289     -0.0009
     98  CE1      -14.0790   -7.1720  -12.4990 C.ar  289  TYR289      0.0417
     99  CE2      -13.6020   -9.4520  -13.0060 C.ar  289  TYR289      0.0417
    100  CZ       -13.3710   -8.1110  -13.2060 C.ar  289  TYR289      0.1957
    101  OH       -12.4070   -7.6900  -14.1030 O.3   289  TYR289     -0.2866
    102  N        -17.9620  -14.1310   -5.6390 N.3   292  TRP292     -0.1241
    103  CA       -17.4260  -15.4770   -5.7940 C.3   292  TRP292      0.1605
    104  C        -17.6010  -16.2560   -4.4930 C.2   292  TRP292      0.2264
    105  O        -17.6720  -15.6700   -3.4230 O.2   292  TRP292     -0.2867
    106  CB       -15.9370  -15.4480   -6.1670 C.3   292  TRP292      0.0550
    107  CG       -15.1200  -14.5100   -5.3690 C.ar  292  TRP292      0.0003
    108  CD1      -14.3710  -14.8130   -4.2990 C.ar  292  TRP292      0.0946
    109  CD2      -14.9140  -13.1210   -5.6360 C.ar  292  TRP292      0.0152
    110  NE1      -13.7130  -13.6830   -3.8230 N.ar  292  TRP292     -0.2442
    111  CE2      -14.0530  -12.6250   -4.6220 C.ar  292  TRP292      0.0810
    112  CE3      -15.4270  -12.2410   -6.5870 C.ar  292  TRP292      0.0012
    113  CZ2      -13.6620  -11.3050   -4.5540 C.ar  292  TRP292      0.0191
    114  CZ3      -15.0470  -10.9170   -6.5350 C.ar  292  TRP292      0.0001
    115  CH2      -14.1640  -10.4610   -5.5140 C.ar  292  TRP292      0.0015
    116  N        -15.6590  -18.5770   -2.8550 N.3   294  TYR294     -0.1241
    117  CA       -14.5730  -18.9470   -1.9410 C.3   294  TYR294      0.1605
    118  C        -14.0720  -17.7780   -1.0620 C.2   294  TYR294      0.2264
    119  O        -12.9370  -17.8030   -0.5540 O.2   294  TYR294     -0.2867
    120  CB       -13.4470  -19.5370   -2.7450 C.3   294  TYR294      0.0534
    121  CG       -12.9490  -18.6210   -3.8290 C.ar  294  TYR294     -0.0201
    122  CD1      -11.8860  -17.7420   -3.5720 C.ar  294  TYR294     -0.0009
    123  CD2      -13.4970  -18.6490   -5.1300 C.ar  294  TYR294     -0.0009
    124  CE1      -11.3880  -16.8980   -4.5580 C.ar  294  TYR294      0.0417
    125  CE2      -12.9970  -17.8030   -6.1280 C.ar  294  TYR294      0.0417
    126  CZ       -11.9460  -16.9160   -5.8250 C.ar  294  TYR294      0.1957
    127  OH       -11.3970  -16.0290   -6.7540 O.3   294  TYR294     -0.2866
    128  N        -17.1500   -5.5130   -6.2110 N.3   315  TYR315     -0.1241
    129  CA       -15.8830   -5.6180   -6.8990 C.3   315  TYR315      0.1605
    130  C        -16.0680   -5.3120   -8.3970 C.2   315  TYR315      0.2264
    131  O        -16.7380   -6.0500   -9.1520 O.2   315  TYR315     -0.2867
    132  CB       -15.2280   -6.9800   -6.6530 C.3   315  TYR315      0.0534
    133  CG       -13.7700   -7.1620   -7.1630 C.ar  315  TYR315     -0.0201
    134  CD1      -12.7000   -7.2160   -6.2940 C.ar  315  TYR315     -0.0009
    135  CD2      -13.4880   -7.3440   -8.5080 C.ar  315  TYR315     -0.0009
    136  CE1      -11.3930   -7.4300   -6.7350 C.ar  315  TYR315      0.0417
    137  CE2      -12.1870   -7.5550   -8.9630 C.ar  315  TYR315      0.0417
    138  CZ       -11.1320   -7.5930   -8.0660 C.ar  315  TYR315      0.1957
    139  OH        -9.8220   -7.7980   -8.5090 O.3   315  TYR315     -0.2866
    140  N        -13.9780   -3.3040  -12.0460 N.3   317  SER317     -0.1217
    141  CA       -12.7090   -2.8970  -12.6370 C.3   317  SER317      0.1889
    142  C        -13.0270   -1.8690  -13.7090 C.2   317  SER317      0.2288
    143  O        -14.1660   -1.8180  -14.2410 O.2   317  SER317     -0.2866
    144  CB       -11.8880   -4.0840  -13.1620 C.3   317  SER317      0.2089
    145  OG       -12.3760   -4.6040  -14.3740 O.3   317  SER317     -0.2183
    146  N         -7.6770  -10.7690   -2.8520 N.3   337  THR337     -0.1218
    147  CA        -8.8430  -11.6360   -3.1970 C.3   337  THR337      0.1862
    148  C         -8.5080  -13.1200   -3.5580 C.2   337  THR337      0.2287
    149  O         -9.3180  -13.7950   -4.2190 O.2   337  THR337     -0.2866
    150  CB        -9.7400  -11.0130   -4.2890 C.3   337  THR337      0.1770
    151  OG1       -9.0870  -11.1090   -5.5630 O.3   337  THR337     -0.2211
    152  CG2      -10.0940   -9.5580   -3.9370 C.3   337  THR337      0.0375
@<TRIPOS>BOND
     1    31    32    1
     2    62    63    1
     3    23    24    1
     4    32    35    1
     5    32    33    1
     6    45    44    1
     7    45    39    1
     8    25    26    2
     9    25    24    1
    10    35    36    1
    11    63    64    1
    12    24    27    1
    13    44    43    1
    14    33    39   am
    15    33    34    2
    16    39    40    1
    17    36    38   ar
    18    36    37   ar
    19    43    40    1
    20    27    28    1
    21    64    65    2
    22    64    66   am
    23    40    41    1
    24    71    73    1
    25    71    70    1
    26    66    67    1
    27    29    28   ar
    28    28    30   ar
    29    70    67    1
    30    70    72    1
    31   145   144    1
    32   143   142    2
    33    41    42    2
    34    41    46   am
    35   101   100    1
    36    52    46    1
    37    52    51    1
    38    67    68    1
    39   142   141    1
    40    17    15   am
    41    46    47    1
    42   100    99   ar
    43   100    98   ar
    44   144   141    1
    45    69    68    2
    46    99    97   ar
    47    21    20    2
    48    68    74   am
    49    51    50    1
    50    49    48    2
    51   141   140    1
    52    15    14    1
    53    15    16    2
    54    98    96   ar
    55    20    19    1
    56    14    13    1
    57    47    48    1
    58    47    50    1
    59    97    95   ar
    60    48    53   am
    61    61    59   ar
    62    74    75    1
    63    96    95   ar
    64    95    94    1
    65    90    91    1
    66    13    10    1
    67    91    94    1
    68    91    92    1
    69    18    19    1
    70    18    11   am
    71    19    22    1
    72    59    58    1
    73    59    60   ar
    74    53    54    1
    75    10    11    1
    76    10     9    1
    77    75    76    1
    78    75    78    1
    79    54    55    1
    80    54    57    1
    81    80    78    1
    82    92    93    2
    83    58    57    1
    84    11    12    2
    85     4     3    2
    86    55    56    2
    87    76    77    2
    88     9     3   am
    89    78    79    1
    90     8     6   ar
    91     3     2    1
    92   131   130    2
    93   137   135   ar
    94   137   138   ar
    95     5     6    1
    96     5     2    1
    97     1     2    1
    98     6     7   ar
    99   139   138    1
   100   135   133   ar
   101   130   129    1
   102   138   136   ar
   103   133   132    1
   104   133   134   ar
   105   129   132    1
   106   129   128    1
   107    88    87   ar
   108   127   126    1
   109   136   134   ar
   110   112   114   ar
   111   112   109   ar
   112   114   115   ar
   113   106   103    1
   114   106   107    1
   115    85    86    1
   116    85    82    1
   117   125   126   ar
   118   125   123   ar
   119    83    84    2
   120    83    82    1
   121    81    82    1
   122    87    86    1
   123    87    89   ar
   124   126   124   ar
   125   103   102    1
   126   103   104    1
   127   109   107   ar
   128   109   111   ar
   129   151   150    1
   130   115   113   ar
   131   107   108   ar
   132   123   121   ar
   133   111   113   ar
   134   111   110   ar
   135   124   122   ar
   136   104   105    2
   137   108   110   ar
   138   150   152    1
   139   150   147    1
   140   149   148    2
   141   121   122   ar
   142   121   120    1
   143   148   147    1
   144   147   146    1
   145   116   117    1
   146   120   117    1
   147   117   118    1
   148   118   119    2
