@<TRIPOS>MOLECULE
tmp/5xniA00.pdb
 113 106 0 0 0
SMALL
GASTEIGER

@<TRIPOS>ATOM
      1  N        -56.4490    9.1820   14.0520 N.3    10  MET10      -0.1245
      2  CA       -56.8500   10.4460   14.6660 C.3    10  MET10       0.1570
      3  C        -58.2990   10.6040   14.2590 C.2    10  MET10       0.2261
      4  O        -58.6800   11.4400   13.4360 O.2    10  MET10      -0.2867
      5  CB       -55.9240   11.5700   14.2190 C.3    10  MET10       0.0387
      6  CG       -54.5180   11.3420   14.7700 C.3    10  MET10       0.0595
      7  SD       -53.1570   12.1310   13.9170 S.3    10  MET10      -0.1393
      8  CE       -53.3100   11.4010   12.2890 C.3    10  MET10       0.0692
      9  N        -55.3100   16.0890   19.5190 N.3    49  ARG49      -0.1231
     10  CA       -54.7760   17.1330   18.6400 C.3    49  ARG49       0.1694
     11  C        -55.1080   18.5220   19.1920 C.2    49  ARG49       0.2592
     12  O        -54.2150   19.3550   19.3540 O.2    49  ARG49      -0.2718
     13  CB       -55.3100   16.9720   17.2060 C.3    49  ARG49       0.0321
     14  CG       -54.6680   15.8740   16.3480 C.3    49  ARG49       0.0489
     15  CD       -54.6320   14.4610   16.9480 C.3    49  ARG49       0.2205
     16  NE       -55.9510   13.8410   17.1510 N.pl3  49  ARG49      -0.0865
     17  CZ       -56.1690   12.6400   17.7060 C.cat  49  ARG49       0.5346
     18  NH1      -57.4130   12.1850   17.8360 N.pl3  49  ARG49       0.1354
     19  NH2      -55.1630   11.8830   18.1430 N.pl3  49  ARG49       0.1354
     20  N        -56.3890   18.7500   19.4870 N.am   50  THR50      -0.1953
     21  CA       -56.8600   19.9930   20.1220 C.3    50  THR50       0.1897
     22  C        -56.3130   20.1250   21.5540 C.2    50  THR50       0.2313
     23  O        -55.9060   21.2110   21.9650 O.2    50  THR50      -0.2863
     24  CB       -58.4120   20.0750   20.1420 C.3    50  THR50       0.1794
     25  OG1      -58.9260   19.9860   18.8050 O.3    50  THR50      -0.2208
     26  CG2      -58.9010   21.3800   20.7690 C.3    50  THR50       0.0378
     27  N        -56.5820   13.6710    9.6320 N.3    83  SER83      -0.1202
     28  CA       -57.0670   14.6630   10.5770 C.3    83  SER83       0.2020
     29  C        -56.7290   16.0670   10.0620 C.2    83  SER83       0.2619
     30  O        -55.5650   16.3660    9.7820 O.2    83  SER83      -0.2717
     31  CB       -56.4340   14.4150   11.9520 C.3    83  SER83       0.2103
     32  OG       -56.7490   15.4420   12.8780 O.3    83  SER83      -0.2182
     33  N        -57.7510   16.9070    9.9170 N.am   84  CYS84      -0.1955
     34  CA       -57.5520   18.3060    9.5630 C.3    84  CYS84       0.1843
     35  C        -56.7540   19.0540   10.6440 C.2    84  CYS84       0.2626
     36  O        -55.7110   19.6170   10.3300 O.2    84  CYS84      -0.2714
     37  CB       -58.8870   18.9880    9.2920 C.3    84  CYS84       0.0997
     38  SG       -59.7540   18.3450    7.8400 S.3    84  CYS84      -0.0797
     39  N        -57.1760   19.0120   11.9090 N.am   85  THR85      -0.1950
     40  CA       -56.4290   19.6940   12.9850 C.3    85  THR85       0.1897
     41  C        -54.9530   19.2710   13.0490 C.2    85  THR85       0.2313
     42  O        -54.0910   20.0610   13.4210 O.2    85  THR85      -0.2863
     43  CB       -57.0510   19.4630   14.3770 C.3    85  THR85       0.1794
     44  OG1      -58.4200   19.8740   14.3690 O.3    85  THR85      -0.2208
     45  CG2      -56.2970   20.2450   15.4360 C.3    85  THR85       0.0378
     46  N        -63.3000   21.2930   14.5770 N.3   124  SER124     -0.1217
     47  CA       -62.9580   21.3850   15.9940 C.3   124  SER124      0.1889
     48  C        -62.4160   22.7810   16.3200 C.2   124  SER124      0.2288
     49  O        -61.6760   23.3530   15.5230 O.2   124  SER124     -0.2866
     50  CB       -61.8950   20.3430   16.3350 C.3   124  SER124      0.2089
     51  OG       -60.7450   20.5500   15.5440 O.3   124  SER124     -0.2183
     52  N        -58.9020   23.3260   15.3080 N.3   127  THR127     -0.1218
     53  CA       -58.7510   23.6930   13.8880 C.3   127  THR127      0.1862
     54  C        -58.9980   25.1860   13.7190 C.2   127  THR127      0.2287
     55  O        -58.2330   25.8720   13.0440 O.2   127  THR127     -0.2866
     56  CB       -59.7620   22.9700   12.9570 C.3   127  THR127      0.1770
     57  OG1      -59.7920   21.5620   13.2160 O.3   127  THR127     -0.2211
     58  CG2      -59.4060   23.1950   11.4980 C.3   127  THR127      0.0375
     59  N        -68.5290   16.0200   17.4380 N.3   158  ILE158     -0.1231
     60  CA       -67.3980   15.2380   16.9550 C.3   158  ILE158      0.1692
     61  C        -66.9840   14.2180   18.0180 C.2   158  ILE158      0.2592
     62  O        -66.9720   13.0140   17.7560 O.2   158  ILE158     -0.2718
     63  CB       -66.2060   16.1460   16.5580 C.3   158  ILE158      0.0266
     64  CG1      -66.5700   17.0130   15.3400 C.3   158  ILE158      0.0019
     65  CG2      -64.9710   15.3130   16.2320 C.3   158  ILE158      0.0020
     66  CD1      -65.7210   18.2580   15.1960 C.3   158  ILE158      0.0001
     67  N        -66.6870   14.7040   19.2210 N.am  159  TYR159     -0.1976
     68  CA       -66.1650   13.8490   20.2930 C.3   159  TYR159      0.1639
     69  C        -67.2240   12.9590   20.9450 C.2   159  TYR159      0.2290
     70  O        -66.9730   11.7760   21.1700 O.2   159  TYR159     -0.2864
     71  CB       -65.4130   14.6830   21.3400 C.3   159  TYR159      0.0560
     72  CG       -64.0010   15.0310   20.9070 C.ar  159  TYR159     -0.0198
     73  CD1      -63.7650   15.9900   19.9110 C.ar  159  TYR159     -0.0009
     74  CD2      -62.8950   14.3930   21.4790 C.ar  159  TYR159     -0.0009
     75  CE1      -62.4670   16.3050   19.5090 C.ar  159  TYR159      0.0417
     76  CE2      -61.5980   14.7030   21.0840 C.ar  159  TYR159      0.0417
     77  CZ       -61.3880   15.6550   20.1040 C.ar  159  TYR159      0.1957
     78  OH       -60.1050   15.9480   19.7180 O.3   159  TYR159     -0.2866
     79  N        -66.8750   10.2940   16.8610 N.3   163  LYS163     -0.1245
     80  CA       -65.6910    9.5110   17.2810 C.3   163  LYS163      0.1561
     81  C        -66.0320    8.2530   18.0840 C.2   163  LYS163      0.2260
     82  O        -65.2710    7.2850   18.0820 O.2   163  LYS163     -0.2867
     83  CB       -64.7450   10.3680   18.1250 C.3   163  LYS163      0.0271
     84  CG       -64.0880   11.4980   17.3650 C.3   163  LYS163      0.0035
     85  CD       -63.1420   12.3010   18.2480 C.3   163  LYS163      0.0206
     86  CE       -62.1720   13.1490   17.4360 C.3   163  LYS163      0.1093
     87  NZ       -61.2170   12.4140   16.5530 N.3   163  LYS163     -0.1314
     88  N        -64.3220   20.1270    7.9400 N.3   190  GLY190     -0.1210
     89  CA       -63.1200   20.6640    8.5730 C.3   190  GLY190      0.1956
     90  C        -62.6490   19.8210    9.7460 C.2   190  GLY190      0.2613
     91  O        -61.5690   20.0580   10.2880 O.2   190  GLY190     -0.2717
     92  N        -63.3780   18.7290    9.9400 N.am  191  SER191     -0.1938
     93  CA       -63.1020   17.6980   10.9220 C.3   191  SER191      0.2055
     94  C        -63.3770   16.3940   10.2060 C.2   191  SER191      0.2644
     95  O        -64.5060   16.0330    9.9820 O.2   191  SER191     -0.2714
     96  CB       -64.0220   17.8080   12.0970 C.3   191  SER191      0.2130
     97  OG       -63.8540   16.6820   12.9140 O.3   191  SER191     -0.2179
     98  N        -62.3300   15.6690    9.8790 N.am  192  THR192     -0.1936
     99  CA       -62.4560   14.4430    9.0790 C.3   192  THR192      0.2028
    100  C        -63.6290   13.5810    9.5220 C.2   192  THR192      0.2642
    101  O        -64.2750   12.9680    8.6790 O.2   192  THR192     -0.2714
    102  CB       -61.1680   13.5900    9.0860 C.3   192  THR192      0.1808
    103  OG1      -60.6740   13.4710   10.4230 O.3   192  THR192     -0.2208
    104  CG2      -60.1030   14.2210    8.2130 C.3   192  THR192      0.0379
    105  N        -63.9270   13.5700   10.8220 N.am  193  GLU193     -0.1976
    106  CA       -65.1150   12.8840   11.3530 C.3   193  GLU193      0.1602
    107  C        -66.4190   13.1360   10.5780 C.2   193  GLU193      0.2287
    108  O        -67.2920   12.2720   10.5790 O.2   193  GLU193     -0.2864
    109  CB       -65.3310   13.2150   12.8390 C.3   193  GLU193      0.0415
    110  CG       -64.7150   12.2160   13.8160 C.3   193  GLU193      0.1163
    111  CD       -63.1950   12.2010   13.8200 C.2   193  GLU193      0.3649
    112  OE1      -62.6310   11.1360   14.1430 O.co2 193  GLU193     -0.2457
    113  OE2      -62.5650   13.2350   13.5100 O.co2 193  GLU193     -0.2457
@<TRIPOS>BOND
     1    38    37    1
     2    88    89    1
     3   104   102    1
     4    89    90    1
     5   101   100    2
     6    99   102    1
     7    99   100    1
     8    99    98    1
     9   102   103    1
    10    37    34    1
    11   100   105   am
    12    34    33    1
    13    34    35    1
    14    27    28    1
    15    90    92   am
    16    90    91    2
    17    30    29    2
    18    98    94   am
    19    33    29   am
    20    92    93    1
    21    95    94    2
    22    29    28    1
    23    94    93    1
    24    36    35    2
    25    28    31    1
    26   107   108    2
    27   107   106    1
    28    35    39   am
    29   105   106    1
    30    93    96    1
    31   106   109    1
    32    58    56    1
    33    39    40    1
    34    31    32    1
    35    96    97    1
    36     8     7    1
    37   109   110    1
    38    56    57    1
    39    56    53    1
    40    40    41    1
    41    40    43    1
    42    55    54    2
    43    41    42    2
    44     4     3    2
    45   113   111   ar
    46    54    53    1
    47   110   111    1
    48   111   112   ar
    49    53    52    1
    50     7     6    1
    51     1     2    1
    52     5     2    1
    53     5     6    1
    54     3     2    1
    55    44    43    1
    56    43    45    1
    57    46    47    1
    58    66    64    1
    59    64    63    1
    60    49    48    2
    61    51    50    1
    62    47    48    1
    63    47    50    1
    64    65    63    1
    65    14    15    1
    66    14    13    1
    67    87    86    1
    68    63    60    1
    69    79    80    1
    70    15    16    1
    71    60    59    1
    72    60    61    1
    73    16    17    2
    74    13    10    1
    75    80    81    1
    76    80    83    1
    77    84    83    1
    78    84    85    1
    79    86    85    1
    80    17    18    1
    81    17    19    1
    82    62    61    2
    83    61    67   am
    84    82    81    2
    85    10    11    1
    86    10     9    1
    87    25    24    1
    88    11    12    2
    89    11    20   am
    90    67    68    1
    91    20    21    1
    92    75    73   ar
    93    75    77   ar
    94    78    77    1
    95    73    72   ar
    96    77    76   ar
    97    21    24    1
    98    21    22    1
    99    24    26    1
   100    68    69    1
   101    68    71    1
   102    72    71    1
   103    72    74   ar
   104    69    70    2
   105    76    74   ar
   106    22    23    2
