@<TRIPOS>MOLECULE
tmp/5xnsA01.pdb
 102 98 0 0 0
SMALL
GASTEIGER

@<TRIPOS>ATOM
      1  N         16.0410   25.1190   23.8450 N.3    35  ASN35      -0.1240
      2  CA        17.3670   24.5930   24.1090 C.3    35  ASN35       0.1653
      3  C         17.4360   24.1710   25.5700 C.2    35  ASN35       0.2266
      4  O         16.9840   24.8900   26.4610 O.2    35  ASN35      -0.2867
      5  CB        18.4460   25.6270   23.7650 C.3    35  ASN35       0.1155
      6  CG        18.7120   25.7300   22.2350 C.2    35  ASN35       0.2627
      7  OD1       18.3920   24.8080   21.4450 O.2    35  ASN35      -0.2716
      8  ND2       19.2860   26.8560   21.8180 N.am   35  ASN35      -0.0877
      9  N         15.4620   17.7980   23.5530 N.3    39  LYS39      -0.1231
     10  CA        15.1850   17.4420   22.1630 C.3    39  LYS39       0.1693
     11  C         16.4320   16.9000   21.4640 C.2    39  LYS39       0.2592
     12  O         16.3370   15.9950   20.6280 O.2    39  LYS39      -0.2718
     13  CB        14.6230   18.6390   21.3940 C.3    39  LYS39       0.0285
     14  CG        15.5790   19.8150   21.1760 C.3    39  LYS39       0.0035
     15  CD        14.8650   20.9330   20.4100 C.3    39  LYS39       0.0206
     16  CE        15.8250   21.9560   19.8060 C.3    39  LYS39       0.1093
     17  NZ        16.5230   22.7550   20.8300 N.3    39  LYS39      -0.1314
     18  N         17.6110   17.4310   21.7840 N.am   40  SER40      -0.1952
     19  CA        18.8040   16.9460   21.0900 C.3    40  SER40       0.1924
     20  C         19.2490   15.5710   21.5770 C.2    40  SER40       0.2314
     21  O         19.9260   14.8430   20.8250 O.2    40  SER40      -0.2863
     22  CB        19.9370   17.9640   21.2220 C.3    40  SER40       0.2116
     23  OG        19.5670   19.1600   20.5290 O.3    40  SER40      -0.2180
     24  N         20.7060   17.8090   13.1590 N.3   326  ASP326     -0.1225
     25  CA        20.6110   18.7000   14.3060 C.3   326  ASP326      0.1805
     26  C         21.7370   19.7130   14.1780 C.2   326  ASP326      0.2598
     27  O         22.8440   19.3570   13.7740 O.2   326  ASP326     -0.2718
     28  CB        20.7130   17.9370   15.6410 C.3   326  ASP326      0.1424
     29  CG        20.2740   18.7850   16.8590 C.2   326  ASP326      0.3668
     30  OD1       19.9750   19.9940   16.7050 O.co2 326  ASP326     -0.2456
     31  OD2       20.2320   18.2370   17.9840 O.co2 326  ASP326     -0.2456
     32  N         21.4470   20.9700   14.5040 N.am  327  GLU327     -0.1965
     33  CA        22.3770   22.0980   14.4430 C.3   327  GLU327      0.1733
     34  C         22.7530   22.5000   13.0180 C.2   327  GLU327      0.2616
     35  O         23.6570   23.3350   12.8440 O.2   327  GLU327     -0.2715
     36  CB        23.6580   21.8480   15.2470 C.3   327  GLU327      0.0429
     37  CG        23.4300   21.6540   16.7720 C.3   327  GLU327      0.1163
     38  CD        22.6370   22.7940   17.4450 C.2   327  GLU327      0.3649
     39  OE1       22.7060   23.9590   16.9820 O.co2 327  GLU327     -0.2457
     40  OE2       21.9360   22.5170   18.4500 O.co2 327  GLU327     -0.2457
     41  N         22.0690   21.9800   11.9900 N.am  328  ILE328     -0.1963
     42  CA        22.4520   22.3590   10.6360 C.3   328  ILE328      0.1727
     43  C         22.0850   23.8020   10.3260 C.2   328  ILE328      0.2616
     44  O         22.5720   24.3490    9.3280 O.2   328  ILE328     -0.2715
     45  CB        21.8300   21.4210    9.5850 C.3   328  ILE328      0.0290
     46  CG1       20.3090   21.5450    9.5920 C.3   328  ILE328      0.0022
     47  CG2       22.2690   19.9780    9.8420 C.3   328  ILE328      0.0023
     48  CD1       19.6180   20.7390    8.5180 C.3   328  ILE328      0.0001
     49  N         21.2510   24.4440   11.1570 N.am  329  ASP329     -0.1957
     50  CA        20.7720   25.8040   10.9030 C.3   329  ASP329      0.1840
     51  C         21.5010   26.8570   11.7290 C.2   329  ASP329      0.2621
     52  O         21.1930   28.0500   11.6100 O.2   329  ASP329     -0.2715
     53  CB        19.2610   25.8970   11.1770 C.3   329  ASP329      0.1450
     54  CG        18.4440   24.9500   10.3120 C.2   329  ASP329      0.3671
     55  OD1       18.6140   24.9820    9.0680 O.co2 329  ASP329     -0.2456
     56  OD2       17.6220   24.1720   10.8710 O.co2 329  ASP329     -0.2456
     57  N         22.4560   26.4380   12.5610 N.am  330  ALA330     -0.1977
     58  CA        23.0660   27.3250   13.5470 C.3   330  ALA330      0.1597
     59  C         23.6850   28.5650   12.9180 C.2   330  ALA330      0.2287
     60  O         23.7920   29.5950   13.5770 O.2   330  ALA330     -0.2864
     61  CB        24.1360   26.5680   14.3290 C.3   330  ALA330      0.0319
     62  N         14.4540   16.1060   11.7890 N.3   355  VAL355     -0.1231
     63  CA        15.1820   17.3510   11.9800 C.3   355  VAL355      0.1692
     64  C         14.8580   17.8840   13.3700 C.2   355  VAL355      0.2592
     65  O         13.6840   18.1240   13.6970 O.2   355  VAL355     -0.2718
     66  CB        14.8490   18.3880   10.8940 C.3   355  VAL355      0.0266
     67  CG1       15.6820   19.6320   11.0910 C.3   355  VAL355      0.0020
     68  CG2       15.1040   17.7920    9.4780 C.3   355  VAL355      0.0020
     69  N         15.8960   18.0510   14.1820 N.am  356  ILE356     -0.1966
     70  CA        15.7990   18.6410   15.5160 C.3   356  ILE356      0.1727
     71  C         16.0500   20.1360   15.3740 C.2   356  ILE356      0.2617
     72  O         17.1050   20.5430   14.8700 O.2   356  ILE356     -0.2715
     73  CB        16.8120   17.9930   16.4770 C.3   356  ILE356      0.0290
     74  CG1       16.5730   16.4810   16.5120 C.3   356  ILE356      0.0022
     75  CG2       16.6800   18.5970   17.8770 C.3   356  ILE356      0.0023
     76  CD1       17.6940   15.6430   17.1100 C.3   356  ILE356      0.0001
     77  N         15.0860   20.9600   15.7970 N.am  357  THR357     -0.1937
     78  CA        15.1660   22.3810   15.4690 C.3   357  THR357      0.2028
     79  C         14.2610   23.1610   16.4050 C.2   357  THR357      0.2642
     80  O         13.3480   22.5990   17.0140 O.2   357  THR357     -0.2714
     81  CB        14.7840   22.6410   14.0010 C.3   357  THR357      0.1808
     82  OG1       15.0280   24.0130   13.6530 O.3   357  THR357     -0.2208
     83  CG2       13.3160   22.3260   13.7570 C.3   357  THR357      0.0379
     84  N         14.5510   24.4600   16.5400 N.am  358  LEU358     -0.1963
     85  CA        13.5900   25.4220   17.0750 C.3   358  LEU358      0.1728
     86  C         13.3440   26.5660   16.0990 C.2   358  LEU358      0.2616
     87  O         12.8840   27.6370   16.5100 O.2   358  LEU358     -0.2715
     88  CB        14.0260   25.9770   18.4380 C.3   358  LEU358      0.0311
     89  CG        15.4940   26.3500   18.6730 C.3   358  LEU358      0.0022
     90  CD1       15.9600   27.4640   17.7260 C.3   358  LEU358      0.0001
     91  CD2       15.7440   26.7390   20.1340 C.3   358  LEU358      0.0001
     92  N         13.6570   26.3730   14.8190 N.am  359  ARG359     -0.1977
     93  CA        13.4500   27.4080   13.8160 C.3   359  ARG359      0.1597
     94  C         12.0960   27.1670   13.1620 C.2   359  ARG359      0.2287
     95  O         11.8750   26.1080   12.5590 O.2   359  ARG359     -0.2864
     96  CB        14.5690   27.3750   12.7760 C.3   359  ARG359      0.0334
     97  CG        15.9810   27.4200   13.3530 C.3   359  ARG359      0.0492
     98  CD        16.3290   28.7840   13.9370 C.3   359  ARG359      0.2205
     99  NE        16.4510   29.8150   12.9130 N.pl3 359  ARG359     -0.0865
    100  CZ        17.5390   30.0160   12.1750 C.cat 359  ARG359      0.5346
    101  NH1       18.6050   29.2310   12.3300 N.pl3 359  ARG359      0.1354
    102  NH2       17.5500   30.9810   11.2540 N.pl3 359  ARG359      0.1354
@<TRIPOS>BOND
     1    48    46    1
     2    55    54   ar
     3    44    43    2
     4    68    66    1
     5    45    46    1
     6    45    47    1
     7    45    42    1
     8    54    56   ar
     9    54    53    1
    10    43    42    1
    11    43    49   am
    12    42    41    1
    13    66    67    1
    14    66    63    1
    15    50    49    1
    16    50    53    1
    17    50    51    1
    18   102   100    1
    19    52    51    2
    20    51    57   am
    21    62    63    1
    22    63    64    1
    23    41    34   am
    24   100   101    1
    25   100    99    2
    26    95    94    2
    27    57    58    1
    28    96    97    1
    29    96    93    1
    30    35    34    2
    31    99    98    1
    32    59    58    1
    33    59    60    2
    34    34    33    1
    35    24    25    1
    36    94    93    1
    37    97    98    1
    38    64    65    2
    39    64    69   am
    40    58    61    1
    41    82    81    1
    42    83    81    1
    43    27    26    2
    44    93    92    1
    45    81    78    1
    46    26    25    1
    47    26    32   am
    48    69    70    1
    49    25    28    1
    50    33    32    1
    51    33    36    1
    52    92    86   am
    53    72    71    2
    54    36    37    1
    55    71    70    1
    56    71    77   am
    57    78    77    1
    58    78    79    1
    59    70    73    1
    60    28    29    1
    61    86    87    2
    62    86    85    1
    63    79    84   am
    64    79    80    2
    65    73    74    1
    66    73    75    1
    67    74    76    1
    68    84    85    1
    69    30    29   ar
    70    37    38    1
    71    29    31   ar
    72    39    38   ar
    73    85    88    1
    74    38    40   ar
    75    90    89    1
    76    88    89    1
    77    89    91    1
    78    16    15    1
    79    16    17    1
    80    15    14    1
    81    23    22    1
    82    12    11    2
    83    21    20    2
    84    19    22    1
    85    19    20    1
    86    19    18    1
    87    14    13    1
    88    13    10    1
    89     7     6    2
    90    11    18   am
    91    11    10    1
    92     8     6   am
    93    10     9    1
    94     6     5    1
    95     5     2    1
    96     1     2    1
    97     2     3    1
    98     3     4    2
