@<TRIPOS>MOLECULE
tmp/5xnsA00.pdb
 102 98 0 0 0
SMALL
GASTEIGER

@<TRIPOS>ATOM
      1  N         24.5970   15.3540   13.0450 N.3   144  LEU144     -0.1231
      2  CA        24.3080   15.9250   14.3480 C.3   144  LEU144      0.1693
      3  C         25.3070   17.0410   14.6500 C.2   144  LEU144      0.2592
      4  O         26.0880   17.4590   13.7900 O.2   144  LEU144     -0.2718
      5  CB        24.3220   14.8280   15.4120 C.3   144  LEU144      0.0284
      6  CG        23.2350   13.7690   15.1800 C.3   144  LEU144      0.0019
      7  CD1       23.2910   12.6620   16.2360 C.3   144  LEU144      0.0001
      8  CD2       21.8480   14.4240   15.1580 C.3   144  LEU144      0.0001
      9  N         25.2820   17.5410   15.8840 N.am  145  GLN145     -0.1966
     10  CA        26.1710   18.6310   16.2640 C.3   145  GLN145      0.1733
     11  C         27.6210   18.2540   16.0100 C.2   145  GLN145      0.2617
     12  O         28.0650   17.1740   16.4000 O.2   145  GLN145     -0.2715
     13  CB        25.9800   18.9700   17.7360 C.3   145  GLN145      0.0408
     14  CG        27.0040   19.9380   18.2650 C.3   145  GLN145      0.0908
     15  CD        26.5740   20.5270   19.5860 C.2   145  GLN145      0.2608
     16  OE1       26.1420   19.8010   20.4870 O.2   145  GLN145     -0.2717
     17  NE2       26.6740   21.8450   19.7080 N.am  145  GLN145     -0.0878
     18  N         28.3570   19.1530   15.3620 N.am  146  GLY146     -0.1940
     19  CA        29.7450   18.9290   15.0360 C.3   146  GLY146      0.2014
     20  C         29.9960   18.2040   13.7290 C.2   146  GLY146      0.2639
     21  O         31.1430   18.1850   13.2650 O.2   146  GLY146     -0.2714
     22  N         28.9740   17.6030   13.1140 N.am  147  ASP147     -0.1957
     23  CA        29.2200   16.7830   11.9290 C.3   147  ASP147      0.1840
     24  C         29.4520   17.6190   10.6740 C.2   147  ASP147      0.2622
     25  O         30.0850   17.1360    9.7270 O.2   147  ASP147     -0.2715
     26  CB        28.0600   15.8010   11.6940 C.3   147  ASP147      0.1450
     27  CG        28.0880   14.5830   12.6630 C.2   147  ASP147      0.3671
     28  OD1       29.1750   14.2380   13.1930 O.co2 147  ASP147     -0.2456
     29  OD2       27.0190   13.9610   12.8750 O.co2 147  ASP147     -0.2456
     30  N         28.9620   18.8540   10.6240 N.am  148  ILE148     -0.1963
     31  CA        29.3130   19.6900    9.4860 C.3   148  ILE148      0.1727
     32  C         30.7950   20.0510    9.5360 C.2   148  ILE148      0.2616
     33  O         31.5060   19.9530    8.5270 O.2   148  ILE148     -0.2715
     34  CB        28.3960   20.9210    9.4240 C.3   148  ILE148      0.0290
     35  CG1       27.0230   20.4650    8.9230 C.3   148  ILE148      0.0022
     36  CG2       28.9930   22.0130    8.5100 C.3   148  ILE148      0.0023
     37  CD1       26.0460   21.5650    8.6490 C.3   148  ILE148      0.0001
     38  N         31.3000   20.4220   10.7140 N.am  149  THR149     -0.1951
     39  CA        32.7330   20.6530   10.8520 C.3   149  THR149      0.1897
     40  C         33.5300   19.3930   10.5100 C.2   149  THR149      0.2313
     41  O         34.5400   19.4630    9.8040 O.2   149  THR149     -0.2863
     42  CB        33.0400   21.1510   12.2700 C.3   149  THR149      0.1794
     43  OG1       32.5320   22.4870   12.4120 O.3   149  THR149     -0.2208
     44  CG2       34.5440   21.1470   12.5590 C.3   149  THR149      0.0378
     45  N         30.9780   29.4470    8.5430 N.3   300  GLY300     -0.1225
     46  CA        29.5910   29.7760    8.7820 C.3   300  GLY300      0.1811
     47  C         28.5720   29.1330    7.8720 C.2   300  GLY300      0.2280
     48  O         28.5460   27.9120    7.7030 O.2   300  GLY300     -0.2866
     49  N         29.6940   27.1730    4.6570 N.3   303  LYS303     -0.1231
     50  CA        30.1640   25.8500    5.0370 C.3   303  LYS303      0.1693
     51  C         29.0010   24.8790    5.2390 C.2   303  LYS303      0.2591
     52  O         29.0530   23.7280    4.7810 O.2   303  LYS303     -0.2718
     53  CB        31.0290   25.9960    6.2850 C.3   303  LYS303      0.0285
     54  CG        31.0130   24.8690    7.2550 C.3   303  LYS303      0.0035
     55  CD        31.8690   25.2570    8.4770 C.3   303  LYS303      0.0206
     56  CE        31.7890   24.2290    9.6110 C.3   303  LYS303      0.1093
     57  NZ        32.6610   24.6130   10.7620 N.3   303  LYS303     -0.1314
     58  N         27.9160   25.3380    5.8660 N.am  304  ALA304     -0.1980
     59  CA        26.8020   24.4350    6.1370 C.3   304  ALA304      0.1597
     60  C         26.0050   24.1350    4.8730 C.2   304  ALA304      0.2287
     61  O         25.5510   22.9990    4.6640 O.2   304  ALA304     -0.2864
     62  CB        25.9000   25.0310    7.2240 C.3   304  ALA304      0.0319
     63  N         20.7060   17.8090   13.1590 N.3   326  ASP326     -0.1225
     64  CA        20.6110   18.7000   14.3060 C.3   326  ASP326      0.1805
     65  C         21.7370   19.7130   14.1780 C.2   326  ASP326      0.2598
     66  O         22.8440   19.3570   13.7740 O.2   326  ASP326     -0.2718
     67  CB        20.7130   17.9370   15.6410 C.3   326  ASP326      0.1424
     68  CG        20.2740   18.7850   16.8590 C.2   326  ASP326      0.3668
     69  OD1       19.9750   19.9940   16.7050 O.co2 326  ASP326     -0.2456
     70  OD2       20.2320   18.2370   17.9840 O.co2 326  ASP326     -0.2456
     71  N         21.4470   20.9700   14.5040 N.am  327  GLU327     -0.1965
     72  CA        22.3770   22.0980   14.4430 C.3   327  GLU327      0.1733
     73  C         22.7530   22.5000   13.0180 C.2   327  GLU327      0.2616
     74  O         23.6570   23.3350   12.8440 O.2   327  GLU327     -0.2715
     75  CB        23.6580   21.8480   15.2470 C.3   327  GLU327      0.0429
     76  CG        23.4300   21.6540   16.7720 C.3   327  GLU327      0.1163
     77  CD        22.6370   22.7940   17.4450 C.2   327  GLU327      0.3649
     78  OE1       22.7060   23.9590   16.9820 O.co2 327  GLU327     -0.2457
     79  OE2       21.9360   22.5170   18.4500 O.co2 327  GLU327     -0.2457
     80  N         22.0690   21.9800   11.9900 N.am  328  ILE328     -0.1977
     81  CA        22.4520   22.3590   10.6360 C.3   328  ILE328      0.1596
     82  C         22.0850   23.8020   10.3260 C.2   328  ILE328      0.2287
     83  O         22.5720   24.3490    9.3280 O.2   328  ILE328     -0.2864
     84  CB        21.8300   21.4210    9.5850 C.3   328  ILE328      0.0276
     85  CG1       20.3090   21.5450    9.5920 C.3   328  ILE328      0.0022
     86  CG2       22.2690   19.9780    9.8420 C.3   328  ILE328      0.0022
     87  CD1       19.6180   20.7390    8.5180 C.3   328  ILE328      0.0001
     88  N         22.4560   26.4380   12.5610 N.3   330  ALA330     -0.1231
     89  CA        23.0660   27.3250   13.5470 C.3   330  ALA330      0.1694
     90  C         23.6850   28.5650   12.9180 C.2   330  ALA330      0.2592
     91  O         23.7920   29.5950   13.5770 O.2   330  ALA330     -0.2718
     92  CB        24.1360   26.5680   14.3290 C.3   330  ALA330      0.0304
     93  N         24.1230   28.4900   11.6710 N.am  331  HIS331     -0.1976
     94  CA        24.7440   29.6400   11.0310 C.3   331  HIS331      0.1656
     95  C         23.9860   30.0500    9.7860 C.2   331  HIS331      0.2291
     96  O         24.5730   30.5950    8.8570 O.2   331  HIS331     -0.2864
     97  CB        26.2030   29.3590   10.6910 C.3   331  HIS331      0.0771
     98  CG        27.0770   29.1830   11.8920 C.ar  331  HIS331      0.0820
     99  ND1       27.3040   27.9540   12.4720 N.ar  331  HIS331     -0.2267
    100  CD2       27.7840   30.0790   12.6200 C.ar  331  HIS331      0.1154
    101  CE1       28.1110   28.1010   13.5080 C.ar  331  HIS331      0.1986
    102  NE2       28.4230   29.3790   13.6150 N.ar  331  HIS331     -0.2212
@<TRIPOS>BOND
     1    49    50    1
     2    61    60    2
     3    52    51    2
     4    60    59    1
     5    50    51    1
     6    50    53    1
     7    51    58   am
     8    58    59    1
     9    59    62    1
    10    53    54    1
    11    54    55    1
    12    48    47    2
    13    47    46    1
    14    55    56    1
    15    36    34    1
    16    87    85    1
    17    33    32    2
    18    45    46    1
    19    37    35    1
    20    96    95    2
    21    35    34    1
    22    83    82    2
    23    34    31    1
    24    31    32    1
    25    31    30    1
    26    32    38   am
    27    84    85    1
    28    84    86    1
    29    84    81    1
    30    56    57    1
    31    25    24    2
    32    95    94    1
    33    41    40    2
    34    82    81    1
    35    40    39    1
    36    30    24   am
    37    81    80    1
    38    24    23    1
    39    97    94    1
    40    97    98    1
    41    38    39    1
    42    39    42    1
    43    94    93    1
    44    93    90   am
    45    26    23    1
    46    26    27    1
    47    98    99   ar
    48    98   100   ar
    49    23    22    1
    50    80    73   am
    51    42    43    1
    52    42    44    1
    53    99   101   ar
    54    88    89    1
    55   100   102   ar
    56    27    29   ar
    57    27    28   ar
    58    74    73    2
    59    90    89    1
    60    90    91    2
    61    73    72    1
    62     1     2    1
    63    22    20   am
    64    63    64    1
    65    21    20    2
    66   101   102   ar
    67    89    92    1
    68    20    19    1
    69    66    65    2
    70     4     3    2
    71    65    64    1
    72    65    71   am
    73    64    67    1
    74     2     3    1
    75     2     5    1
    76    72    71    1
    77    72    75    1
    78     3     9   am
    79    19    18    1
    80     8     6    1
    81     6     5    1
    82     6     7    1
    83    75    76    1
    84    18    11   am
    85    67    68    1
    86     9    10    1
    87    11    10    1
    88    11    12    2
    89    10    13    1
    90    69    68   ar
    91    76    77    1
    92    68    70   ar
    93    78    77   ar
    94    77    79   ar
    95    13    14    1
    96    14    15    1
    97    15    17   am
    98    15    16    2
