@<TRIPOS>MOLECULE
tmp/5xo6B00.pdb
 199 197 0 0 0
SMALL
GASTEIGER

@<TRIPOS>ATOM
      1  N         25.8750   13.0310   13.9520 N.3    31  ASP31      -0.1225
      2  CA        26.2370   13.4960   12.6510 C.3    31  ASP31       0.1805
      3  C         27.6270   12.9850   12.3270 C.2    31  ASP31       0.2598
      4  O         28.2320   12.2890   13.0790 O.2    31  ASP31      -0.2718
      5  CB        26.2720   15.0090   12.6360 C.3    31  ASP31       0.1424
      6  CG        27.2490   15.5780   13.6230 C.2    31  ASP31       0.3668
      7  OD1       26.9000   15.7940   14.7610 O.co2  31  ASP31      -0.2456
      8  OD2       28.3800   15.7890   13.2730 O.co2  31  ASP31      -0.2456
      9  N         28.1200   13.3830   11.1810 N.am   32  GLY32      -0.1942
     10  CA        29.4250   13.0210   10.6810 C.3    32  GLY32       0.2014
     11  C         30.6000   13.0010   11.6190 C.2    32  GLY32       0.2638
     12  O         31.4450   12.1710   11.5130 O.2    32  GLY32      -0.2714
     13  N         30.6240   13.9090   12.5680 N.am   33  LEU33      -0.1977
     14  CA        31.6820   14.0160   13.5320 C.3    33  LEU33       0.1596
     15  C         31.7560   12.8780   14.5310 C.2    33  LEU33       0.2287
     16  O         32.7430   12.7050   15.1790 O.2    33  LEU33      -0.2864
     17  CB        31.6050   15.3580   14.2240 C.3    33  LEU33       0.0297
     18  CG        31.6090   16.5480   13.2970 C.3    33  LEU33       0.0022
     19  CD1       31.5870   17.8360   14.0600 C.3    33  LEU33       0.0001
     20  CD2       32.7710   16.5110   12.3460 C.3    33  LEU33       0.0001
     21  N         22.7930   14.9720    9.1340 N.3   102  ALA102     -0.1231
     22  CA        23.8230   14.8580    8.1420 C.3   102  ALA102      0.1694
     23  C         23.9530   13.4280    7.6500 C.2   102  ALA102      0.2592
     24  O         23.0660   12.8950    7.0840 O.2   102  ALA102     -0.2718
     25  CB        25.1160   15.3780    8.6910 C.3   102  ALA102      0.0304
     26  N         25.0820   12.8090    7.9080 N.am  103  SER103     -0.1952
     27  CA        25.2830   11.4360    7.5490 C.3   103  SER103      0.1924
     28  C         24.4590   10.5410    8.4480 C.2   103  SER103      0.2314
     29  O         24.2010    9.4400    8.1290 O.2   103  SER103     -0.2863
     30  CB        26.7540   11.0580    7.5910 C.3   103  SER103      0.2116
     31  OG        27.2900   11.1670    8.8650 O.3   103  SER103     -0.2180
     32  N         22.4750   15.1950    3.3470 N.3   128  PRO128     -0.2116
     33  CA        23.3700   15.6960    2.3260 C.3   128  PRO128      0.1372
     34  C         23.0180   15.1060    0.9850 C.2   128  PRO128      0.2244
     35  O         22.8390   13.9380    0.8940 O.2   128  PRO128     -0.2868
     36  CB        24.7240   15.2160    2.7930 C.3   128  PRO128      0.0268
     37  CG        24.5460   14.9050    4.2120 C.3   128  PRO128      0.0207
     38  CD        23.1850   14.3730    4.3130 C.3   128  PRO128      0.0892
     39  N         27.6000   17.7990   -2.4810 N.3   131  ASN131     -0.1226
     40  CA        28.7570   18.0910   -1.6750 C.3   131  ASN131      0.1770
     41  C         28.9360   19.5920   -1.7600 C.2   131  ASN131      0.2439
     42  O         29.1650   20.1130   -2.8170 O.2   131  ASN131     -0.2733
     43  CB        29.9790   17.3660   -2.2180 C.3   131  ASN131      0.1168
     44  CG        31.1090   17.2890   -1.2160 C.2   131  ASN131      0.2627
     45  OD1       30.9330   17.5980   -0.0570 O.2   131  ASN131     -0.2716
     46  ND2       32.2690   16.8690   -1.6680 N.am  131  ASN131     -0.0877
     47  N         28.7880   20.2900   -0.6420 N.am  132  PRO132     -0.2729
     48  CA        28.9190   21.7430   -0.5690 C.3   132  PRO132      0.1401
     49  C         30.3000   22.2210   -0.9430 C.2   132  PRO132      0.2269
     50  O         31.2550   21.4930   -0.8750 O.2   132  PRO132     -0.2865
     51  CB        28.6640   22.0570    0.8940 C.3   132  PRO132      0.0296
     52  CG        28.1040   20.8260    1.4690 C.3   132  PRO132      0.0237
     53  CD        28.6270   19.6930    0.6740 C.3   132  PRO132      0.0939
     54  N         32.3990   24.4400    0.4050 N.3   134  ILE134     -0.1231
     55  CA        33.4900   24.6010    1.3340 C.3   134  ILE134      0.1692
     56  C         34.1320   23.3050    1.7710 C.2   134  ILE134      0.2591
     57  O         35.0420   23.3270    2.5430 O.2   134  ILE134     -0.2718
     58  CB        33.0750   25.3850    2.5690 C.3   134  ILE134      0.0266
     59  CG1       31.7560   24.8750    3.0970 C.3   134  ILE134      0.0019
     60  CG2       32.9240   26.8330    2.2180 C.3   134  ILE134      0.0020
     61  CD1       31.5260   25.2360    4.5380 C.3   134  ILE134      0.0001
     62  N         33.6670   22.1820    1.2600 N.am  135  LEU135     -0.1980
     63  CA        34.2310   20.9040    1.6050 C.3   135  LEU135      0.1596
     64  C         34.7460   20.1990    0.3940 C.2   135  LEU135      0.2287
     65  O         35.0250   19.0370    0.4440 O.2   135  LEU135     -0.2864
     66  CB        33.1690   20.0110    2.1800 C.3   135  LEU135      0.0297
     67  CG        32.3180   20.4600    3.3370 C.3   135  LEU135      0.0022
     68  CD1       31.3250   19.3580    3.6140 C.3   135  LEU135      0.0001
     69  CD2       33.1690   20.7300    4.5440 C.3   135  LEU135      0.0001
     70  N         37.6840   22.6920    9.8220 N.3   150  MET150     -0.1245
     71  CA        36.4590   22.0450   10.1730 C.3   150  MET150      0.1570
     72  C         35.9950   22.4450   11.5470 C.2   150  MET150      0.2261
     73  O         34.8430   22.4420   11.8230 O.2   150  MET150     -0.2867
     74  CB        36.6190   20.5470   10.0660 C.3   150  MET150      0.0387
     75  CG        36.6580   20.0410    8.6540 C.3   150  MET150      0.0595
     76  SD        35.3210   20.6140    7.6430 S.3   150  MET150     -0.1393
     77  CE        33.9670   19.9120    8.5020 C.3   150  MET150      0.0692
     78  N         34.3490   25.6410   10.7000 N.3   153  ASN153     -0.1225
     79  CA        33.1430   25.4770    9.9400 C.3   153  ASN153      0.1785
     80  C         32.0410   25.0170   10.8500 C.2   153  ASN153      0.2597
     81  O         30.9630   25.5040   10.7940 O.2   153  ASN153     -0.2718
     82  CB        33.3140   24.4650    8.8250 C.3   153  ASN153      0.1169
     83  CG        34.2040   24.9560    7.7270 C.2   153  ASN153      0.2627
     84  OD1       34.2860   26.1380    7.4780 O.2   153  ASN153     -0.2716
     85  ND2       34.8770   24.0510    7.0690 N.am  153  ASN153     -0.0877
     86  N         32.3520   24.0570   11.6900 N.am  154  SER154     -0.1952
     87  CA        31.4000   23.5050   12.6040 C.3   154  SER154      0.1924
     88  C         30.9060   24.5130   13.5970 C.2   154  SER154      0.2314
     89  O         29.7660   24.5160   13.9090 O.2   154  SER154     -0.2863
     90  CB        31.9780   22.3140   13.3290 C.3   154  SER154      0.2116
     91  OG        32.3160   21.3040   12.4430 O.3   154  SER154     -0.2180
     92  N         28.4430   26.8300   12.0270 N.3   157  TYR157     -0.1241
     93  CA        27.1600   26.2390   11.7080 C.3   157  TYR157      0.1605
     94  C         26.5200   25.5680   12.9090 C.2   157  TYR157      0.2264
     95  O         25.6220   24.7880   12.7880 O.2   157  TYR157     -0.2867
     96  CB        27.3040   25.2690   10.5450 C.3   157  TYR157      0.0534
     97  CG        27.4110   25.9890    9.2490 C.ar  157  TYR157     -0.0201
     98  CD1       26.2860   26.4180    8.5830 C.ar  157  TYR157     -0.0009
     99  CD2       28.6310   26.2950    8.7120 C.ar  157  TYR157     -0.0009
    100  CE1       26.3720   27.1130    7.4040 C.ar  157  TYR157      0.0417
    101  CE2       28.7300   26.9900    7.5350 C.ar  157  TYR157      0.0417
    102  CZ        27.5930   27.3900    6.8840 C.ar  157  TYR157      0.1957
    103  OH        27.6870   28.0760    5.7140 O.3   157  TYR157     -0.2866
    104  N         37.0740   12.0900    9.1920 N.3   182  TRP182     -0.1241
    105  CA        35.7990   12.3680    8.6200 C.3   182  TRP182      0.1605
    106  C         35.9850   12.8130    7.1950 C.2   182  TRP182      0.2264
    107  O         35.3230   12.3600    6.3170 O.2   182  TRP182     -0.2867
    108  CB        35.0590   13.4220    9.4310 C.3   182  TRP182      0.0550
    109  CG        33.8720   13.8850    8.7440 C.ar  182  TRP182      0.0003
    110  CD1       32.6740   13.3090    8.7520 C.ar  182  TRP182      0.0946
    111  CD2       33.7690   15.0000    7.8850 C.ar  182  TRP182      0.0152
    112  NE1       31.8220   13.9780    7.9750 N.ar  182  TRP182     -0.2442
    113  CE2       32.4750   15.0280    7.4130 C.ar  182  TRP182      0.0810
    114  CE3       34.6500   15.9820    7.4740 C.ar  182  TRP182      0.0012
    115  CZ2       32.0300   15.9960    6.5610 C.ar  182  TRP182      0.0191
    116  CZ3       34.2160   16.9310    6.6300 C.ar  182  TRP182      0.0001
    117  CH2       32.9230   16.9440    6.1780 C.ar  182  TRP182      0.0015
    118  N         33.9740   10.4970    4.4560 N.3   186  TYR186     -0.1228
    119  CA        32.5820   10.9000    4.4270 C.3   186  TYR186      0.1721
    120  C         32.0750   11.7880    3.3190 C.2   186  TYR186      0.2437
    121  O         31.3060   11.3760    2.5530 O.2   186  TYR186     -0.2733
    122  CB        32.1980   11.5070    5.7650 C.3   186  TYR186      0.0547
    123  CG        31.9010   10.5280    6.8510 C.ar  186  TYR186     -0.0200
    124  CD1       32.8460    9.6530    7.2920 C.ar  186  TYR186     -0.0009
    125  CD2       30.6770   10.5040    7.4580 C.ar  186  TYR186     -0.0009
    126  CE1       32.5730    8.7590    8.2720 C.ar  186  TYR186      0.0417
    127  CE2       30.4070    9.6210    8.4450 C.ar  186  TYR186      0.0417
    128  CZ        31.3630    8.7540    8.8480 C.ar  186  TYR186      0.1957
    129  OH        31.1050    7.8760    9.8210 O.3   186  TYR186     -0.2866
    130  N         32.5280   13.0240    3.2430 N.am  187  PRO187     -0.2729
    131  CA        32.0250   13.9990    2.2850 C.3   187  PRO187      0.1401
    132  C         31.9590   13.6370    0.8210 C.2   187  PRO187      0.2269
    133  O         31.1620   14.1980    0.1430 O.2   187  PRO187     -0.2865
    134  CB        32.9250   15.1980    2.5000 C.3   187  PRO187      0.0296
    135  CG        34.0620   14.6990    3.2620 C.3   187  PRO187      0.0237
    136  CD        33.5720   13.5950    4.0820 C.3   187  PRO187      0.0939
    137  N         29.0280   10.1710    0.9830 N.3   190  ILE190     -0.1231
    138  CA        27.7530   10.2740    1.6320 C.3   190  ILE190      0.1678
    139  C         26.6710   10.9150    0.7630 C.2   190  ILE190      0.2434
    140  O         25.6590   10.3360    0.5730 O.2   190  ILE190     -0.2733
    141  CB        27.8700   10.9780    2.9980 C.3   190  ILE190      0.0265
    142  CG1       28.2820   10.0100    4.0880 C.3   190  ILE190      0.0019
    143  CG2       26.5940   11.6610    3.3780 C.3   190  ILE190      0.0020
    144  CD1       27.2430    8.9950    4.4390 C.3   190  ILE190      0.0001
    145  N         26.9210   12.0890    0.2050 N.am  191  PRO191     -0.2729
    146  CA        25.8900   12.7760   -0.5580 C.3   191  PRO191      0.1401
    147  C         25.3720   12.0350   -1.7500 C.2   191  PRO191      0.2269
    148  O         24.2190   12.0820   -1.9730 O.2   191  PRO191     -0.2865
    149  CB        26.5470   14.0840   -0.9260 C.3   191  PRO191      0.0296
    150  CG        27.6230   14.2290    0.0530 C.3   191  PRO191      0.0237
    151  CD        28.1420   12.8780    0.2530 C.3   191  PRO191      0.0939
    152  N         21.5300   25.4080    1.2210 N.3   218  LEU218     -0.1231
    153  CA        22.1700   24.2060    1.6480 C.3   218  LEU218      0.1693
    154  C         21.3340   22.9480    1.6070 C.2   218  LEU218      0.2592
    155  O         21.7740   21.9490    1.1370 O.2   218  LEU218     -0.2718
    156  CB        22.7870   24.3990    3.0050 C.3   218  LEU218      0.0284
    157  CG        23.8030   25.5100    2.9980 C.3   218  LEU218      0.0019
    158  CD1       24.3200   25.7740    4.3750 C.3   218  LEU218      0.0001
    159  CD2       24.9340   25.2190    2.0450 C.3   218  LEU218      0.0001
    160  N         20.1330   22.9900    2.1280 N.am  219  PHE219     -0.1976
    161  CA        19.3230   21.8130    2.1470 C.3   219  PHE219      0.1639
    162  C         18.0170   22.0050    1.4650 C.2   219  PHE219      0.2290
    163  O         17.0730   21.3800    1.7790 O.2   219  PHE219     -0.2864
    164  CB        19.1940   21.2940    3.5670 C.3   219  PHE219      0.0560
    165  CG        20.5020   20.9530    4.1590 C.ar  219  PHE219     -0.0200
    166  CD1       21.1060   19.7770    3.8510 C.ar  219  PHE219     -0.0042
    167  CD2       21.1750   21.8580    4.9330 C.ar  219  PHE219     -0.0042
    168  CE1       22.3290   19.4800    4.3420 C.ar  219  PHE219     -0.0003
    169  CE2       22.4020   21.5640    5.4260 C.ar  219  PHE219     -0.0003
    170  CZ        22.9790   20.3760    5.1300 C.ar  219  PHE219     -0.0000
    171  N         20.7680   25.4060   13.4680 N.3   239  ASN239     -0.1225
    172  CA        21.3750   25.1740   12.2110 C.3   239  ASN239      0.1785
    173  C         21.6460   23.6940   12.0310 C.2   239  ASN239      0.2597
    174  O         20.7570   22.9430   11.9230 O.2   239  ASN239     -0.2718
    175  CB        22.6580   25.9550   12.2350 C.3   239  ASN239      0.1169
    176  CG        22.9680   26.6200   10.9440 C.2   239  ASN239      0.2627
    177  OD1       23.3380   25.9810    9.9930 O.2   239  ASN239     -0.2716
    178  ND2       22.8980   27.9070   10.9310 N.am  239  ASN239     -0.0877
    179  N         22.8960   23.2960   12.0610 N.am  240  HIS240     -0.1961
    180  CA        23.2950   21.9220   11.8860 C.3   240  HIS240      0.1787
    181  C         23.2310   21.0300   13.1090 C.2   240  HIS240      0.2620
    182  O         23.1500   19.8470   12.9760 O.2   240  HIS240     -0.2715
    183  CB        24.6960   21.9040   11.3250 C.3   240  HIS240      0.0785
    184  CG        25.0270   20.6890   10.5340 C.ar  240  HIS240      0.0821
    185  ND1       24.3630   20.3450    9.3880 N.ar  240  HIS240     -0.2267
    186  CD2       25.9680   19.7460   10.7110 C.ar  240  HIS240      0.1154
    187  CE1       24.8820   19.2500    8.8910 C.ar  240  HIS240      0.1986
    188  NE2       25.8550   18.8650    9.6790 N.ar  240  HIS240     -0.2212
    189  N         23.2820   21.6040   14.2890 N.am  241  PHE241     -0.1974
    190  CA        23.2790   20.8230   15.4980 C.3   241  PHE241      0.1639
    191  C         22.2180   21.2390   16.4950 C.2   241  PHE241      0.2290
    192  O         22.5240   21.6690   17.5590 O.2   241  PHE241     -0.2864
    193  CB        24.6400   20.9270   16.1860 C.3   241  PHE241      0.0560
    194  CG        25.8110   20.6760   15.3050 C.ar  241  PHE241     -0.0200
    195  CD1       26.3310   21.6670   14.5500 C.ar  241  PHE241     -0.0042
    196  CD2       26.4090   19.4600   15.2800 C.ar  241  PHE241     -0.0042
    197  CE1       27.4070   21.4480   13.7570 C.ar  241  PHE241     -0.0003
    198  CE2       27.4870   19.2290   14.5010 C.ar  241  PHE241     -0.0003
    199  CZ        27.9940   20.2260   13.7380 C.ar  241  PHE241     -0.0000
@<TRIPOS>BOND
     1    42    41    2
     2    39    40    1
     3    43    40    1
     4    43    44    1
     5   148   147    2
     6    41    40    1
     7    41    47   am
     8   147   146    1
     9    46    44   am
    10    44    45    2
    11    49    50    2
    12    49    48    1
    13   149   146    1
    14   149   150    1
    15    47    48    1
    16    47    53    1
    17    48    51    1
    18   146   145    1
    19   150   151    1
    20   133   132    2
    21   145   151    1
    22   145   139   am
    23    64    65    2
    24    64    63    1
    25    54    55    1
    26   140   139    2
    27    53    52    1
    28   139   138    1
    29   132   131    1
    30    51    52    1
    31    35    34    2
    32   137   138    1
    33    34    33    1
    34   155   154    2
    35   152   153    1
    36    62    63    1
    37    62    56   am
    38    55    56    1
    39    55    58    1
    40   162   163    2
    41   162   161    1
    42    63    66    1
    43   154   153    1
    44   154   160   am
    45   138   141    1
    46   153   156    1
    47    56    57    2
    48   159   157    1
    49   160   161    1
    50   161   164    1
    51    66    67    1
    52    60    58    1
    53   131   134    1
    54   131   130    1
    55    33    36    1
    56    33    32    1
    57   134   135    1
    58   121   120    2
    59    58    59    1
    60    36    37    1
    61   157   156    1
    62   157   158    1
    63   141   143    1
    64   141   142    1
    65    59    61    1
    66   130   120   am
    67   130   136    1
    68   135   136    1
    69   120   119    1
    70    67    68    1
    71    67    69    1
    72    32    38    1
    73   164   165    1
    74   166   165   ar
    75   166   168   ar
    76   142   144    1
    77   165   167   ar
    78    37    38    1
    79   168   170   ar
    80   119   118    1
    81   119   122    1
    82   167   169   ar
    83   170   169   ar
    84   103   102    1
    85   122   123    1
    86   117   115   ar
    87   117   116   ar
    88   107   106    2
    89   115   113   ar
    90   116   114   ar
    91   123   124   ar
    92   123   125   ar
    93   102   100   ar
    94   102   101   ar
    95    85    83   am
    96    24    23    2
    97   106   105    1
    98   124   126   ar
    99   100    98   ar
   100   113   111   ar
   101   113   112   ar
   102   125   127   ar
   103   114   111   ar
   104    84    83    2
   105   101    99   ar
   106    27    30    1
   107    27    26    1
   108    27    28    1
   109    30    31    1
   110    76    77    1
   111    76    75    1
   112    23    26   am
   113    23    22    1
   114    83    82    1
   115   111   109   ar
   116   112   110   ar
   117    29    28    2
   118    22    25    1
   119    22    21    1
   120   126   128   ar
   121   127   128   ar
   122    98    97   ar
   123   105   104    1
   124   105   108    1
   125    75    74    1
   126    99    97   ar
   127   109   110   ar
   128   109   108    1
   129    82    79    1
   130   128   129    1
   131   187   185   ar
   132   187   188   ar
   133    97    96    1
   134   185   184   ar
   135   188   186   ar
   136    70    71    1
   137    79    78    1
   138    79    80    1
   139   177   176    2
   140    74    71    1
   141    71    72    1
   142   184   186   ar
   143   184   183    1
   144    96    93    1
   145    10     9    1
   146    10    11    1
   147    81    80    2
   148    80    86   am
   149   178   176   am
   150   176   175    1
   151     9     3   am
   152   183   180    1
   153    12    11    2
   154    72    73    2
   155    11    13   am
   156    86    87    1
   157    93    92    1
   158    93    94    1
   159   180   179    1
   160   180   181    1
   161   174   173    2
   162   173   179   am
   163   173   172    1
   164   172   175    1
   165   172   171    1
   166     3     2    1
   167     3     4    2
   168    20    18    1
   169    91    90    1
   170    13    14    1
   171    87    90    1
   172    87    88    1
   173     5     2    1
   174     5     6    1
   175     2     1    1
   176    95    94    2
   177   182   181    2
   178   181   189   am
   179     8     6   ar
   180    18    19    1
   181    18    17    1
   182    14    17    1
   183    14    15    1
   184    88    89    2
   185     6     7   ar
   186   199   197   ar
   187   199   198   ar
   188   197   195   ar
   189   189   190    1
   190   198   196   ar
   191    15    16    2
   192   195   194   ar
   193   196   194   ar
   194   194   193    1
   195   190   193    1
   196   190   191    1
   197   191   192    2
