@<TRIPOS>MOLECULE
tmp/5xohA01.pdb
 135 132 0 0 0
SMALL
GASTEIGER

@<TRIPOS>ATOM
      1  N         48.2230    9.6480   84.8400 N.3   115  LEU115     -0.1245
      2  CA        49.1480    9.2820   83.7800 C.3   115  LEU115      0.1561
      3  C         50.2410    8.3670   84.3080 C.2   115  LEU115      0.2260
      4  O         50.6140    7.3890   83.6480 O.2   115  LEU115     -0.2867
      5  CB        49.7540   10.5450   83.1770 C.3   115  LEU115      0.0270
      6  CG        50.6330   10.4410   81.9200 C.3   115  LEU115      0.0019
      7  CD1       49.8620    9.8450   80.7420 C.3   115  LEU115      0.0001
      8  CD2       51.1730   11.8160   81.5400 C.3   115  LEU115      0.0001
      9  N         48.5880    4.8150   84.8050 N.3   118  VAL118     -0.1231
     10  CA        48.4240    3.9070   83.6700 C.3   118  VAL118      0.1692
     11  C         49.7710    3.2840   83.2940 C.2   118  VAL118      0.2592
     12  O         49.8580    2.0780   83.0380 O.2   118  VAL118     -0.2718
     13  CB        47.7320    4.6020   82.4770 C.3   118  VAL118      0.0266
     14  CG1       48.5230    5.7930   81.9530 C.3   118  VAL118      0.0020
     15  CG2       47.4310    3.5960   81.3580 C.3   118  VAL118      0.0020
     16  N         50.8580    4.0570   83.3330 N.am  119  HIS119     -0.1976
     17  CA        52.1260    3.4530   82.9240 C.3   119  HIS119      0.1656
     18  C         52.6670    2.4840   83.9640 C.2   119  HIS119      0.2291
     19  O         53.3110    1.5070   83.5950 O.2   119  HIS119     -0.2864
     20  CB        53.1440    4.5300   82.5850 C.3   119  HIS119      0.0771
     21  CG        52.7430    5.3270   81.3910 C.ar  119  HIS119      0.0820
     22  ND1       52.3530    4.7280   80.2140 N.ar  119  HIS119     -0.2267
     23  CD2       52.5800    6.6600   81.2120 C.ar  119  HIS119      0.1154
     24  CE1       51.9940    5.6620   79.3490 C.ar  119  HIS119      0.1986
     25  NE2       52.1130    6.8410   79.9330 N.ar  119  HIS119     -0.2212
     26  N         46.4960   -2.4910   72.1560 N.3   150  ILE150     -0.1231
     27  CA        46.1330   -1.9440   73.4580 C.3   150  ILE150      0.1692
     28  C         44.6760   -1.4960   73.4840 C.2   150  ILE150      0.2592
     29  O         44.0110   -1.5740   74.5300 O.2   150  ILE150     -0.2718
     30  CB        47.0950   -0.7990   73.8310 C.3   150  ILE150      0.0266
     31  CG1       46.8680   -0.3430   75.2760 C.3   150  ILE150      0.0019
     32  CG2       46.9700    0.3810   72.8460 C.3   150  ILE150      0.0020
     33  CD1       48.0560    0.4510   75.8740 C.3   150  ILE150      0.0001
     34  N         44.1500   -1.0320   72.3500 N.am  151  PHE151     -0.1976
     35  CA        42.7580   -0.5900   72.3230 C.3   151  PHE151      0.1639
     36  C         41.8090   -1.7790   72.3850 C.2   151  PHE151      0.2290
     37  O         40.7670   -1.7200   73.0490 O.2   151  PHE151     -0.2864
     38  CB        42.5030    0.2430   71.0710 C.3   151  PHE151      0.0560
     39  CG        43.4650    1.4020   70.8970 C.ar  151  PHE151     -0.0200
     40  CD1       43.5250    2.4280   71.8440 C.ar  151  PHE151     -0.0042
     41  CD2       44.2930    1.4730   69.7870 C.ar  151  PHE151     -0.0042
     42  CE1       44.3950    3.5030   71.6850 C.ar  151  PHE151     -0.0003
     43  CE2       45.1630    2.5520   69.6080 C.ar  151  PHE151     -0.0003
     44  CZ        45.2220    3.5660   70.5620 C.ar  151  PHE151     -0.0000
     45  N         42.9660    3.7390   81.7630 N.3   164  PHE164     -0.1241
     46  CA        43.4940    4.4090   80.5800 C.3   164  PHE164      0.1605
     47  C         42.7920    5.7420   80.3310 C.2   164  PHE164      0.2264
     48  O         43.4410    6.7830   80.1860 O.2   164  PHE164     -0.2867
     49  CB        43.3660    3.5140   79.3460 C.3   164  PHE164      0.0534
     50  CG        43.9810    4.1310   78.1240 C.ar  164  PHE164     -0.0203
     51  CD1       45.3280    3.9520   77.8540 C.ar  164  PHE164     -0.0042
     52  CD2       43.2310    4.9570   77.2900 C.ar  164  PHE164     -0.0042
     53  CE1       45.9100    4.5520   76.7560 C.ar  164  PHE164     -0.0003
     54  CE2       43.7990    5.5600   76.1800 C.ar  164  PHE164     -0.0003
     55  CZ        45.1380    5.3630   75.9090 C.ar  164  PHE164     -0.0000
     56  N         44.2220    9.9440   80.3100 N.3   168  MET168     -0.1245
     57  CA        44.1100   10.9140   79.2310 C.3   168  MET168      0.1570
     58  C         43.2630   12.1060   79.6630 C.2   168  MET168      0.2261
     59  O         43.6370   13.2670   79.4310 O.2   168  MET168     -0.2867
     60  CB        43.5400   10.2340   77.9770 C.3   168  MET168      0.0387
     61  CG        44.4400    9.0660   77.4270 C.3   168  MET168      0.0595
     62  SD        46.1310    9.5310   76.9260 S.3   168  MET168     -0.1393
     63  CE        47.1350    8.8150   78.2040 C.3   168  MET168      0.0692
     64  N         46.8000   13.8030   70.5290 N.3   254  TRP254     -0.1241
     65  CA        47.4420   12.5570   70.9480 C.3   254  TRP254      0.1605
     66  C         46.8770   11.3540   70.1910 C.2   254  TRP254      0.2264
     67  O         46.7760   10.2530   70.7260 O.2   254  TRP254     -0.2867
     68  CB        47.3210   12.3610   72.4690 C.3   254  TRP254      0.0550
     69  CG        48.5290   12.8650   73.2280 C.ar  254  TRP254      0.0003
     70  CD1       49.6570   13.4160   72.6930 C.ar  254  TRP254      0.0946
     71  CD2       48.7260   12.8550   74.6460 C.ar  254  TRP254      0.0152
     72  NE1       50.5450   13.7440   73.6830 N.ar  254  TRP254     -0.2442
     73  CE2       49.9960   13.4190   74.8940 C.ar  254  TRP254      0.0810
     74  CE3       47.9530   12.4310   75.7300 C.ar  254  TRP254      0.0012
     75  CZ2       50.5150   13.5630   76.1840 C.ar  254  TRP254      0.0191
     76  CZ3       48.4730   12.5780   77.0180 C.ar  254  TRP254      0.0001
     77  CH2       49.7370   13.1360   77.2300 C.ar  254  TRP254      0.0015
     78  N         50.3450   10.2970   67.1000 N.3   257  HIS257     -0.1226
     79  CA        51.5250    9.6680   67.6290 C.3   257  HIS257      0.1752
     80  C         51.3450    8.1940   67.9120 C.2   257  HIS257      0.2596
     81  O         52.2700    7.5280   68.2310 O.2   257  HIS257     -0.2718
     82  CB        52.0360   10.3940   68.8530 C.3   257  HIS257      0.0759
     83  CG        51.2150   10.1780   70.0670 C.ar  257  HIS257      0.0818
     84  ND1       51.6730   10.4700   71.3200 N.ar  257  HIS257     -0.2268
     85  CD2       49.9640    9.7120   70.2250 C.ar  257  HIS257      0.1154
     86  CE1       50.7380   10.1970   72.2000 C.ar  257  HIS257      0.1986
     87  NE2       49.6920    9.7300   71.5610 N.ar  257  HIS257     -0.2212
     88  N         50.1490    7.6930   67.7480 N.am  258  SER258     -0.1952
     89  CA        49.8420    6.2970   68.0040 C.3   258  SER258      0.1924
     90  C         49.7180    5.4610   66.7260 C.2   258  SER258      0.2314
     91  O         49.4780    4.2570   66.8120 O.2   258  SER258     -0.2863
     92  CB        48.5520    6.2190   68.8280 C.3   258  SER258      0.2116
     93  OG        48.3510    4.9250   69.3150 O.3   258  SER258     -0.2180
     94  N         57.6680    9.5830   75.7740 N.3   305  LEU305     -0.1245
     95  CA        56.4970    9.2640   74.9990 C.3   305  LEU305      0.1561
     96  C         56.8440    8.4730   73.7720 C.2   305  LEU305      0.2260
     97  O         56.1520    7.5950   73.4200 O.2   305  LEU305     -0.2867
     98  CB        55.7460   10.5190   74.6060 C.3   305  LEU305      0.0270
     99  CG        54.2820   10.6470   75.0170 C.3   305  LEU305      0.0019
    100  CD1       53.4530    9.4550   74.5990 C.3   305  LEU305      0.0001
    101  CD2       54.1630   10.8310   76.5110 C.3   305  LEU305      0.0001
    102  N         57.3390    4.9640   74.9500 N.3   308  VAL308     -0.1231
    103  CA        56.0280    4.4080   75.2660 C.3   308  VAL308      0.1692
    104  C         55.3160    3.9740   73.9850 C.2   308  VAL308      0.2591
    105  O         54.8170    2.8480   73.8820 O.2   308  VAL308     -0.2718
    106  CB        55.1930    5.4210   76.0710 C.3   308  VAL308      0.0266
    107  CG1       53.7370    4.9680   76.1370 C.3   308  VAL308      0.0020
    108  CG2       55.7860    5.6320   77.5140 C.3   308  VAL308      0.0020
    109  N         55.2910    4.8460   72.9730 N.am  309  MET309     -0.1979
    110  CA        54.6670    4.4650   71.6980 C.3   309  MET309      0.1605
    111  C         55.3230    3.2160   71.1100 C.2   309  MET309      0.2287
    112  O         54.6270    2.3190   70.6170 O.2   309  MET309     -0.2864
    113  CB        54.7370    5.6170   70.6870 C.3   309  MET309      0.0413
    114  CG        53.8190    6.8360   70.9750 C.3   309  MET309      0.0598
    115  SD        52.0440    6.5040   71.2010 S.3   309  MET309     -0.1393
    116  CE        51.9980    6.3470   72.9580 C.3   309  MET309      0.0692
    117  N         54.0220    0.1720   73.0890 N.3   312  TYR312     -0.1227
    118  CA        52.5900    0.0040   73.3340 C.3   312  TYR312      0.1736
    119  C         51.7740   -0.2420   72.0720 C.2   312  TYR312      0.2595
    120  O         50.7750   -0.9710   72.1290 O.2   312  TYR312     -0.2718
    121  CB        51.9980    1.2380   74.0220 C.3   312  TYR312      0.0548
    122  CG        52.2820    1.4430   75.5080 C.ar  312  TYR312     -0.0200
    123  CD1       53.3510    0.8210   76.1500 C.ar  312  TYR312     -0.0009
    124  CD2       51.4880    2.3120   76.2500 C.ar  312  TYR312     -0.0009
    125  CE1       53.6200    1.0600   77.4970 C.ar  312  TYR312      0.0417
    126  CE2       51.7310    2.5480   77.5900 C.ar  312  TYR312      0.0417
    127  CZ        52.7950    1.9320   78.2040 C.ar  312  TYR312      0.1957
    128  OH        53.0080    2.2230   79.5220 O.3   312  TYR312     -0.2866
    129  N         52.1400    0.3790   70.9500 N.am  313  VAL313     -0.1980
    130  CA        51.2730    0.4400   69.7650 C.3   313  VAL313      0.1595
    131  C         52.0910    0.2160   68.5010 C.2   313  VAL313      0.2287
    132  O         53.1790    0.7960   68.3670 O.2   313  VAL313     -0.2864
    133  CB        50.5440    1.7930   69.6530 C.3   313  VAL313      0.0276
    134  CG1       49.3120    1.8220   70.5130 C.3   313  VAL313      0.0022
    135  CG2       51.4920    2.9700   69.9870 C.3   313  VAL313      0.0022
@<TRIPOS>BOND
     1    90    91    2
     2    90    89    1
     3    78    79    1
     4    79    80    1
     5    79    82    1
     6    88    80   am
     7    88    89    1
     8    80    81    2
     9    89    92    1
    10   132   131    2
    11   131   130    1
    12    92    93    1
    13    82    83    1
    14    43    41   ar
    15    43    44   ar
    16   133   130    1
    17   133   135    1
    18   133   134    1
    19   130   129    1
    20    41    39   ar
    21    83    85   ar
    22    83    84   ar
    23    66    67    2
    24    66    65    1
    25    85    87   ar
    26    64    65    1
    27    44    42   ar
    28   112   111    2
    29   113   114    1
    30   113   110    1
    31    39    38    1
    32    39    40   ar
    33    65    68    1
    34   129   119   am
    35   114   115    1
    36    38    35    1
    37   111   110    1
    38   115   116    1
    39    84    86   ar
    40    87    86   ar
    41    42    40   ar
    42   110   109    1
    43   119   120    2
    44   119   118    1
    45    26    27    1
    46    35    34    1
    47    35    36    1
    48    34    28   am
    49    36    37    2
    50    68    69    1
    51    70    69   ar
    52    70    72   ar
    53    32    30    1
    54   109   104   am
    55   117   118    1
    56    69    71   ar
    57   118   121    1
    58    97    96    2
    59    27    28    1
    60    27    30    1
    61    28    29    2
    62    72    73   ar
    63    96    95    1
    64    30    31    1
    65   105   104    2
    66   104   103    1
    67   121   122    1
    68   100    99    1
    69    98    95    1
    70    98    99    1
    71    71    73   ar
    72    71    74   ar
    73    73    75   ar
    74   102   103    1
    75    95    94    1
    76    99   101    1
    77   103   106    1
    78    31    33    1
    79   122   123   ar
    80   122   124   ar
    81    74    76   ar
    82    55    54   ar
    83    55    53   ar
    84   106   107    1
    85   106   108    1
    86   123   125   ar
    87    54    52   ar
    88    75    77   ar
    89   124   126   ar
    90    53    51   ar
    91    62    61    1
    92    62    63    1
    93    76    77   ar
    94    52    50   ar
    95    61    60    1
    96   125   127   ar
    97   126   127   ar
    98    51    50   ar
    99    60    57    1
   100    50    49    1
   101   127   128    1
   102    57    58    1
   103    57    56    1
   104    49    46    1
   105    24    25   ar
   106    24    22   ar
   107    59    58    2
   108    25    23   ar
   109    48    47    2
   110    22    21   ar
   111    47    46    1
   112    46    45    1
   113     7     6    1
   114    23    21   ar
   115    15    13    1
   116    21    20    1
   117     8     6    1
   118     6     5    1
   119    14    13    1
   120    13    10    1
   121    20    17    1
   122    17    16    1
   123    17    18    1
   124    12    11    2
   125     5     2    1
   126    11    16   am
   127    11    10    1
   128    19    18    2
   129     4     3    2
   130    10     9    1
   131     2     3    1
   132     2     1    1
