@<TRIPOS>MOLECULE
tmp/5xohA00.pdb
 223 221 0 0 0
SMALL
GASTEIGER

@<TRIPOS>ATOM
      1  N         44.1500   -1.0320   72.3500 N.3   151  PHE151     -0.1241
      2  CA        42.7580   -0.5900   72.3230 C.3   151  PHE151      0.1605
      3  C         41.8090   -1.7790   72.3850 C.2   151  PHE151      0.2264
      4  O         40.7670   -1.7200   73.0490 O.2   151  PHE151     -0.2867
      5  CB        42.5030    0.2430   71.0710 C.3   151  PHE151      0.0534
      6  CG        43.4650    1.4020   70.8970 C.ar  151  PHE151     -0.0203
      7  CD1       43.5250    2.4280   71.8440 C.ar  151  PHE151     -0.0042
      8  CD2       44.2930    1.4730   69.7870 C.ar  151  PHE151     -0.0042
      9  CE1       44.3950    3.5030   71.6850 C.ar  151  PHE151     -0.0003
     10  CE2       45.1630    2.5520   69.6080 C.ar  151  PHE151     -0.0003
     11  CZ        45.2220    3.5660   70.5620 C.ar  151  PHE151     -0.0000
     12  N         42.9660    3.7390   81.7630 N.3   164  PHE164     -0.1227
     13  CA        43.4940    4.4090   80.5800 C.3   164  PHE164      0.1736
     14  C         42.7920    5.7420   80.3310 C.2   164  PHE164      0.2595
     15  O         43.4410    6.7830   80.1860 O.2   164  PHE164     -0.2718
     16  CB        43.3660    3.5140   79.3460 C.3   164  PHE164      0.0547
     17  CG        43.9810    4.1310   78.1240 C.ar  164  PHE164     -0.0202
     18  CD1       45.3280    3.9520   77.8540 C.ar  164  PHE164     -0.0042
     19  CD2       43.2310    4.9570   77.2900 C.ar  164  PHE164     -0.0042
     20  CE1       45.9100    4.5520   76.7560 C.ar  164  PHE164     -0.0003
     21  CE2       43.7990    5.5600   76.1800 C.ar  164  PHE164     -0.0003
     22  CZ        45.1380    5.3630   75.9090 C.ar  164  PHE164     -0.0000
     23  N         41.4640    5.7250   80.2660 N.am  165  ASN165     -0.1974
     24  CA        40.7220    6.9420   79.9450 C.3   165  ASN165      0.1688
     25  C         40.9330    8.0290   80.9940 C.2   165  ASN165      0.2292
     26  O         41.0010    9.2200   80.6520 O.2   165  ASN165     -0.2864
     27  CB        39.2320    6.6280   79.7790 C.3   165  ASN165      0.1181
     28  CG        38.9700    5.5540   78.7090 C.2   165  ASN165      0.2629
     29  OD1       38.0170    4.7770   78.8250 O.2   165  ASN165     -0.2716
     30  ND2       39.8170    5.5050   77.6750 N.am  165  ASN165     -0.0877
     31  N         44.2220    9.9440   80.3100 N.3   168  MET168     -0.1230
     32  CA        44.1100   10.9140   79.2310 C.3   168  MET168      0.1702
     33  C         43.2630   12.1060   79.6630 C.2   168  MET168      0.2592
     34  O         43.6370   13.2670   79.4310 O.2   168  MET168     -0.2718
     35  CB        43.5400   10.2340   77.9770 C.3   168  MET168      0.0401
     36  CG        44.4400    9.0660   77.4270 C.3   168  MET168      0.0596
     37  SD        46.1310    9.5310   76.9260 S.3   168  MET168     -0.1393
     38  CE        47.1350    8.8150   78.2040 C.3   168  MET168      0.0692
     39  N         42.1450   11.8470   80.3390 N.am  169  ALA169     -0.1980
     40  CA        41.2690   12.9390   80.7490 C.3   169  ALA169      0.1597
     41  C         41.9760   13.8980   81.7100 C.2   169  ALA169      0.2287
     42  O         41.8780   15.1240   81.5580 O.2   169  ALA169     -0.2864
     43  CB        39.9930   12.3700   81.3740 C.3   169  ALA169      0.0319
     44  N         44.5210   16.0900   79.5990 N.3   172  SER172     -0.1217
     45  CA        44.0320   17.0930   78.6590 C.3   172  SER172      0.1889
     46  C         43.1320   18.1280   79.3250 C.2   172  SER172      0.2288
     47  O         42.9350   19.2090   78.7570 O.2   172  SER172     -0.2866
     48  CB        43.3420   16.4280   77.4540 C.3   172  SER172      0.2089
     49  OG        42.4090   15.4440   77.8260 O.3   172  SER172     -0.2183
     50  N         35.9630   16.2020   68.0250 N.3   194  ASP194     -0.1239
     51  CA        37.1590   15.6640   68.6680 C.3   194  ASP194      0.1674
     52  C         37.2810   14.1930   68.2870 C.2   194  ASP194      0.2266
     53  O         36.5700   13.3380   68.8230 O.2   194  ASP194     -0.2867
     54  CB        37.0750   15.8460   70.1750 C.3   194  ASP194      0.1410
     55  CG        38.4280   15.7190   70.8640 C.2   194  ASP194      0.3668
     56  OD1       39.3570   15.1330   70.2670 O.co2 194  ASP194     -0.2456
     57  OD2       38.5540   16.1910   72.0170 O.co2 194  ASP194     -0.2456
     58  N         38.7690   10.6820   68.4300 N.3   196  GLY196     -0.1210
     59  CA        39.4900   10.0240   69.5070 C.3   196  GLY196      0.1956
     60  C         39.5290   10.8710   70.7620 C.2   196  GLY196      0.2612
     61  O         40.5320   10.8520   71.4930 O.2   196  GLY196     -0.2717
     62  N         38.4500   11.6210   71.0300 N.am  197  GLY197     -0.1942
     63  CA        38.3760   12.5080   72.1770 C.3   197  GLY197      0.2014
     64  C         38.3040   11.8230   73.5250 C.2   197  GLY197      0.2639
     65  O         38.2510   12.5160   74.5470 O.2   197  GLY197     -0.2714
     66  N         38.3070   10.4940   73.5630 N.am  198  GLY198     -0.1939
     67  CA        38.3300    9.8170   74.8480 C.3   198  GLY198      0.2014
     68  C         37.0520   10.0970   75.6190 C.2   198  GLY198      0.2639
     69  O         35.9370    9.9850   75.0900 O.2   198  GLY198     -0.2714
     70  N         37.2110   10.4860   76.8870 N.am  199  SER199     -0.1949
     71  CA        36.0900   10.7460   77.7860 C.3   199  SER199      0.1924
     72  C         35.4430   12.1150   77.5790 C.2   199  SER199      0.2314
     73  O         34.5350   12.4630   78.3380 O.2   199  SER199     -0.2863
     74  CB        36.5520   10.6170   79.2410 C.3   199  SER199      0.2116
     75  OG        37.2890   11.7680   79.6200 O.3   199  SER199     -0.2180
     76  N         36.9020   15.1230   77.9180 N.3   201  ALA201     -0.1231
     77  CA        37.4360   16.1730   78.7870 C.3   201  ALA201      0.1694
     78  C         37.8710   17.4050   77.9950 C.2   201  ALA201      0.2592
     79  O         37.6260   18.5380   78.4230 O.2   201  ALA201     -0.2718
     80  CB        38.6080   15.6240   79.6080 C.3   201  ALA201      0.0304
     81  N         38.5270   17.1990   76.8440 N.am  202  THR202     -0.1953
     82  CA        39.0010   18.3120   76.0190 C.3   202  THR202      0.1897
     83  C         37.8430   19.1740   75.5350 C.2   202  THR202      0.2313
     84  O         37.9160   20.4090   75.5860 O.2   202  THR202     -0.2863
     85  CB        39.8040   17.7910   74.8200 C.3   202  THR202      0.1794
     86  OG1       41.0320   17.2160   75.2720 O.3   202  THR202     -0.2208
     87  CG2       40.1290   18.9170   73.8630 C.3   202  THR202      0.0378
     88  N         34.0770   12.0020   69.6890 N.3   218  PHE218     -0.1227
     89  CA        34.0670   10.8080   68.8530 C.3   218  PHE218      0.1736
     90  C         35.1560    9.8610   69.3340 C.2   218  PHE218      0.2595
     91  O         36.3340   10.2350   69.3670 O.2   218  PHE218     -0.2718
     92  CB        34.2860   11.1910   67.3880 C.3   218  PHE218      0.0547
     93  CG        34.2010   10.0360   66.4110 C.ar  218  PHE218     -0.0202
     94  CD1       33.0640    9.2500   66.3220 C.ar  218  PHE218     -0.0042
     95  CD2       35.2530    9.7660   65.5510 C.ar  218  PHE218     -0.0042
     96  CE1       32.9910    8.1960   65.3990 C.ar  218  PHE218     -0.0003
     97  CE2       35.1790    8.7160   64.6230 C.ar  218  PHE218     -0.0003
     98  CZ        34.0510    7.9330   64.5550 C.ar  218  PHE218     -0.0000
     99  N         34.7720    8.6390   69.6890 N.am  219  ASP219     -0.1960
    100  CA        35.7490    7.6400   70.1110 C.3   219  ASP219      0.1840
    101  C         35.1360    6.2590   69.9060 C.2   219  ASP219      0.2621
    102  O         34.0240    6.1220   69.3910 O.2   219  ASP219     -0.2715
    103  CB        36.1840    7.8640   71.5690 C.3   219  ASP219      0.1450
    104  CG        37.6100    7.3880   71.8370 C.2   219  ASP219      0.3671
    105  OD1       37.8640    6.1600   71.8120 O.co2 219  ASP219     -0.2456
    106  OD2       38.4890    8.2380   72.0760 O.co2 219  ASP219     -0.2456
    107  N         35.8800    5.2330   70.3150 N.am  220  LEU220     -0.1977
    108  CA        35.4060    3.8610   70.2220 C.3   220  LEU220      0.1596
    109  C         34.2450    3.6080   71.1920 C.2   220  LEU220      0.2287
    110  O         34.1280    4.2630   72.2340 O.2   220  LEU220     -0.2864
    111  CB        36.5450    2.8850   70.5160 C.3   220  LEU220      0.0297
    112  CG        37.6990    2.9030   69.5050 C.3   220  LEU220      0.0022
    113  CD1       38.8310    1.9700   69.9570 C.3   220  LEU220      0.0001
    114  CD2       37.1800    2.5160   68.1310 C.3   220  LEU220      0.0001
    115  N         33.5100    1.3700   73.4760 N.3   222  HIS222     -0.1226
    116  CA        33.7660    1.0690   74.8810 C.3   222  HIS222      0.1752
    117  C         34.2800    2.2870   75.6390 C.2   222  HIS222      0.2595
    118  O         34.2330    2.3100   76.8730 O.2   222  HIS222     -0.2718
    119  CB        34.7350   -0.1110   74.9990 C.3   222  HIS222      0.0759
    120  CG        36.1030    0.1690   74.4570 C.ar  222  HIS222      0.0818
    121  ND1       36.4320   -0.0220   73.1330 N.ar  222  HIS222     -0.2268
    122  CD2       37.2260    0.6240   75.0620 C.ar  222  HIS222      0.1154
    123  CE1       37.7010    0.2960   72.9460 C.ar  222  HIS222      0.1986
    124  NE2       38.2050    0.7000   74.0980 N.ar  222  HIS222     -0.2212
    125  N         34.7340    3.3180   74.9410 N.am  223  VAL223     -0.1980
    126  CA        35.1690    4.5230   75.6320 C.3   223  VAL223      0.1595
    127  C         34.0080    5.4820   75.8480 C.2   223  VAL223      0.2287
    128  O         33.7740    5.9470   76.9650 O.2   223  VAL223     -0.2864
    129  CB        36.3300    5.1870   74.8650 C.3   223  VAL223      0.0276
    130  CG1       36.7100    6.5020   75.5340 C.3   223  VAL223      0.0022
    131  CG2       37.5370    4.2320   74.7910 C.3   223  VAL223      0.0022
    132  N         32.1500    5.1250   67.3720 N.3   238  GLY238     -0.1210
    133  CA        32.4370    4.7790   65.9930 C.3   238  GLY238      0.1956
    134  C         33.8640    4.3360   65.8010 C.2   238  GLY238      0.2612
    135  O         34.5510    3.9850   66.7590 O.2   238  GLY238     -0.2717
    136  N         34.3120    4.3770   64.5420 N.am  239  ASP239     -0.1959
    137  CA        35.6650    3.9610   64.1570 C.3   239  ASP239      0.1840
    138  C         36.2250    5.0020   63.1960 C.2   239  ASP239      0.2622
    139  O         35.7180    5.1450   62.0770 O.2   239  ASP239     -0.2715
    140  CB        35.6550    2.5780   63.4970 C.3   239  ASP239      0.1450
    141  CG        37.0460    2.1540   62.9920 C.2   239  ASP239      0.3671
    142  OD1       38.0360    2.8530   63.2860 O.co2 239  ASP239     -0.2456
    143  OD2       37.1570    1.1190   62.3060 O.co2 239  ASP239     -0.2456
    144  N         37.2800    5.7160   63.6080 N.am  240  MET240     -0.1963
    145  CA        37.7720    6.8090   62.7690 C.3   240  MET240      0.1736
    146  C         38.2750    6.3040   61.4210 C.2   240  MET240      0.2616
    147  O         38.3420    7.0840   60.4630 O.2   240  MET240     -0.2715
    148  CB        38.8250    7.6500   63.5010 C.3   240  MET240      0.0427
    149  CG        40.1680    6.9630   63.8070 C.3   240  MET240      0.0599
    150  SD        41.1930    7.8160   65.0030 S.3   240  MET240     -0.1393
    151  CE        41.3990    9.4220   64.2780 C.3   240  MET240      0.0692
    152  N         38.5670    5.0130   61.2910 N.am  241  PHE241     -0.1974
    153  CA        38.9570    4.5150   59.9800 C.3   241  PHE241      0.1639
    154  C         37.7620    4.1790   59.1050 C.2   241  PHE241      0.2290
    155  O         37.9150    4.1140   57.8840 O.2   241  PHE241     -0.2864
    156  CB        39.8850    3.3020   60.1220 C.3   241  PHE241      0.0560
    157  CG        41.1910    3.6370   60.7840 C.ar  241  PHE241     -0.0200
    158  CD1       42.2310    4.1930   60.0520 C.ar  241  PHE241     -0.0042
    159  CD2       41.3730    3.4080   62.1420 C.ar  241  PHE241     -0.0042
    160  CE1       43.4530    4.5190   60.6700 C.ar  241  PHE241     -0.0003
    161  CE2       42.5830    3.7240   62.7760 C.ar  241  PHE241     -0.0003
    162  CZ        43.6280    4.2870   62.0330 C.ar  241  PHE241     -0.0000
    163  N         43.9240   15.2600   69.3250 N.3   253  LYS253     -0.1231
    164  CA        44.9730   15.4070   70.3260 C.3   253  LYS253      0.1693
    165  C         45.4930   14.0270   70.7140 C.2   253  LYS253      0.2592
    166  O         44.7230   13.1840   71.1850 O.2   253  LYS253     -0.2718
    167  CB        44.4620   16.1470   71.5650 C.3   253  LYS253      0.0285
    168  CG        45.5480   16.3120   72.6220 C.3   253  LYS253      0.0035
    169  CD        45.0020   16.8270   73.9400 C.3   253  LYS253      0.0206
    170  CE        46.0210   16.6540   75.0590 C.3   253  LYS253      0.1093
    171  NZ        46.1630   15.2230   75.5220 N.3   253  LYS253     -0.1314
    172  N         46.8000   13.8030   70.5290 N.am  254  TRP254     -0.1962
    173  CA        47.4420   12.5570   70.9480 C.3   254  TRP254      0.1771
    174  C         46.8770   11.3540   70.1910 C.2   254  TRP254      0.2619
    175  O         46.7760   10.2530   70.7260 O.2   254  TRP254     -0.2715
    176  CB        47.3210   12.3610   72.4690 C.3   254  TRP254      0.0590
    177  CG        48.5290   12.8650   73.2280 C.ar  254  TRP254      0.0006
    178  CD1       49.6570   13.4160   72.6930 C.ar  254  TRP254      0.0946
    179  CD2       48.7260   12.8550   74.6460 C.ar  254  TRP254      0.0152
    180  NE1       50.5450   13.7440   73.6830 N.ar  254  TRP254     -0.2442
    181  CE2       49.9960   13.4190   74.8940 C.ar  254  TRP254      0.0810
    182  CE3       47.9530   12.4310   75.7300 C.ar  254  TRP254      0.0012
    183  CZ2       50.5150   13.5630   76.1840 C.ar  254  TRP254      0.0191
    184  CZ3       48.4730   12.5780   77.0180 C.ar  254  TRP254      0.0001
    185  CH2       49.7370   13.1360   77.2300 C.ar  254  TRP254      0.0015
    186  N         46.4950   11.5650   68.9410 N.am  255  ILE255     -0.1977
    187  CA        45.9840   10.5010   68.0880 C.3   255  ILE255      0.1596
    188  C         47.1300   10.0050   67.2210 C.2   255  ILE255      0.2287
    189  O         47.5350    8.8390   67.3080 O.2   255  ILE255     -0.2864
    190  CB        44.8150   11.0090   67.2140 C.3   255  ILE255      0.0276
    191  CG1       43.6500   11.4970   68.0820 C.3   255  ILE255      0.0022
    192  CG2       44.3740    9.9380   66.2350 C.3   255  ILE255      0.0022
    193  CD1       43.1380   10.4550   69.0650 C.3   255  ILE255      0.0001
    194  N         50.3450   10.2970   67.1000 N.3   257  HIS257     -0.1226
    195  CA        51.5250    9.6680   67.6290 C.3   257  HIS257      0.1752
    196  C         51.3450    8.1940   67.9120 C.2   257  HIS257      0.2597
    197  O         52.2700    7.5280   68.2310 O.2   257  HIS257     -0.2718
    198  CB        52.0360   10.3940   68.8530 C.3   257  HIS257      0.0759
    199  CG        51.2150   10.1780   70.0670 C.ar  257  HIS257      0.0818
    200  ND1       51.6730   10.4700   71.3200 N.ar  257  HIS257     -0.2268
    201  CD2       49.9640    9.7120   70.2250 C.ar  257  HIS257      0.1154
    202  CE1       50.7380   10.1970   72.2000 C.ar  257  HIS257      0.1986
    203  NE2       49.6920    9.7300   71.5610 N.ar  257  HIS257     -0.2212
    204  N         50.1490    7.6930   67.7480 N.am  258  SER258     -0.1938
    205  CA        49.8420    6.2970   68.0040 C.3   258  SER258      0.2055
    206  C         49.7180    5.4610   66.7260 C.2   258  SER258      0.2643
    207  O         49.4780    4.2570   66.8120 O.2   258  SER258     -0.2714
    208  CB        48.5520    6.2190   68.8280 C.3   258  SER258      0.2130
    209  OG        48.3510    4.9250   69.3150 O.3   258  SER258     -0.2179
    210  N         49.8910    6.0610   65.5510 N.am  259  TRP259     -0.1973
    211  CA        49.6520    5.3790   64.2890 C.3   259  TRP259      0.1640
    212  C         50.7970    5.6360   63.3260 C.2   259  TRP259      0.2290
    213  O         51.4000    6.7150   63.3270 O.2   259  TRP259     -0.2864
    214  CB        48.3460    5.8360   63.6660 C.3   259  TRP259      0.0576
    215  CG        47.2270    5.5650   64.5690 C.ar  259  TRP259      0.0006
    216  CD1       46.7130    6.4000   65.5190 C.ar  259  TRP259      0.0946
    217  CD2       46.5090    4.3440   64.6710 C.ar  259  TRP259      0.0152
    218  NE1       45.7080    5.7760   66.2000 N.ar  259  TRP259     -0.2442
    219  CE2       45.5610    4.5060   65.7000 C.ar  259  TRP259      0.0810
    220  CE3       46.5730    3.1200   63.9910 C.ar  259  TRP259      0.0012
    221  CZ2       44.6760    3.4920   66.0660 C.ar  259  TRP259      0.0191
    222  CZ3       45.6840    2.1110   64.3500 C.ar  259  TRP259      0.0001
    223  CH2       44.7450    2.3080   65.3770 C.ar  259  TRP259      0.0015
@<TRIPOS>BOND
     1   155   154    2
     2   154   153    1
     3   153   156    1
     4   153   152    1
     5   158   160   ar
     6   158   157   ar
     7   156   157    1
     8   147   146    2
     9   160   162   ar
    10   157   159   ar
    11   152   146   am
    12   146   145    1
    13   162   161   ar
    14   139   138    2
    15   159   161   ar
    16   143   141   ar
    17   145   148    1
    18   145   144    1
    19   141   142   ar
    20   141   140    1
    21   138   144   am
    22   138   137    1
    23   212   213    2
    24   212   211    1
    25   140   137    1
    26   148   149    1
    27   214   211    1
    28   214   215    1
    29   149   150    1
    30   220   222   ar
    31   220   217   ar
    32   137   136    1
    33   151   150    1
    34   211   210    1
    35   222   223   ar
    36   136   134   am
    37    98    97   ar
    38    98    96   ar
    39   215   217   ar
    40   215   216   ar
    41    97    95   ar
    42   217   219   ar
    43   223   221   ar
    44    96    94   ar
    45   216   218   ar
    46    95    93   ar
    47   210   206   am
    48   219   221   ar
    49   219   218   ar
    50   134   133    1
    51   134   135    2
    52   133   132    1
    53   192   190    1
    54    94    93   ar
    55    93    92    1
    56   206   207    2
    57   206   205    1
    58   194   195    1
    59   190   191    1
    60   190   187    1
    61   188   189    2
    62   188   187    1
    63    92    89    1
    64   195   196    1
    65   195   198    1
    66   204   196   am
    67   204   205    1
    68   196   197    2
    69   205   208    1
    70    50    51    1
    71   191   193    1
    72   187   186    1
    73   114   112    1
    74    52    51    1
    75    52    53    2
    76    58    59    1
    77    51    54    1
    78   208   209    1
    79    89    90    1
    80    89    88    1
    81   198   199    1
    82   186   174   am
    83   163   164    1
    84    90    91    2
    85    90    99   am
    86   102   101    2
    87   112   113    1
    88   112   111    1
    89    59    60    1
    90    10     8   ar
    91    10    11   ar
    92    99   100    1
    93     8     6   ar
    94   101   100    1
    95   101   107   am
    96   199   201   ar
    97   199   200   ar
    98   100   103    1
    99    54    55    1
   100   174   175    2
   101   174   173    1
   102   108   107    1
   103   108   111    1
   104   108   109    1
   105   201   203   ar
   106    56    55   ar
   107   164   165    1
   108   164   167    1
   109   172   165   am
   110   172   173    1
   111    11     9   ar
   112   165   166    2
   113    60    62   am
   114    60    61    2
   115    55    57   ar
   116     6     5    1
   117     6     7   ar
   118   173   176    1
   119    62    63    1
   120     5     2    1
   121   109   110    2
   122   200   202   ar
   123   203   202   ar
   124   167   168    1
   125   103   104    1
   126     9     7   ar
   127   105   104   ar
   128   104   106   ar
   129    63    64    1
   130     2     1    1
   131     2     3    1
   132     3     4    2
   133   176   177    1
   134   168   169    1
   135   178   177   ar
   136   178   180   ar
   137   123   121   ar
   138   123   124   ar
   139   121   120   ar
   140   177   179   ar
   141   115   116    1
   142    64    66   am
   143    64    65    2
   144    66    67    1
   145   180   181   ar
   146    87    85    1
   147   169   170    1
   148   124   122   ar
   149   120   119    1
   150   120   122   ar
   151   179   181   ar
   152   179   182   ar
   153   131   129    1
   154    85    86    1
   155    85    82    1
   156    67    68    1
   157   129   130    1
   158   129   126    1
   159   116   119    1
   160   116   117    1
   161   181   183   ar
   162   125   126    1
   163   125   117   am
   164   170   171    1
   165    69    68    2
   166    83    84    2
   167    83    82    1
   168    68    70   am
   169   126   127    1
   170   117   118    2
   171   182   184   ar
   172   127   128    2
   173    22    21   ar
   174    22    20   ar
   175    82    81    1
   176    21    19   ar
   177   183   185   ar
   178    20    18   ar
   179    81    78   am
   180    70    71    1
   181    37    36    1
   182    37    38    1
   183   184   185   ar
   184    19    17   ar
   185    36    35    1
   186    48    49    1
   187    48    45    1
   188    72    71    1
   189    72    73    2
   190    30    28   am
   191    71    74    1
   192    18    17   ar
   193    76    77    1
   194    35    32    1
   195    78    79    2
   196    78    77    1
   197    17    16    1
   198    45    46    1
   199    45    44    1
   200    28    29    2
   201    28    27    1
   202    47    46    2
   203    77    80    1
   204    32    33    1
   205    32    31    1
   206    74    75    1
   207    16    13    1
   208    34    33    2
   209    33    39   am
   210    27    24    1
   211    24    23    1
   212    24    25    1
   213    15    14    2
   214    23    14   am
   215    14    13    1
   216    39    40    1
   217    13    12    1
   218    26    25    2
   219    40    43    1
   220    40    41    1
   221    42    41    2
