@<TRIPOS>MOLECULE
tmp/5xoiA00.pdb
 159 148 0 0 0
SMALL
GASTEIGER

@<TRIPOS>ATOM
      1  N         19.5910   30.4960    9.3040 N.3    44  ARG44      -0.1245
      2  CA        20.9510   31.0150    9.3630 C.3    44  ARG44       0.1563
      3  C         21.4310   31.2980    7.9510 C.2    44  ARG44       0.2260
      4  O         21.2020   30.4990    7.0380 O.2    44  ARG44      -0.2867
      5  CB        21.9280   30.0410   10.0520 C.3    44  ARG44       0.0307
      6  CG        21.6870   29.8500   11.5640 C.3    44  ARG44       0.0489
      7  CD        22.0280   31.1070   12.3970 C.3    44  ARG44       0.2205
      8  NE        23.4210   31.5000   12.2190 N.pl3  44  ARG44      -0.0865
      9  CZ        24.4080   31.2720   13.0840 C.cat  44  ARG44       0.5346
     10  NH1       24.1760   30.6890   14.2600 N.pl3  44  ARG44       0.1354
     11  NH2       25.6350   31.6590   12.7680 N.pl3  44  ARG44       0.1354
     12  N         28.1110   35.0930   20.0200 N.3   122  LEU122     -0.1245
     13  CA        27.2480   34.0590   19.4780 C.3   122  LEU122      0.1561
     14  C         27.8000   32.7120   19.9310 C.2   122  LEU122      0.2260
     15  O         28.9370   32.3640   19.5990 O.2   122  LEU122     -0.2867
     16  CB        27.1960   34.1460   17.9550 C.3   122  LEU122      0.0270
     17  CG        25.8690   33.8310   17.2750 C.3   122  LEU122      0.0019
     18  CD1       25.9810   34.1020   15.7890 C.3   122  LEU122      0.0001
     19  CD2       25.4820   32.3850   17.5230 C.3   122  LEU122      0.0001
     20  N         27.3800   28.8850   19.4390 N.3   124  ASN124     -0.1240
     21  CA        26.8480   27.8670   18.5340 C.3   124  ASN124      0.1653
     22  C         27.1770   26.4920   19.0920 C.2   124  ASN124      0.2266
     23  O         28.3390   26.2170   19.4080 O.2   124  ASN124     -0.2867
     24  CB        27.4740   27.9800   17.1370 C.3   124  ASN124      0.1155
     25  CG        27.1240   29.2730   16.4310 C.2   124  ASN124      0.2627
     26  OD1       25.9610   29.5010   16.0820 O.2   124  ASN124     -0.2716
     27  ND2       28.1350   30.1270   16.1960 N.am  124  ASN124     -0.0877
     28  N         27.0370   22.5280   17.8520 N.3   126  TYR126     -0.1241
     29  CA        26.8670   21.5750   16.7640 C.3   126  TYR126      0.1605
     30  C         26.9200   20.1720   17.3420 C.2   126  TYR126      0.2264
     31  O         27.8720   19.8450   18.0510 O.2   126  TYR126     -0.2867
     32  CB        28.0030   21.6980   15.7340 C.3   126  TYR126      0.0534
     33  CG        28.2320   23.0550   15.1020 C.ar  126  TYR126     -0.0201
     34  CD1       28.9180   24.0490   15.7800 C.ar  126  TYR126     -0.0009
     35  CD2       27.7850   23.3200   13.8130 C.ar  126  TYR126     -0.0009
     36  CE1       29.1480   25.2940   15.1910 C.ar  126  TYR126      0.0417
     37  CE2       28.0030   24.5570   13.2140 C.ar  126  TYR126      0.0417
     38  CZ        28.6880   25.5330   13.9040 C.ar  126  TYR126      0.1957
     39  OH        28.9020   26.7460   13.2860 O.3   126  TYR126     -0.2866
     40  N         27.3800   24.5590    8.9810 N.3   132  LEU132     -0.1245
     41  CA        26.9440   25.9520    8.8440 C.3   132  LEU132      0.1561
     42  C         27.4940   26.4480    7.5170 C.2   132  LEU132      0.2260
     43  O         28.7110   26.4130    7.3150 O.2   132  LEU132     -0.2867
     44  CB        27.4440   26.8240   10.0010 C.3   132  LEU132      0.0270
     45  CG        27.1210   28.3210    9.9270 C.3   132  LEU132      0.0019
     46  CD1       25.5950   28.5650    9.9290 C.3   132  LEU132      0.0001
     47  CD2       27.8190   29.1370   11.0340 C.3   132  LEU132      0.0001
     48  N         28.9870   32.1870    4.7040 N.3   135  HIS135     -0.1241
     49  CA        28.3290   33.4650    4.9330 C.3   135  HIS135      0.1621
     50  C         29.3820   34.4810    5.3610 C.2   135  HIS135      0.2264
     51  O         30.4790   34.1250    5.8020 O.2   135  HIS135     -0.2867
     52  CB        27.2700   33.3610    6.0320 C.3   135  HIS135      0.0745
     53  CG        27.8730   33.0480    7.3610 C.ar  135  HIS135      0.0817
     54  ND1       28.2390   31.7670    7.7230 N.ar  135  HIS135     -0.2268
     55  CD2       28.2590   33.8540    8.3750 C.ar  135  HIS135      0.1154
     56  CE1       28.7900   31.7970    8.9240 C.ar  135  HIS135      0.1986
     57  NE2       28.8190   33.0480    9.3390 N.ar  135  HIS135     -0.2212
     58  N         30.0250   37.7360    8.0610 N.3   137  ASP137     -0.1239
     59  CA        29.5490   38.3940    9.2810 C.3   137  ASP137      0.1674
     60  C         29.3220   39.8520    8.9120 C.2   137  ASP137      0.2266
     61  O         30.1960   40.7040    9.0680 O.2   137  ASP137     -0.2867
     62  CB        30.5530   38.2550   10.4190 C.3   137  ASP137      0.1410
     63  CG        30.5680   36.8550   11.0260 C.2   137  ASP137      0.3668
     64  OD1       29.7980   35.9670   10.5820 O.co2 137  ASP137     -0.2456
     65  OD2       31.3610   36.6480   11.9640 O.co2 137  ASP137     -0.2456
     66  N         36.9230   33.9600   17.5860 N.3   153  SER153     -0.1217
     67  CA        36.1410   32.7240   17.6550 C.3   153  SER153      0.1889
     68  C         36.8620   31.6700   18.4920 C.2   153  SER153      0.2288
     69  O         37.9910   31.2830   18.1660 O.2   153  SER153     -0.2866
     70  CB        35.8840   32.1900   16.2410 C.3   153  SER153      0.2089
     71  OG        35.4780   30.8370   16.2480 O.3   153  SER153     -0.2183
     72  N         36.7370   24.0500    8.9050 N.3   162  PHE162     -0.1241
     73  CA        36.3090   25.4420    8.7600 C.3   162  PHE162      0.1605
     74  C         36.6970   25.9280    7.3700 C.2   162  PHE162      0.2264
     75  O         37.8640   25.8260    6.9780 O.2   162  PHE162     -0.2867
     76  CB        36.9510   26.3060    9.8550 C.3   162  PHE162      0.0534
     77  CG        36.5360   27.7590    9.8420 C.ar  162  PHE162     -0.0203
     78  CD1       35.3500   28.1680   10.4460 C.ar  162  PHE162     -0.0042
     79  CD2       37.3610   28.7280    9.2750 C.ar  162  PHE162     -0.0042
     80  CE1       34.9790   29.5010   10.4640 C.ar  162  PHE162     -0.0003
     81  CE2       36.9880   30.0780    9.2960 C.ar  162  PHE162     -0.0003
     82  CZ        35.7980   30.4580    9.8870 C.ar  162  PHE162     -0.0000
     83  N         39.7160   23.5460   13.0000 N.3   178  LEU178     -0.1245
     84  CA        39.6420   24.2500   14.2740 C.3   178  LEU178      0.1561
     85  C         39.4420   23.1960   15.3510 C.2   178  LEU178      0.2260
     86  O         38.3720   22.5780   15.4340 O.2   178  LEU178     -0.2867
     87  CB        38.5200   25.2870   14.2750 C.3   178  LEU178      0.0270
     88  CG        38.6240   26.3680   13.1880 C.3   178  LEU178      0.0019
     89  CD1       37.4120   27.3030   13.2460 C.3   178  LEU178      0.0001
     90  CD2       39.9050   27.1600   13.3490 C.3   178  LEU178      0.0001
     91  N         39.6500   36.9400   12.6930 N.3   186  PHE186     -0.1241
     92  CA        39.7100   37.5840   11.3850 C.3   186  PHE186      0.1605
     93  C         39.2270   39.0290   11.4820 C.2   186  PHE186      0.2264
     94  O         38.1090   39.2980   11.9360 O.2   186  PHE186     -0.2867
     95  CB        38.9640   36.7950   10.2790 C.3   186  PHE186      0.0534
     96  CG        37.5580   36.2980   10.6160 C.ar  186  PHE186     -0.0203
     97  CD1       37.3600   35.1210   11.3370 C.ar  186  PHE186     -0.0042
     98  CD2       36.4420   36.9310   10.0740 C.ar  186  PHE186     -0.0042
     99  CE1       36.0740   34.6320   11.5820 C.ar  186  PHE186     -0.0003
    100  CE2       35.1570   36.4510   10.3100 C.ar  186  PHE186     -0.0003
    101  CZ        34.9690   35.3050   11.0750 C.ar  186  PHE186     -0.0000
    102  N         32.6870   32.3620    5.2120 N.3   195  HIS195     -0.1226
    103  CA        33.2250   31.3050    6.0650 C.3   195  HIS195      0.1752
    104  C         32.0860   30.4230    6.5550 C.2   195  HIS195      0.2597
    105  O         30.9060   30.7820    6.4790 O.2   195  HIS195     -0.2718
    106  CB        34.0110   31.8770    7.2550 C.3   195  HIS195      0.0759
    107  CG        33.2000   32.7940    8.1090 C.ar  195  HIS195      0.0818
    108  ND1       32.9810   34.1150    7.7750 N.ar  195  HIS195     -0.2268
    109  CD2       32.4980   32.5670    9.2430 C.ar  195  HIS195      0.1154
    110  CE1       32.1970   34.6660    8.6830 C.ar  195  HIS195      0.1986
    111  NE2       31.8840   33.7460    9.5780 N.ar  195  HIS195     -0.2212
    112  N         32.4540   29.2430    7.0360 N.am  196  GLY196     -0.1942
    113  CA        31.4420   28.3300    7.5400 C.3   196  GLY196      0.2014
    114  C         32.0800   27.0580    8.0540 C.2   196  GLY196      0.2638
    115  O         33.3080   26.9240    8.1060 O.2   196  GLY196     -0.2714
    116  N         31.2210   26.1110    8.4270 N.am  197  VAL197     -0.1977
    117  CA        31.6640   24.8530    9.0220 C.3   197  VAL197      0.1596
    118  C         31.1280   23.7400    8.1300 C.2   197  VAL197      0.2287
    119  O         29.9080   23.5480    8.0310 O.2   197  VAL197     -0.2864
    120  CB        31.1950   24.6920   10.4770 C.3   197  VAL197      0.0276
    121  CG1       31.5170   23.2790   10.9750 C.3   197  VAL197      0.0022
    122  CG2       31.8920   25.7070   11.3860 C.3   197  VAL197      0.0022
    123  N         30.4920   20.0070   19.1520 N.3   219  ARG219     -0.1245
    124  CA        31.4240   21.1250   19.2090 C.3   219  ARG219      0.1563
    125  C         30.7240   22.3820   19.7020 C.2   219  ARG219      0.2260
    126  O         29.6200   22.7050   19.2570 O.2   219  ARG219     -0.2867
    127  CB        32.0480   21.3880   17.8270 C.3   219  ARG219      0.0307
    128  CG        32.8780   22.6830   17.7460 C.3   219  ARG219      0.0489
    129  CD        33.5230   22.8430   16.3740 C.3   219  ARG219      0.2205
    130  NE        34.2230   24.1270   16.2240 N.pl3 219  ARG219     -0.0865
    131  CZ        33.6880   25.2420   15.7160 C.cat 219  ARG219      0.5346
    132  NH1       32.4240   25.2800   15.2910 N.pl3 219  ARG219      0.1354
    133  NH2       34.4240   26.3410   15.6340 N.pl3 219  ARG219      0.1354
    134  N         31.1540   26.5030   19.8760 N.3   221  ASN221     -0.1240
    135  CA        31.8480   27.6700   19.3530 C.3   221  ASN221      0.1653
    136  C         31.3210   28.9130   20.0540 C.2   221  ASN221      0.2266
    137  O         30.1220   29.0210   20.3220 O.2   221  ASN221     -0.2867
    138  CB        31.6470   27.7900   17.8310 C.3   221  ASN221      0.1155
    139  CG        31.9610   29.1820   17.3050 C.2   221  ASN221      0.2627
    140  OD1       31.0600   29.9720   17.0310 O.2   221  ASN221     -0.2716
    141  ND2       33.2410   29.4800   17.1490 N.am  221  ASN221     -0.0877
    142  N         31.6030   32.9850   19.2800 N.3   223  THR223     -0.1218
    143  CA        32.0560   33.9460   18.2830 C.3   223  THR223      0.1862
    144  C         31.7800   35.3470   18.8060 C.2   223  THR223      0.2287
    145  O         30.6150   35.7100   19.0050 O.2   223  THR223     -0.2866
    146  CB        31.3510   33.6860   16.9500 C.3   223  THR223      0.1770
    147  OG1       31.8800   32.4760   16.3860 O.3   223  THR223     -0.2211
    148  CG2       31.5930   34.8340   15.9840 C.3   223  THR223      0.0375
    149  N         32.0050   39.5470   18.6480 N.3   225  ARG225     -0.1245
    150  CA        32.0800   40.6860   17.7390 C.3   225  ARG225      0.1563
    151  C         31.7470   41.9730   18.4820 C.2   225  ARG225      0.2260
    152  O         31.2010   41.9650   19.5880 O.2   225  ARG225     -0.2867
    153  CB        31.1280   40.5150   16.5410 C.3   225  ARG225      0.0307
    154  CG        31.5690   39.4500   15.5010 C.3   225  ARG225      0.0489
    155  CD        30.6490   38.2180   15.3280 C.3   225  ARG225      0.2205
    156  NE        29.1960   38.4800   15.3430 N.pl3 225  ARG225     -0.0865
    157  CZ        28.3150   37.5960   15.8530 C.cat 225  ARG225      0.5346
    158  NH1       28.7340   36.4480   16.3760 N.pl3 225  ARG225      0.1354
    159  NH2       26.9930   37.8550   15.8420 N.pl3 225  ARG225      0.1354
@<TRIPOS>BOND
     1    48    49    1
     2    49    50    1
     3    49    52    1
     4   102   103    1
     5    50    51    2
     6    52    53    1
     7   103   104    1
     8   103   106    1
     9   105   104    2
    10   104   112   am
    11    75    74    2
    12   112   113    1
    13     4     3    2
    14   106   107    1
    15    43    42    2
    16    53    54   ar
    17    53    55   ar
    18    74    73    1
    19    42    41    1
    20   113   114    1
    21    54    56   ar
    22   108   107   ar
    23   108   110   ar
    24     3     2    1
    25   119   118    2
    26   114   115    2
    27   114   116   am
    28    58    59    1
    29   107   109   ar
    30   118   117    1
    31    55    57   ar
    32   116   117    1
    33   110   111   ar
    34    73    72    1
    35    73    76    1
    36    41    40    1
    37    41    44    1
    38    60    61    2
    39    60    59    1
    40    56    57   ar
    41   117   120    1
    42   109   111   ar
    43    79    81   ar
    44    79    77   ar
    45    59    62    1
    46    81    82   ar
    47     1     2    1
    48     2     5    1
    49    77    76    1
    50    77    78   ar
    51    82    80   ar
    52    45    46    1
    53    45    44    1
    54    45    47    1
    55     5     6    1
    56    98   100   ar
    57    98    96   ar
    58    95    96    1
    59    95    92    1
    60   100   101   ar
    61    62    63    1
    62    78    80   ar
    63   120   121    1
    64   120   122    1
    65    64    63   ar
    66    96    97   ar
    67    63    65   ar
    68   101    99   ar
    69    97    99   ar
    70    92    93    1
    71    92    91    1
    72    93    94    2
    73     6     7    1
    74     8     7    1
    75     8     9    2
    76    11     9    1
    77    83    84    1
    78     9    10    1
    79    88    89    1
    80    88    90    1
    81    88    87    1
    82    37    35   ar
    83    37    38   ar
    84    39    38    1
    85    35    33   ar
    86    38    36   ar
    87    84    87    1
    88    84    85    1
    89    33    32    1
    90    33    34   ar
    91    36    34   ar
    92   132   131    1
    93   155   156    1
    94   155   154    1
    95   156   157    2
    96    85    86    2
    97   154   153    1
    98   133   131    1
    99   131   130    2
   100    32    29    1
   101    18    17    1
   102   159   157    1
   103   157   158    1
   104   148   146    1
   105    26    25    2
   106    27    25   am
   107   130   129    1
   108    70    71    1
   109    70    67    1
   110   129   128    1
   111   147   146    1
   112    25    24    1
   113   153   150    1
   114    29    30    1
   115    29    28    1
   116   146   143    1
   117   140   139    2
   118    24    21    1
   119   141   139   am
   120    17    19    1
   121    17    16    1
   122   139   138    1
   123    30    31    2
   124    66    67    1
   125    67    68    1
   126   150   151    1
   127   150   149    1
   128   128   127    1
   129   127   124    1
   130   138   135    1
   131    16    13    1
   132    69    68    2
   133   143   144    1
   134   143   142    1
   135   151   152    2
   136    21    22    1
   137    21    20    1
   138   144   145    2
   139    22    23    2
   140   123   124    1
   141   124   125    1
   142   126   125    2
   143   135   134    1
   144   135   136    1
   145    13    14    1
   146    13    12    1
   147    15    14    2
   148   136   137    2
