@<TRIPOS>MOLECULE
tmp/5xooB00.pdb
 106 100 0 0 0
SMALL
GASTEIGER

@<TRIPOS>ATOM
      1  N         68.3920  122.2210  150.0890 N.3    49  GLY49      -0.1225
      2  CA        69.7060  122.1470  149.4690 C.3    49  GLY49       0.1811
      3  C         69.8920  120.9190  148.5900 C.2    49  GLY49       0.2280
      4  O         69.0370  120.0410  148.4850 O.2    49  GLY49      -0.2866
      5  N         74.7530  117.0200  153.9120 N.3    53  LYS53      -0.1245
      6  CA        75.4310  117.7110  154.9930 C.3    53  LYS53       0.1561
      7  C         74.6770  117.4240  156.2800 C.2    53  LYS53       0.2260
      8  O         73.5630  116.8950  156.2670 O.2    53  LYS53      -0.2867
      9  CB        75.5180  119.2200  154.7280 C.3    53  LYS53       0.0271
     10  CG        74.1680  119.9220  154.7020 C.3    53  LYS53       0.0035
     11  CD        74.3080  121.4260  154.5120 C.3    53  LYS53       0.0206
     12  CE        74.8100  121.7680  153.1230 C.3    53  LYS53       0.1093
     13  NZ        73.7980  121.4440  152.0770 N.3    53  LYS53      -0.1314
     14  N         78.3040  123.4820  160.3090 N.3    67  VAL67      -0.1245
     15  CA        77.8910  122.6220  159.2110 C.3    67  VAL67       0.1561
     16  C         78.9150  121.5080  159.0900 C.2    67  VAL67       0.2260
     17  O         80.1230  121.7660  159.0680 O.2    67  VAL67      -0.2867
     18  CB        77.7720  123.4080  157.8950 C.3    67  VAL67       0.0252
     19  CG1       77.4090  122.4770  156.7530 C.3    67  VAL67       0.0019
     20  CG2       76.7440  124.5100  158.0310 C.3    67  VAL67       0.0019
     21  N         84.5390  131.7890  156.4870 N.3   109  PRO109     -0.2116
     22  CA        84.3910  131.3910  157.8860 C.3   109  PRO109      0.1372
     23  C         85.3590  130.2780  158.2390 C.2   109  PRO109      0.2244
     24  O         85.8270  129.5470  157.3530 O.2   109  PRO109     -0.2868
     25  CB        82.9330  130.9140  157.9660 C.3   109  PRO109      0.0268
     26  CG        82.5800  130.5540  156.5790 C.3   109  PRO109      0.0207
     27  CD        83.3230  131.5140  155.7070 C.3   109  PRO109      0.0892
     28  N         82.1950  123.6970  159.5070 N.3   169  ILE169     -0.1231
     29  CA        82.1960  125.0690  159.0160 C.3   169  ILE169      0.1692
     30  C         81.3490  125.9060  159.9590 C.2   169  ILE169      0.2592
     31  O         80.1990  125.5550  160.2400 O.2   169  ILE169     -0.2718
     32  CB        81.6590  125.1560  157.5780 C.3   169  ILE169      0.0266
     33  CG1       82.4830  124.2620  156.6530 C.3   169  ILE169      0.0019
     34  CG2       81.6820  126.5910  157.0870 C.3   169  ILE169      0.0020
     35  CD1       81.7230  123.7590  155.4580 C.3   169  ILE169      0.0001
     36  N         81.9120  127.0090  160.4420 N.am  170  LEU170     -0.1966
     37  CA        81.2320  127.8130  161.4470 C.3   170  LEU170      0.1728
     38  C         80.0410  128.5540  160.8560 C.2   170  LEU170      0.2616
     39  O         80.1150  129.1140  159.7610 O.2   170  LEU170     -0.2715
     40  CB        82.1960  128.8200  162.0660 C.3   170  LEU170      0.0311
     41  CG        82.8270  128.4390  163.4000 C.3   170  LEU170      0.0022
     42  CD1       83.6220  129.6060  163.9360 C.3   170  LEU170      0.0001
     43  CD2       81.7620  128.0120  164.3860 C.3   170  LEU170      0.0001
     44  N         78.9370  128.5500  161.5950 N.am  171  TRP171     -0.1960
     45  CA        77.7510  129.2990  161.2110 C.3   171  TRP171      0.1771
     46  C         77.8880  130.7460  161.6740 C.2   171  TRP171      0.2619
     47  O         78.3190  131.0110  162.7990 O.2   171  TRP171     -0.2715
     48  CB        76.5080  128.6490  161.8230 C.3   171  TRP171      0.0590
     49  CG        75.2230  129.0230  161.1690 C.ar  171  TRP171      0.0006
     50  CD1       74.3520  129.9880  161.5730 C.ar  171  TRP171      0.0946
     51  CD2       74.6550  128.4380  159.9920 C.ar  171  TRP171      0.0152
     52  NE1       73.2780  130.0450  160.7200 N.ar  171  TRP171     -0.2442
     53  CE2       73.4410  129.1030  159.7390 C.ar  171  TRP171      0.0810
     54  CE3       75.0590  127.4200  159.1240 C.ar  171  TRP171      0.0012
     55  CZ2       72.6250  128.7840  158.6580 C.ar  171  TRP171      0.0191
     56  CZ3       74.2460  127.1040  158.0500 C.ar  171  TRP171      0.0001
     57  CH2       73.0440  127.7830  157.8270 C.ar  171  TRP171      0.0015
     58  N         77.5280  131.6860  160.8020 N.am  172  LEU172     -0.1977
     59  CA        77.6620  133.0910  161.1510 C.3   172  LEU172      0.1596
     60  C         76.6170  133.4860  162.1910 C.2   172  LEU172      0.2287
     61  O         75.5150  132.9340  162.2170 O.2   172  LEU172     -0.2864
     62  CB        77.5140  133.9810  159.9200 C.3   172  LEU172      0.0297
     63  CG        78.4220  133.7170  158.7200 C.3   172  LEU172      0.0022
     64  CD1       78.3350  134.8610  157.7270 C.3   172  LEU172      0.0001
     65  CD2       79.8510  133.5110  159.1580 C.3   172  LEU172      0.0001
     66  N         73.1260  136.7080  155.8520 N.3   178  VAL178     -0.1245
     67  CA        73.7510  136.4190  154.5670 C.3   178  VAL178      0.1561
     68  C         72.7060  136.5990  153.4780 C.2   178  VAL178      0.2260
     69  O         71.6740  135.9190  153.4770 O.2   178  VAL178     -0.2867
     70  CB        74.3440  135.0030  154.5290 C.3   178  VAL178      0.0252
     71  CG1       74.8070  134.6640  153.1250 C.3   178  VAL178      0.0019
     72  CG2       75.4960  134.8900  155.5040 C.3   178  VAL178      0.0019
     73  N         71.8840  136.8080  149.1790 N.3   180  LYS180     -0.1245
     74  CA        72.2700  136.0280  148.0120 C.3   180  LYS180      0.1561
     75  C         71.7430  136.7010  146.7550 C.2   180  LYS180      0.2260
     76  O         70.5840  137.1230  146.7160 O.2   180  LYS180     -0.2867
     77  CB        71.7180  134.6000  148.1110 C.3   180  LYS180      0.0271
     78  CG        71.7730  133.8120  146.8120 C.3   180  LYS180      0.0035
     79  CD        71.3730  132.3540  147.0040 C.3   180  LYS180      0.0206
     80  CE        72.4830  131.5240  147.6170 C.3   180  LYS180      0.1093
     81  NZ        72.1370  130.0740  147.6070 N.3   180  LYS180     -0.1314
     82  N         77.2200  135.3410  147.6590 N.3   240  GLU240     -0.1245
     83  CA        76.6220  135.6890  148.9370 C.3   240  GLU240      0.1567
     84  C         77.4590  136.7450  149.6330 C.2   240  GLU240      0.2260
     85  O         78.6860  136.7640  149.5180 O.2   240  GLU240     -0.2867
     86  CB        76.4610  134.4510  149.8360 C.3   240  GLU240      0.0388
     87  CG        75.5730  133.3780  149.2030 C.3   240  GLU240      0.1160
     88  CD        75.7550  132.0190  149.8440 C.2   240  GLU240      0.3649
     89  OE1       75.2060  131.7830  150.9440 O.co2 240  GLU240     -0.2457
     90  OE2       76.4480  131.1810  149.2280 O.co2 240  GLU240     -0.2457
     91  N         81.9010  131.6140  150.8570 N.3   253  LEU253     -0.1231
     92  CA        81.0710  130.6420  151.5470 C.3   253  LEU253      0.1693
     93  C         80.7560  129.4820  150.6110 C.2   253  LEU253      0.2592
     94  O         80.4830  129.6880  149.4250 O.2   253  LEU253     -0.2718
     95  CB        79.7840  131.3060  152.0400 C.3   253  LEU253      0.0284
     96  CG        78.8830  130.5640  153.0210 C.3   253  LEU253      0.0019
     97  CD1       79.6340  130.2410  154.3020 C.3   253  LEU253      0.0001
     98  CD2       77.6680  131.4140  153.3220 C.3   253  LEU253      0.0001
     99  N         80.8070  128.2610  151.1510 N.am  254  ASP254     -0.1974
    100  CA        80.5890  127.0250  150.3940 C.3   254  ASP254      0.1709
    101  C         81.5850  126.9170  149.2330 C.2   254  ASP254      0.2293
    102  O         81.2530  127.1010  148.0650 O.2   254  ASP254     -0.2864
    103  CB        79.1400  126.9450  149.8960 C.3   254  ASP254      0.1436
    104  CG        78.7410  125.5470  149.4560 C.2   254  ASP254      0.3671
    105  OD1       79.5980  124.8080  148.9250 O.co2 254  ASP254     -0.2456
    106  OD2       77.5590  125.1880  149.6460 O.co2 254  ASP254     -0.2456
@<TRIPOS>BOND
     1    76    75    2
     2    75    74    1
     3    78    79    1
     4    78    77    1
     5    79    80    1
     6    81    80    1
     7    82    83    1
     8    74    77    1
     9    74    73    1
    10   102   101    2
    11     4     3    2
    12     3     2    1
    13   105   104   ar
    14    83    84    1
    15    83    86    1
    16    87    86    1
    17    87    88    1
    18    90    88   ar
    19   101   100    1
    20    94    93    2
    21   104   106   ar
    22   104   103    1
    23     2     1    1
    24    85    84    2
    25    88    89   ar
    26   103   100    1
    27   100    99    1
    28    93    99   am
    29    93    92    1
    30    91    92    1
    31    92    95    1
    32    95    96    1
    33    13    12    1
    34    96    98    1
    35    96    97    1
    36    12    11    1
    37    71    70    1
    38    69    68    2
    39    68    67    1
    40     5     6    1
    41    11    10    1
    42    70    67    1
    43    70    72    1
    44    67    66    1
    45    10     9    1
    46     9     6    1
    47     6     7    1
    48    35    33    1
    49    27    21    1
    50    27    26    1
    51     8     7    2
    52    21    22    1
    53    26    25    1
    54    33    32    1
    55    19    18    1
    56    34    32    1
    57    24    23    2
    58    32    29    1
    59    64    63    1
    60    57    56   ar
    61    57    55   ar
    62    22    25    1
    63    22    23    1
    64    18    20    1
    65    18    15    1
    66    56    54   ar
    67    55    53   ar
    68    63    65    1
    69    63    62    1
    70    29    28    1
    71    29    30    1
    72    17    16    2
    73    16    15    1
    74    54    51   ar
    75    15    14    1
    76    53    51   ar
    77    53    52   ar
    78    39    38    2
    79    62    59    1
    80    30    31    2
    81    30    36   am
    82    51    49   ar
    83    36    37    1
    84    52    50   ar
    85    58    59    1
    86    58    46   am
    87    38    37    1
    88    38    44   am
    89    59    60    1
    90    49    50   ar
    91    49    48    1
    92    45    44    1
    93    45    46    1
    94    45    48    1
    95    37    40    1
    96    46    47    2
    97    40    41    1
    98    60    61    2
    99    41    42    1
   100    41    43    1
