@<TRIPOS>MOLECULE
tmp/5xooA03.pdb
 122 118 0 0 0
SMALL
GASTEIGER

@<TRIPOS>ATOM
      1  N        114.9190  152.0920  194.2760 N.3    48  THR48      -0.1203
      2  CA       114.7880  152.7650  195.5550 C.3    48  THR48       0.1994
      3  C        113.5530  152.3050  196.3100 C.2    48  THR48       0.2617
      4  O        113.3190  152.7670  197.4310 O.2    48  THR48      -0.2717
      5  CB       114.7500  154.2850  195.3600 C.3    48  THR48       0.1784
      6  OG1      113.5780  154.6430  194.6190 O.3    48  THR48      -0.2211
      7  CG2      115.9810  154.7470  194.5960 C.3    48  THR48       0.0376
      8  N        112.7650  151.4060  195.7310 N.am   49  GLN49      -0.1979
      9  CA       111.5070  150.9580  196.3010 C.3    49  GLN49       0.1601
     10  C        111.5370  149.4600  196.5720 C.2    49  GLN49       0.2287
     11  O        112.3470  148.7150  196.0160 O.2    49  GLN49      -0.2864
     12  CB       110.3370  151.2900  195.3750 C.3    49  GLN49       0.0394
     13  CG       110.1300  152.7720  195.1660 C.3    49  GLN49       0.0908
     14  CD       109.7760  153.4910  196.4480 C.2    49  GLN49       0.2608
     15  OE1      109.1980  152.9060  197.3640 O.2    49  GLN49      -0.2717
     16  NE2      110.1230  154.7690  196.5220 N.am   49  GLN49      -0.0878
     17  N         99.3060  150.4100  200.8350 N.3    71  TYR71      -0.1241
     18  CA        98.3270  151.3570  201.3520 C.3    71  TYR71       0.1605
     19  C         96.9240  150.7870  201.2150 C.2    71  TYR71       0.2264
     20  O         96.6820  149.8410  200.4640 O.2    71  TYR71      -0.2867
     21  CB        98.3690  152.7060  200.6180 C.3    71  TYR71       0.0534
     22  CG        99.6510  153.4840  200.7480 C.ar   71  TYR71      -0.0201
     23  CD1       99.9590  154.1460  201.9230 C.ar   71  TYR71      -0.0009
     24  CD2      100.5380  153.5840  199.6890 C.ar   71  TYR71      -0.0009
     25  CE1      101.1210  154.8700  202.0490 C.ar   71  TYR71       0.0417
     26  CE2      101.7060  154.3070  199.8060 C.ar   71  TYR71       0.0417
     27  CZ       101.9900  154.9480  200.9900 C.ar   71  TYR71       0.1957
     28  OH       103.1470  155.6730  201.1270 O.3    71  TYR71      -0.2866
     29  N        105.0060  166.0070  198.8510 N.3    80  THR80      -0.1218
     30  CA       105.4980  166.2650  197.5120 C.3    80  THR80       0.1862
     31  C        104.6800  165.4910  196.4810 C.2    80  THR80       0.2287
     32  O        104.0530  164.4800  196.8030 O.2    80  THR80      -0.2866
     33  CB       106.9730  165.8810  197.4100 C.3    80  THR80       0.1770
     34  OG1      107.1140  164.4620  197.5560 O.3    80  THR80      -0.2211
     35  CG2      107.7650  166.5610  198.5040 C.3    80  THR80       0.0375
     36  N        105.5480  163.4270  194.5390 N.3    82  TYR82      -0.1227
     37  CA       106.1370  162.1050  194.3760 C.3    82  TYR82       0.1736
     38  C        106.1980  161.3620  195.7040 C.2    82  TYR82       0.2595
     39  O        106.9910  160.4290  195.8550 O.2    82  TYR82      -0.2718
     40  CB       107.5360  162.2020  193.7630 C.3    82  TYR82       0.0548
     41  CG       108.4390  163.2160  194.4330 C.ar   82  TYR82      -0.0200
     42  CD1      109.1850  162.8750  195.5550 C.ar   82  TYR82      -0.0009
     43  CD2      108.5480  164.5110  193.9470 C.ar   82  TYR82      -0.0009
     44  CE1      110.0110  163.7960  196.1730 C.ar   82  TYR82       0.0417
     45  CE2      109.3710  165.4390  194.5600 C.ar   82  TYR82       0.0417
     46  CZ       110.1000  165.0770  195.6710 C.ar   82  TYR82       0.1957
     47  OH       110.9210  166.0020  196.2800 O.3    82  TYR82      -0.2866
     48  N        105.3780  161.7650  196.6690 N.am   83  GLU83      -0.1965
     49  CA       105.4070  161.1770  197.9950 C.3    83  GLU83       0.1733
     50  C        104.7910  159.7830  197.9810 C.2    83  GLU83       0.2617
     51  O        103.9820  159.4360  197.1170 O.2    83  GLU83      -0.2715
     52  CB       104.6320  162.0730  198.9720 C.3    83  GLU83       0.0429
     53  CG       104.6880  161.6900  200.4480 C.3    83  GLU83       0.1163
     54  CD       105.9290  162.1830  201.1610 C.2    83  GLU83       0.3649
     55  OE1      106.2090  161.6710  202.2660 O.co2  83  GLU83      -0.2457
     56  OE2      106.6190  163.0780  200.6290 O.co2  83  GLU83      -0.2457
     57  N        105.1940  158.9770  198.9540 N.am   84  GLY84      -0.1940
     58  CA       104.5410  157.7170  199.2310 C.3    84  GLY84       0.2014
     59  C        105.3220  156.5240  198.7150 C.2    84  GLY84       0.2638
     60  O        106.3070  156.6420  197.9850 O.2    84  GLY84      -0.2714
     61  N        104.8450  155.3480  199.1070 N.am   85  TYR85      -0.1973
     62  CA       105.3370  154.1060  198.5440 C.3    85  TYR85       0.1639
     63  C        104.7230  153.8860  197.1650 C.2    85  TYR85       0.2290
     64  O        103.8040  154.5910  196.7430 O.2    85  TYR85      -0.2864
     65  CB       105.0050  152.9250  199.4540 C.3    85  TYR85       0.0560
     66  CG       105.5340  153.0330  200.8660 C.ar   85  TYR85      -0.0198
     67  CD1      106.8910  153.1690  201.1130 C.ar   85  TYR85      -0.0009
     68  CD2      104.6730  152.9740  201.9530 C.ar   85  TYR85      -0.0009
     69  CE1      107.3740  153.2570  202.4010 C.ar   85  TYR85       0.0417
     70  CE2      105.1480  153.0620  203.2440 C.ar   85  TYR85       0.0417
     71  CZ       106.4980  153.2030  203.4620 C.ar   85  TYR85       0.1957
     72  OH       106.9730  153.2920  204.7480 O.3    85  TYR85      -0.2866
     73  N        115.6180  152.4870  200.1810 N.3   148  TYR148     -0.1241
     74  CA       114.7540  152.9660  201.2490 C.3   148  TYR148      0.1605
     75  C        114.1800  151.8320  202.0860 C.2   148  TYR148      0.2264
     76  O        113.2910  152.0700  202.9090 O.2   148  TYR148     -0.2867
     77  CB       113.6200  153.8060  200.6590 C.3   148  TYR148      0.0534
     78  CG       114.0740  155.1230  200.0670 C.ar  148  TYR148     -0.0201
     79  CD1      114.9740  155.9390  200.7400 C.ar  148  TYR148     -0.0009
     80  CD2      113.6110  155.5430  198.8270 C.ar  148  TYR148     -0.0009
     81  CE1      115.3910  157.1410  200.1970 C.ar  148  TYR148      0.0417
     82  CE2      114.0220  156.7410  198.2780 C.ar  148  TYR148      0.0417
     83  CZ       114.9120  157.5360  198.9660 C.ar  148  TYR148      0.1957
     84  OH       115.3230  158.7300  198.4200 O.3   148  TYR148     -0.2866
     85  N        109.9140  149.3960  207.9700 N.3   153  GLU153     -0.1245
     86  CA       108.9580  149.7090  206.9080 C.3   153  GLU153      0.1567
     87  C        108.8050  148.5040  205.9880 C.2   153  GLU153      0.2260
     88  O        109.2870  148.5090  204.8490 O.2   153  GLU153     -0.2867
     89  CB       109.3940  150.9420  206.1190 C.3   153  GLU153      0.0388
     90  CG       109.8530  152.1040  206.9750 C.3   153  GLU153      0.1160
     91  CD       110.0510  153.3720  206.1700 C.2   153  GLU153      0.3649
     92  OE1      109.2920  153.5890  205.2020 O.co2 153  GLU153     -0.2457
     93  OE2      110.9680  154.1500  206.5030 O.co2 153  GLU153     -0.2457
     94  N        113.8920  167.2810  193.2960 N.3   187  TYR187     -0.1241
     95  CA       113.9350  166.3970  194.4630 C.3   187  TYR187      0.1605
     96  C        114.6610  167.0440  195.6350 C.2   187  TYR187      0.2264
     97  O        115.3230  166.3710  196.4290 O.2   187  TYR187     -0.2867
     98  CB       114.5300  165.0340  194.1040 C.3   187  TYR187      0.0534
     99  CG       113.5980  164.2830  193.1880 C.ar  187  TYR187     -0.0201
    100  CD1      112.4940  163.6160  193.6950 C.ar  187  TYR187     -0.0009
    101  CD2      113.7800  164.2970  191.8130 C.ar  187  TYR187     -0.0009
    102  CE1      111.6200  162.9530  192.8670 C.ar  187  TYR187      0.0417
    103  CE2      112.9090  163.6370  190.9750 C.ar  187  TYR187      0.0417
    104  CZ       111.8300  162.9680  191.5080 C.ar  187  TYR187      0.1957
    105  OH       110.9560  162.3060  190.6820 O.3   187  TYR187     -0.2866
    106  N        106.6690  161.4000  189.0580 N.3   233  ASP233     -0.1239
    107  CA       107.9540  160.8370  189.4550 C.3   233  ASP233      0.1674
    108  C        108.7390  160.2710  188.2760 C.2   233  ASP233      0.2266
    109  O        109.6150  159.4250  188.4720 O.2   233  ASP233     -0.2867
    110  CB       107.7470  159.7560  190.5180 C.3   233  ASP233      0.1410
    111  CG       109.0180  159.4240  191.2730 C.2   233  ASP233      0.3668
    112  OD1      109.9360  160.2680  191.2910 O.co2 233  ASP233     -0.2456
    113  OD2      109.1030  158.3150  191.8370 O.co2 233  ASP233     -0.2456
    114  N        103.9230  155.2440  191.1530 N.3   255  LYS255     -0.1245
    115  CA       103.7580  156.4350  191.9800 C.3   255  LYS255      0.1561
    116  C        102.5870  157.2790  191.4940 C.2   255  LYS255      0.2260
    117  O        102.7050  158.4760  191.2590 O.2   255  LYS255     -0.2867
    118  CB       105.0480  157.2410  192.0090 C.3   255  LYS255      0.0271
    119  CG       105.1420  158.1760  193.1960 C.3   255  LYS255      0.0035
    120  CD       106.4070  157.9310  193.9890 C.3   255  LYS255      0.0206
    121  CE       106.4190  156.5540  194.6020 C.3   255  LYS255      0.1093
    122  NZ       107.6890  156.3220  195.3290 N.3   255  LYS255     -0.1314
@<TRIPOS>BOND
     1   108   109    2
     2   108   107    1
     3   106   107    1
     4   107   110    1
     5   110   111    1
     6   105   104    1
     7   103   104   ar
     8   103   101   ar
     9   114   115    1
    10   117   116    2
    11   111   112   ar
    12   111   113   ar
    13   116   115    1
    14   104   102   ar
    15   101    99   ar
    16   115   118    1
    17   118   119    1
    18   102   100   ar
    19    99   100   ar
    20    99    98    1
    21   119   120    1
    22    94    95    1
    23    40    37    1
    24    40    41    1
    25    43    41   ar
    26    43    45   ar
    27   120   121    1
    28    98    95    1
    29     1     2    1
    30    37    36    1
    31    37    38    1
    32    41    42   ar
    33    95    96    1
    34    45    46   ar
    35     7     5    1
    36   121   122    1
    37     6     5    1
    38    13    12    1
    39    13    14    1
    40     5     2    1
    41    12     9    1
    42     2     3    1
    43    42    44   ar
    44    96    97    2
    45    46    44   ar
    46    46    47    1
    47    38    39    2
    48    38    48   am
    49     8     9    1
    50     8     3   am
    51    11    10    2
    52     9    10    1
    53     3     4    2
    54    14    16   am
    55    14    15    2
    56    31    32    2
    57    31    30    1
    58    48    49    1
    59    64    63    2
    60    51    50    2
    61    63    62    1
    62    33    30    1
    63    33    34    1
    64    33    35    1
    65    30    29    1
    66    50    49    1
    67    50    57   am
    68    60    59    2
    69    49    52    1
    70    82    80   ar
    71    82    83   ar
    72    84    83    1
    73    62    61    1
    74    62    65    1
    75    59    61   am
    76    59    58    1
    77    80    78   ar
    78    57    58    1
    79    83    81   ar
    80    52    53    1
    81    65    66    1
    82    24    26   ar
    83    24    22   ar
    84    26    27   ar
    85    78    77    1
    86    78    79   ar
    87    73    74    1
    88    81    79   ar
    89    53    54    1
    90    20    19    2
    91    21    22    1
    92    21    18    1
    93    56    54   ar
    94    77    74    1
    95    22    23   ar
    96    17    18    1
    97    66    67   ar
    98    66    68   ar
    99    27    28    1
   100    27    25   ar
   101    67    69   ar
   102    54    55   ar
   103    19    18    1
   104    74    75    1
   105    23    25   ar
   106    68    70   ar
   107    75    76    2
   108    69    71   ar
   109    70    71   ar
   110    71    72    1
   111    88    87    2
   112    92    91   ar
   113    87    86    1
   114    89    86    1
   115    89    90    1
   116    91    93   ar
   117    91    90    1
   118    86    85    1
