@<TRIPOS>MOLECULE
tmp/5xoqB00.pdb
 55 51 0 0 0
SMALL
GASTEIGER

@<TRIPOS>ATOM
      1  N         72.8640  115.9300   46.8460 N.3    75  THR75      -0.1218
      2  CA        74.1270  116.6700   46.8400 C.3    75  THR75       0.1862
      3  C         75.1730  115.9910   45.9620 C.2    75  THR75       0.2287
      4  O         75.9850  116.6740   45.3150 O.2    75  THR75      -0.2866
      5  CB        74.6480  116.8370   48.2690 C.3    75  THR75       0.1770
      6  OG1       73.7400  117.6640   48.9980 O.3    75  THR75      -0.2211
      7  CG2       76.0420  117.4960   48.2910 C.3    75  THR75       0.0375
      8  N         78.9990  119.5030   53.1710 N.3   143  GLN143     -0.1231
      9  CA        77.7180  120.1810   52.9760 C.3   143  GLN143      0.1698
     10  C         77.0420  120.5860   54.2840 C.2   143  GLN143      0.2592
     11  O         76.2130  121.5030   54.2710 O.2   143  GLN143     -0.2718
     12  CB        76.7630  119.3010   52.1630 C.3   143  GLN143      0.0381
     13  CG        76.3600  117.9910   52.8520 C.3   143  GLN143      0.0905
     14  CD        75.2690  117.2630   52.0770 C.2   143  GLN143      0.2608
     15  OE1       74.4100  117.8990   51.4650 O.2   143  GLN143     -0.2717
     16  NE2       75.3000  115.9330   52.0950 N.am  143  GLN143     -0.0878
     17  N         77.3600  119.9350   55.4070 N.am  144  PHE144     -0.1976
     18  CA        76.6980  120.2680   56.6670 C.3   144  PHE144      0.1639
     19  C         77.4190  121.3490   57.4590 C.2   144  PHE144      0.2290
     20  O         76.9300  121.7430   58.5290 O.2   144  PHE144     -0.2864
     21  CB        76.5400  119.0200   57.5450 C.3   144  PHE144      0.0560
     22  CG        75.6310  117.9840   56.9570 C.ar  144  PHE144     -0.0200
     23  CD1       74.2490  118.1110   57.0520 C.ar  144  PHE144     -0.0042
     24  CD2       76.1550  116.8740   56.3090 C.ar  144  PHE144     -0.0042
     25  CE1       73.4120  117.1410   56.5090 C.ar  144  PHE144     -0.0003
     26  CE2       75.3320  115.9110   55.7790 C.ar  144  PHE144     -0.0003
     27  CZ        73.9620  116.0400   55.8740 C.ar  144  PHE144     -0.0000
     28  N         67.2610  119.6000   55.6660 N.3   177  GLY177     -0.1210
     29  CA        68.2480  118.5410   55.5530 C.3   177  GLY177      0.1956
     30  C         69.5520  119.0590   56.1280 C.2   177  GLY177      0.2612
     31  O         69.8750  118.8000   57.2970 O.2   177  GLY177     -0.2717
     32  N         70.2810  119.8440   55.3250 N.am  178  THR178     -0.1952
     33  CA        71.3860  120.6380   55.8510 C.3   178  THR178      0.1897
     34  C         70.9010  121.8930   56.5640 C.2   178  THR178      0.2313
     35  O         71.6460  122.4610   57.3690 O.2   178  THR178     -0.2863
     36  CB        72.3640  121.0570   54.7380 C.3   178  THR178      0.1794
     37  OG1       71.7670  122.0620   53.8910 O.3   178  THR178     -0.2208
     38  CG2       72.7950  119.8570   53.8900 C.3   178  THR178      0.0378
     39  N         66.1290  113.2310   52.1010 N.3   222  GLY222     -0.1210
     40  CA        66.6030  114.5920   51.9540 C.3   222  GLY222      0.1956
     41  C         66.4500  115.4690   53.1820 C.2   222  GLY222      0.2611
     42  O         67.0820  116.5320   53.2480 O.2   222  GLY222     -0.2717
     43  N         65.6220  115.0650   54.1460 N.am  223  ILE223     -0.1979
     44  CA        65.5390  115.7660   55.4230 C.3   223  ILE223      0.1595
     45  C         65.8010  114.7550   56.5300 C.2   223  ILE223      0.2287
     46  O         66.1550  113.5990   56.2580 O.2   223  ILE223     -0.2864
     47  CB        64.1830  116.4800   55.6020 C.3   223  ILE223      0.0276
     48  CG1       63.0320  115.4830   55.7270 C.3   223  ILE223      0.0022
     49  CG2       63.9100  117.4290   54.4060 C.3   223  ILE223      0.0022
     50  CD1       61.7040  116.1370   56.1420 C.3   223  ILE223      0.0001
     51  N         68.2850  114.6190   59.0500 N.3   225  ALA225     -0.1245
     52  CA        69.6730  114.1620   59.0680 C.3   225  ALA225      0.1562
     53  C         70.0220  113.3600   60.3200 C.2   225  ALA225      0.2260
     54  O         70.9860  112.5870   60.2910 O.2   225  ALA225     -0.2867
     55  CB        70.6250  115.3530   58.9580 C.3   225  ALA225      0.0290
@<TRIPOS>BOND
     1     4     3    2
     2     3     2    1
     3     2     1    1
     4     2     5    1
     5     5     7    1
     6     5     6    1
     7    15    14    2
     8    40    39    1
     9    40    41    1
    10    14    16   am
    11    14    13    1
    12    12    13    1
    13    12     9    1
    14     9     8    1
    15     9    10    1
    16    41    42    2
    17    41    43   am
    18    38    36    1
    19    37    36    1
    20    43    44    1
    21    11    10    2
    22    10    17   am
    23    49    47    1
    24    36    33    1
    25    32    33    1
    26    32    30   am
    27    17    18    1
    28    44    47    1
    29    44    45    1
    30    29    28    1
    31    29    30    1
    32    47    48    1
    33    48    50    1
    34    26    27   ar
    35    26    24   ar
    36    33    34    1
    37    27    25   ar
    38    30    31    2
    39    46    45    2
    40    24    22   ar
    41    25    23   ar
    42    34    35    2
    43    18    19    1
    44    18    21    1
    45    22    23   ar
    46    22    21    1
    47    19    20    2
    48    55    52    1
    49    51    52    1
    50    52    53    1
    51    54    53    2
