@<TRIPOS>MOLECULE
tmp/5xoxA00.pdb
 149 147 0 0 0
SMALL
GASTEIGER

@<TRIPOS>ATOM
      1  N        -17.8650  -73.2470  -46.6680 N.3    25  ASP25      -0.1225
      2  CA       -16.7590  -73.2460  -47.6380 C.3    25  ASP25       0.1805
      3  C        -17.2720  -73.2380  -49.0700 C.2    25  ASP25       0.2598
      4  O        -17.8570  -74.2280  -49.5210 O.2    25  ASP25      -0.2718
      5  CB       -15.8420  -74.4660  -47.3990 C.3    25  ASP25       0.1424
      6  CG       -14.5480  -74.4260  -48.2230 C.2    25  ASP25       0.3668
      7  OD1      -14.6230  -74.1580  -49.4460 O.co2  25  ASP25      -0.2456
      8  OD2      -13.4680  -74.7110  -47.6460 O.co2  25  ASP25      -0.2456
      9  N        -17.0200  -72.1450  -49.7900 N.am   26  GLY26      -0.1942
     10  CA       -17.6200  -71.9840  -51.0930 C.3    26  GLY26       0.2014
     11  C        -17.1490  -72.9990  -52.1130 C.2    26  GLY26       0.2639
     12  O        -15.9350  -73.1240  -52.2940 O.2    26  GLY26      -0.2714
     13  N        -18.0680  -73.7320  -52.7680 N.am   27  LYS27      -0.1963
     14  CA       -17.6030  -74.7330  -53.7400 C.3    27  LYS27       0.1731
     15  C        -16.9350  -73.9920  -54.8770 C.2    27  LYS27       0.2616
     16  O        -17.2890  -72.8520  -55.2020 O.2    27  LYS27      -0.2715
     17  CB       -18.7090  -75.7040  -54.2540 C.3    27  LYS27       0.0358
     18  CG       -18.6350  -77.2260  -53.7040 C.3    27  LYS27       0.0298
     19  CD       -18.1960  -78.3050  -54.7850 C.2    27  LYS27      -0.0067
     20  CE       -18.2710  -79.8260  -54.3360 C.2    27  LYS27       0.1012
     21  NZ       -17.7620  -80.9150  -55.3330 N.pl3  27  LYS27      -0.1270
     22  N        -15.9010  -74.6380  -55.4040 N.am   28  LYS28      -0.1963
     23  CA       -15.1240  -74.1260  -56.5140 C.3    28  LYS28       0.1728
     24  C        -14.8390  -72.6200  -56.3640 C.2    28  LYS28       0.2616
     25  O        -15.3170  -71.8160  -57.1390 O.2    28  LYS28      -0.2715
     26  CB       -15.8430  -74.4630  -57.8370 C.3    28  LYS28       0.0311
     27  CG       -15.5540  -75.8980  -58.3550 C.3    28  LYS28       0.0038
     28  CD       -16.3460  -76.9830  -57.6600 C.3    28  LYS28       0.0206
     29  CE       -15.7100  -78.3440  -57.8990 C.3    28  LYS28       0.1093
     30  NZ       -14.4910  -78.5130  -57.0100 N.3    28  LYS28      -0.1314
     31  N        -14.0770  -72.2380  -55.3430 N.am   29  PHE29      -0.1960
     32  CA       -13.7110  -70.8340  -55.1800 C.3    29  PHE29       0.1771
     33  C        -12.4470  -70.5250  -55.8950 C.2    29  PHE29       0.2620
     34  O        -12.0740  -69.3670  -56.0890 O.2    29  PHE29      -0.2715
     35  CB       -13.6540  -70.4590  -53.7070 C.3    29  PHE29       0.0574
     36  CG       -14.7420  -69.5340  -53.3530 C.ar   29  PHE29      -0.0200
     37  CD1      -15.9590  -70.0140  -52.9660 C.ar   29  PHE29      -0.0042
     38  CD2      -14.5560  -68.1850  -53.3930 C.ar   29  PHE29      -0.0042
     39  CE1      -16.9970  -69.1580  -52.6890 C.ar   29  PHE29      -0.0003
     40  CE2      -15.5880  -67.3260  -53.1010 C.ar   29  PHE29      -0.0003
     41  CZ       -16.8050  -67.8100  -52.7480 C.ar   29  PHE29      -0.0000
     42  N        -11.8340  -71.5800  -56.3770 N.am   30  HIS30      -0.1959
     43  CA       -10.6410  -71.4280  -57.1620 C.3    30  HIS30       0.1787
     44  C        -11.0340  -70.8230  -58.5060 C.2    30  HIS30       0.2620
     45  O        -10.4680  -69.8250  -58.9550 O.2    30  HIS30      -0.2715
     46  CB        -9.9570  -72.7710  -57.3410 C.3    30  HIS30       0.0785
     47  CG        -8.5930  -72.6580  -57.9030 C.ar   30  HIS30       0.0821
     48  ND1       -7.5090  -72.3140  -57.1230 N.ar   30  HIS30      -0.2267
     49  CD2       -8.1270  -72.8010  -59.1630 C.ar   30  HIS30       0.1154
     50  CE1       -6.4280  -72.2560  -57.8810 C.ar   30  HIS30       0.1986
     51  NE2       -6.7760  -72.5480  -59.1230 N.ar   30  HIS30      -0.2212
     52  N        -12.0410  -71.4170  -59.1300 N.am   31  GLU31      -0.1977
     53  CA       -12.4390  -71.0060  -60.4610 C.3    31  GLU31       0.1602
     54  C        -13.1830  -69.6920  -60.3810 C.2    31  GLU31       0.2287
     55  O        -13.1100  -68.8880  -61.3070 O.2    31  GLU31      -0.2864
     56  CB       -13.2830  -72.0930  -61.1370 C.3    31  GLU31       0.0415
     57  CG       -12.5510  -73.4300  -61.2640 C.3    31  GLU31       0.1163
     58  CD       -12.4240  -74.1800  -59.9380 C.2    31  GLU31       0.3649
     59  OE1      -13.0650  -73.7680  -58.9480 O.co2  31  GLU31      -0.2457
     60  OE2      -11.6380  -75.1500  -59.8680 O.co2  31  GLU31      -0.2457
     61  N        -12.7720  -67.1330  -58.0240 N.3    33  SER33      -0.1217
     62  CA       -11.7480  -66.0920  -57.9090 C.3    33  SER33       0.1889
     63  C        -10.8590  -65.9870  -59.1510 C.2    33  SER33       0.2288
     64  O        -10.2880  -64.9330  -59.4040 O.2    33  SER33      -0.2866
     65  CB       -10.9100  -66.3410  -56.6640 C.3    33  SER33       0.2089
     66  OG       -10.5900  -67.7120  -56.5830 O.3    33  SER33      -0.2183
     67  N         -9.6220  -62.1660  -58.6990 N.3    38  PHE38      -0.1227
     68  CA        -9.3780  -61.6930  -57.3430 C.3    38  PHE38       0.1736
     69  C         -7.9220  -61.3210  -57.1590 C.2    38  PHE38       0.2595
     70  O         -7.1120  -61.5370  -58.0620 O.2    38  PHE38      -0.2718
     71  CB        -9.7620  -62.7730  -56.3250 C.3    38  PHE38       0.0547
     72  CG       -11.1920  -62.7340  -55.8890 C.ar   38  PHE38      -0.0202
     73  CD1      -12.0580  -61.7800  -56.3960 C.ar   38  PHE38      -0.0042
     74  CD2      -11.6360  -63.5690  -54.8760 C.ar   38  PHE38      -0.0042
     75  CE1      -13.3500  -61.7030  -55.9620 C.ar   38  PHE38      -0.0003
     76  CE2      -12.9230  -63.4940  -54.4300 C.ar   38  PHE38      -0.0003
     77  CZ       -13.7810  -62.5580  -54.9710 C.ar   38  PHE38      -0.0000
     78  N         -7.5460  -60.7860  -56.0090 N.am   39  ALA39      -0.1966
     79  CA        -6.1680  -60.3480  -55.8050 C.3    39  ALA39       0.1728
     80  C         -5.1780  -61.3630  -55.2740 C.2    39  ALA39       0.2616
     81  O         -5.2100  -61.6660  -54.0880 O.2    39  ALA39      -0.2715
     82  CB        -6.1570  -59.1380  -54.9010 C.3    39  ALA39       0.0334
     83  N         -4.2740  -61.8260  -56.1520 N.am   40  LYS40      -0.1964
     84  CA        -3.1930  -62.8240  -55.9060 C.3    40  LYS40       0.1713
     85  C         -3.5200  -63.8020  -54.8360 C.2    40  LYS40       0.2458
     86  O         -4.5160  -64.4760  -54.9930 O.2    40  LYS40      -0.2730
     87  CB        -1.8290  -62.1980  -55.6850 C.3    40  LYS40       0.0311
     88  CG        -0.7690  -62.8760  -56.5400 C.3    40  LYS40       0.0038
     89  CD        -1.1840  -64.2990  -56.9280 C.3    40  LYS40       0.0206
     90  CE        -2.1840  -64.3480  -58.0830 C.3    40  LYS40       0.1093
     91  NZ        -3.5010  -64.8840  -57.6570 N.3    40  LYS40      -0.1314
     92  N         -2.7140  -64.0950  -53.8270 N.am   41  PRO41      -0.2716
     93  CA        -3.6060  -64.8470  -52.9400 C.3    41  PRO41       0.1536
     94  C         -4.1740  -64.0940  -51.7010 C.2    41  PRO41       0.2599
     95  O         -4.4400  -64.7370  -50.6810 O.2    41  PRO41      -0.2715
     96  CB        -2.6600  -65.9360  -52.4610 C.3    41  PRO41       0.0310
     97  CG        -1.2660  -65.2560  -52.5220 C.3    41  PRO41       0.0237
     98  CD        -1.4480  -63.8520  -53.1560 C.3    41  PRO41       0.0939
     99  N         -4.4670  -62.7960  -51.8360 N.am   42  ASN42      -0.1959
    100  CA        -5.1530  -62.1860  -50.7350 C.3    42  ASN42       0.1819
    101  C         -6.0170  -61.0460  -51.3380 C.2    42  ASN42       0.2621
    102  O         -5.4850  -59.9990  -51.7000 O.2    42  ASN42      -0.2715
    103  CB        -4.0640  -61.7250  -49.7510 C.3    42  ASN42       0.1195
    104  CG        -4.1320  -62.4910  -48.4370 C.2    42  ASN42       0.2630
    105  OD1       -5.1920  -62.9080  -48.0140 O.2    42  ASN42      -0.2716
    106  ND2       -2.9630  -62.7730  -47.8460 N.am   42  ASN42      -0.0877
    107  N         -7.3370  -61.1980  -51.4310 N.am   43  ASP43      -0.1971
    108  CA        -8.0950  -60.0370  -51.9020 C.3    43  ASP43       0.1709
    109  C         -8.8280  -59.3890  -50.7580 C.2    43  ASP43       0.2293
    110  O         -9.8300  -59.9140  -50.2620 O.2    43  ASP43      -0.2864
    111  CB        -9.0900  -60.3600  -53.0180 C.3    43  ASP43       0.1436
    112  CG        -9.5010  -59.0990  -53.8060 C.2    43  ASP43       0.3671
    113  OD1       -9.9010  -58.0930  -53.1810 O.co2  43  ASP43      -0.2456
    114  OD2       -9.4710  -59.1110  -55.0530 O.co2  43  ASP43      -0.2456
    115  N        -12.5710  -59.0210  -51.0870 N.3    46  ALA46      -0.1231
    116  CA       -13.2080  -60.3290  -50.9430 C.3    46  ALA46       0.1694
    117  C        -13.3620  -60.6840  -49.4850 C.2    46  ALA46       0.2591
    118  O        -14.4520  -61.0480  -49.0170 O.2    46  ALA46      -0.2718
    119  CB       -12.4000  -61.3930  -51.6500 C.3    46  ALA46       0.0304
    120  N        -12.2470  -60.5510  -48.7750 N.am   47  LEU47      -0.1980
    121  CA       -12.1720  -60.8820  -47.3620 C.3    47  LEU47       0.1596
    122  C        -13.1430  -60.0340  -46.5190 C.2    47  LEU47       0.2287
    123  O        -13.8090  -60.5450  -45.6240 O.2    47  LEU47      -0.2864
    124  CB       -10.7420  -60.7030  -46.8540 C.3    47  LEU47       0.0297
    125  CG        -9.7490  -61.8700  -46.9160 C.3    47  LEU47       0.0022
    126  CD1      -10.0430  -62.8320  -45.7740 C.3    47  LEU47       0.0001
    127  CD2       -9.7140  -62.5880  -48.2620 C.3    47  LEU47       0.0001
    128  N        -10.7450  -67.9490  -45.6950 N.3    72  SER72      -0.1202
    129  CA       -10.5840  -67.6350  -47.1110 C.3    72  SER72       0.2020
    130  C        -11.8810  -67.5220  -47.8600 C.2    72  SER72       0.2618
    131  O        -12.4210  -66.4220  -48.0370 O.2    72  SER72      -0.2717
    132  CB        -9.7230  -68.6910  -47.8050 C.3    72  SER72       0.2103
    133  OG        -8.3560  -68.4300  -47.6020 O.3    72  SER72      -0.2182
    134  N        -12.3660  -68.6820  -48.2880 N.am   73  ASP73      -0.1973
    135  CA       -13.7150  -68.8620  -48.7550 C.3    73  ASP73       0.1709
    136  C        -14.4410  -69.4640  -47.5800 C.2    73  ASP73       0.2293
    137  O        -15.5660  -69.9250  -47.6850 O.2    73  ASP73      -0.2864
    138  CB       -13.7760  -69.7590  -49.9760 C.3    73  ASP73       0.1436
    139  CG       -13.2410  -71.1480  -49.7070 C.2    73  ASP73       0.3671
    140  OD1      -12.3070  -71.2910  -48.8860 O.co2  73  ASP73      -0.2456
    141  OD2      -13.7500  -72.0970  -50.3460 O.co2  73  ASP73      -0.2456
    142  N        -20.7760  -74.6410  -49.5890 N.3   127  ASP127     -0.1239
    143  CA       -21.0320  -75.8410  -48.7860 C.3   127  ASP127      0.1674
    144  C        -21.1160  -75.4680  -47.3130 C.2   127  ASP127      0.2266
    145  O        -20.3030  -74.6790  -46.8270 O.2   127  ASP127     -0.2867
    146  CB       -19.9310  -76.8760  -49.0090 C.3   127  ASP127      0.1410
    147  CG       -20.1210  -78.1220  -48.1820 C.2   127  ASP127      0.3668
    148  OD1      -20.7350  -78.0360  -47.1070 O.co2 127  ASP127     -0.2456
    149  OD2      -19.6110  -79.1900  -48.5760 O.co2 127  ASP127     -0.2456
@<TRIPOS>BOND
     1    55    54    2
     2    57    56    1
     3    57    58    1
     4    56    53    1
     5    53    54    1
     6    53    52    1
     7    58    60   ar
     8    58    59   ar
     9    64    63    2
    10    49    51   ar
    11    49    47   ar
    12    63    62    1
    13    52    44   am
    14    51    50   ar
    15    45    44    2
    16    67    68    1
    17    44    43    1
    18    27    26    1
    19    27    28    1
    20    90    91    1
    21    90    89    1
    22    70    69    2
    23    61    62    1
    24    62    65    1
    25    47    46    1
    26    47    48   ar
    27    29    28    1
    28    29    30    1
    29    50    48   ar
    30    26    23    1
    31    68    69    1
    32    68    71    1
    33    46    43    1
    34    43    42    1
    35    69    78   am
    36    25    24    2
    37    89    88    1
    38    65    66    1
    39    88    87    1
    40    23    24    1
    41    23    22    1
    42    73    75   ar
    43    73    72   ar
    44    42    33   am
    45    24    31   am
    46    71    72    1
    47    83    84    1
    48    83    80   am
    49    34    33    2
    50    78    79    1
    51    75    77   ar
    52    84    87    1
    53    84    85    1
    54    33    32    1
    55    72    74   ar
    56    79    80    1
    57    79    82    1
    58    22    15   am
    59    31    32    1
    60    21    20    1
    61    80    81    2
    62    16    15    2
    63    32    35    1
    64   114   112   ar
    65    86    85    2
    66    77    76   ar
    67    15    14    1
    68    74    76   ar
    69    85    92   am
    70    19    20    2
    71    19    18    1
    72    17    14    1
    73    17    18    1
    74    92    98    1
    75    92    93    1
    76   112   113   ar
    77   112   111    1
    78    14    13    1
    79    35    36    1
    80    38    36   ar
    81    38    40   ar
    82    36    37   ar
    83    98    97    1
    84    40    41   ar
    85   111   108    1
    86    37    39   ar
    87    93    96    1
    88    93    94    1
    89    13    11   am
    90    41    39   ar
    91    97    96    1
    92    12    11    2
    93    11    10    1
    94   108   107    1
    95   108   109    1
    96    99    94   am
    97    99   100    1
    98    94    95    2
    99   102   101    2
   100   119   116    1
   101   107   101   am
   102   101   100    1
   103    10     9    1
   104   115   116    1
   105   116   117    1
   106   109   110    2
   107   100   103    1
   108   141   139   ar
   109   138   139    1
   110   138   135    1
   111     9     3   am
   112   103   104    1
   113   139   140   ar
   114   142   143    1
   115     4     3    2
   116   117   118    2
   117   117   120   am
   118     7     6   ar
   119     3     2    1
   120   146   143    1
   121   146   147    1
   122   143   144    1
   123   120   121    1
   124   135   134    1
   125   135   136    1
   126   149   147   ar
   127   104   105    2
   128   104   106   am
   129   134   130   am
   130   127   125    1
   131     6     8   ar
   132     6     5    1
   133   147   148   ar
   134   131   130    2
   135   130   129    1
   136   132   133    1
   137   132   129    1
   138   137   136    2
   139     2     5    1
   140     2     1    1
   141   121   124    1
   142   121   122    1
   143   144   145    2
   144   129   128    1
   145   125   124    1
   146   125   126    1
   147   122   123    2
