@<TRIPOS>MOLECULE
tmp/5xoyA00.pdb
 137 128 0 0 0
SMALL
GASTEIGER

@<TRIPOS>ATOM
      1  N        -22.4230  -21.5930   57.5890 N.3    86  ASP86      -0.1239
      2  CA       -22.1460  -20.6450   56.5120 C.3    86  ASP86       0.1674
      3  C        -23.4520  -20.1410   55.9210 C.2    86  ASP86       0.2266
      4  O        -23.9300  -20.6640   54.8750 O.2    86  ASP86      -0.2867
      5  CB       -21.2530  -21.3060   55.4270 C.3    86  ASP86       0.1410
      6  CG       -20.7140  -20.3100   54.3460 C.2    86  ASP86       0.3668
      7  OD1      -20.8110  -19.0400   54.4870 O.co2  86  ASP86      -0.2456
      8  OD2      -20.2020  -20.8260   53.3040 O.co2  86  ASP86      -0.2456
      9  N        -24.2400  -13.1560   49.0340 N.3   119  GLU119     -0.1231
     10  CA       -22.8100  -13.3610   49.2230 C.3   119  GLU119      0.1699
     11  C        -22.2840  -14.6320   48.5620 C.2   119  GLU119      0.2592
     12  O        -21.0890  -14.7030   48.2780 O.2   119  GLU119     -0.2718
     13  CB       -22.4230  -13.3700   50.6620 C.3   119  GLU119      0.0402
     14  CG       -20.9210  -13.4870   50.9210 C.3   119  GLU119      0.1161
     15  CD       -20.4270  -14.9380   51.0260 C.2   119  GLU119      0.3649
     16  OE1      -21.2650  -15.8980   51.0730 O.co2 119  GLU119     -0.2457
     17  OE2      -19.1850  -15.1220   51.0470 O.co2 119  GLU119     -0.2457
     18  N        -23.1330  -15.6400   48.3370 N.am  120  GLU120     -0.1966
     19  CA       -22.6570  -16.8860   47.7280 C.3   120  GLU120      0.1733
     20  C        -22.5670  -16.7490   46.2040 C.2   120  GLU120      0.2616
     21  O        -22.0040  -17.5990   45.5070 O.2   120  GLU120     -0.2715
     22  CB       -23.5050  -18.1060   48.1850 C.3   120  GLU120      0.0429
     23  CG       -23.2840  -18.4970   49.6730 C.3   120  GLU120      0.1163
     24  CD       -21.9800  -19.2480   49.9470 C.2   120  GLU120      0.3649
     25  OE1      -21.6260  -19.5500   51.1210 O.co2 120  GLU120     -0.2457
     26  OE2      -21.2760  -19.5500   48.9640 O.co2 120  GLU120     -0.2457
     27  N        -23.1040  -15.6610   45.6840 N.am  121  ALA121     -0.1964
     28  CA       -23.0640  -15.4220   44.2780 C.3   121  ALA121      0.1713
     29  C        -21.9340  -14.4320   43.8830 C.2   121  ALA121      0.2458
     30  O        -21.3920  -13.7040   44.7220 O.2   121  ALA121     -0.2730
     31  CB       -24.4460  -14.9530   43.8120 C.3   121  ALA121      0.0333
     32  N        -21.5580  -14.4170   42.5930 N.am  122  PRO122     -0.2727
     33  CA       -20.5750  -13.4180   42.1040 C.3   122  PRO122      0.1402
     34  C        -20.9100  -11.9480   42.5030 C.2   122  PRO122      0.2269
     35  O        -20.0290  -11.1590   42.7580 O.2   122  PRO122     -0.2865
     36  CB       -20.6680  -13.5560   40.5830 C.3   122  PRO122      0.0296
     37  CG       -21.2950  -14.8910   40.3110 C.3   122  PRO122      0.0237
     38  CD       -22.1810  -15.1880   41.4900 C.3   122  PRO122      0.0939
     39  N        -22.2800  -10.4480   45.2210 N.3   124  SER124     -0.1217
     40  CA       -22.2970   -9.9090   46.5780 C.3   124  SER124      0.1889
     41  C        -23.1630   -8.6280   46.6710 C.2   124  SER124      0.2288
     42  O        -22.7820   -7.6820   47.3580 O.2   124  SER124     -0.2866
     43  CB       -20.8930   -9.6180   47.0660 C.3   124  SER124      0.2089
     44  OG       -20.4350  -10.6120   47.9860 O.3   124  SER124     -0.2183
     45  N        -18.4800  -15.1630   59.4010 N.3   143  GLU143     -0.1245
     46  CA       -18.1480  -16.3870   58.6670 C.3   143  GLU143      0.1567
     47  C        -17.4580  -17.2320   59.6690 C.2   143  GLU143      0.2260
     48  O        -16.8320  -16.7190   60.5890 O.2   143  GLU143     -0.2867
     49  CB       -17.1970  -16.1490   57.4390 C.3   143  GLU143      0.0388
     50  CG       -17.8360  -15.4140   56.2470 C.3   143  GLU143      0.1160
     51  CD       -18.8180  -16.2450   55.4430 C.2   143  GLU143      0.3649
     52  OE1      -19.0110  -17.4210   55.7210 O.co2 143  GLU143     -0.2457
     53  OE2      -19.4330  -15.7280   54.5090 O.co2 143  GLU143     -0.2457
     54  N        -10.5380  -13.8610   44.4180 N.3   157  ARG157     -0.1245
     55  CA       -11.2530  -14.7600   43.5580 C.3   157  ARG157      0.1563
     56  C        -11.2650  -14.2440   42.1130 C.2   157  ARG157      0.2260
     57  O        -11.1270  -13.0450   41.8750 O.2   157  ARG157     -0.2867
     58  CB       -12.6830  -14.8970   44.0620 C.3   157  ARG157      0.0307
     59  CG       -13.4990  -15.9700   43.3610 C.3   157  ARG157      0.0489
     60  CD       -14.6470  -16.4120   44.2500 C.3   157  ARG157      0.2205
     61  NE       -15.3940  -17.5840   43.7780 N.pl3 157  ARG157     -0.0865
     62  CZ       -16.6860  -17.6090   43.4430 C.cat 157  ARG157      0.5346
     63  NH1      -17.4510  -16.5140   43.4880 N.pl3 157  ARG157      0.1354
     64  NH2      -17.2250  -18.7640   43.0580 N.pl3 157  ARG157      0.1354
     65  N        -15.5780  -25.7610   37.5050 N.3   205  ARG205     -0.1245
     66  CA       -16.9470  -25.6870   38.0280 C.3   205  ARG205      0.1563
     67  C        -17.9480  -26.4090   37.1300 C.2   205  ARG205      0.2260
     68  O        -18.9190  -27.0170   37.5830 O.2   205  ARG205     -0.2867
     69  CB       -17.3750  -24.2310   38.1980 C.3   205  ARG205      0.0307
     70  CG       -16.8030  -23.5720   39.4350 C.3   205  ARG205      0.0489
     71  CD       -17.3110  -24.2050   40.7300 C.3   205  ARG205      0.2205
     72  NE       -17.6930  -23.1440   41.6700 N.pl3 205  ARG205     -0.0865
     73  CZ       -18.9120  -22.6200   41.7980 C.cat 205  ARG205      0.5346
     74  NH1      -19.9390  -23.0630   41.0840 N.pl3 205  ARG205      0.1354
     75  NH2      -19.1120  -21.6420   42.6720 N.pl3 205  ARG205      0.1354
     76  N         -9.1890  -19.1970   43.3340 N.3   222  ARG222     -0.1245
     77  CA        -8.9530  -18.4530   44.5600 C.3   222  ARG222      0.1563
     78  C         -7.5200  -18.0240   44.5740 C.2   222  ARG222      0.2260
     79  O         -6.6320  -18.8360   44.3240 O.2   222  ARG222     -0.2867
     80  CB        -9.2320  -19.3100   45.8000 C.3   222  ARG222      0.0307
     81  CG       -10.6230  -19.9220   45.8200 C.3   222  ARG222      0.0489
     82  CD       -11.6870  -18.9300   45.3170 C.3   222  ARG222      0.2205
     83  NE       -12.9760  -19.5880   45.1120 N.pl3 222  ARG222     -0.0865
     84  CZ       -13.9440  -19.6630   46.0320 C.cat 222  ARG222      0.5346
     85  NH1      -15.0670  -20.3330   45.7630 N.pl3 222  ARG222      0.1354
     86  NH2      -13.7940  -19.0690   47.2000 N.pl3 222  ARG222      0.1354
     87  N        -12.3840  -10.6010   42.9300 N.3   252  GLU252     -0.1245
     88  CA       -12.2930  -10.0400   44.2250 C.3   252  GLU252      0.1567
     89  C        -10.8350  -10.0500   44.6430 C.2   252  GLU252      0.2260
     90  O        -10.1250  -11.0440   44.4740 O.2   252  GLU252     -0.2867
     91  CB       -13.1380  -10.8610   45.2290 C.3   252  GLU252      0.0388
     92  CG       -14.6360  -11.0150   44.8870 C.3   252  GLU252      0.1160
     93  CD       -15.4070   -9.7070   44.9070 C.2   252  GLU252      0.3649
     94  OE1      -14.9000   -8.6910   45.4680 O.co2 252  GLU252     -0.2457
     95  OE2      -16.5040   -9.6610   44.3080 O.co2 252  GLU252     -0.2457
     96  N        -11.1240  -19.8060   51.4150 N.3   285  GLY285     -0.1210
     97  CA       -12.2170  -19.3670   50.5470 C.3   285  GLY285      0.1956
     98  C        -12.1630  -17.8580   50.3820 C.2   285  GLY285      0.2613
     99  O        -11.1340  -17.2200   50.6470 O.2   285  GLY285     -0.2717
    100  N        -13.2850  -17.3040   49.9410 N.am  286  THR286     -0.1938
    101  CA       -13.4960  -15.8700   49.7300 C.3   286  THR286      0.2028
    102  C        -14.7450  -15.3900   50.4990 C.2   286  THR286      0.2643
    103  O        -15.6310  -16.1650   50.7760 O.2   286  THR286     -0.2714
    104  CB       -13.6600  -15.6250   48.2420 C.3   286  THR286      0.1808
    105  OG1      -12.5190  -16.2010   47.5810 O.3   286  THR286     -0.2208
    106  CG2      -13.7680  -14.1030   47.9190 C.3   286  THR286      0.0379
    107  N        -14.8040  -14.1200   50.8750 N.am  287  SER287     -0.1935
    108  CA       -15.9020  -13.6350   51.7280 C.3   287  SER287      0.2055
    109  C        -16.2380  -12.1970   51.4430 C.2   287  SER287      0.2643
    110  O        -15.6030  -11.5440   50.6190 O.2   287  SER287     -0.2714
    111  CB       -15.5490  -13.7990   53.2070 C.3   287  SER287      0.2130
    112  OG       -14.8530  -12.6840   53.7170 O.3   287  SER287     -0.2179
    113  N        -17.2470  -11.6900   52.1320 N.am  288  ASP288     -0.1971
    114  CA       -17.5930  -10.2950   51.9760 C.3   288  ASP288      0.1709
    115  C        -16.5340   -9.3520   52.5650 C.2   288  ASP288      0.2293
    116  O        -16.5180   -8.2050   52.1890 O.2   288  ASP288     -0.2864
    117  CB       -19.0230  -10.0100   52.4380 C.3   288  ASP288      0.1436
    118  CG       -20.0000  -10.1190   51.3170 C.2   288  ASP288      0.3671
    119  OD1      -19.5480  -10.0920   50.1280 O.co2 288  ASP288     -0.2456
    120  OD2      -21.2210  -10.2470   51.5830 O.co2 288  ASP288     -0.2456
    121  N        -14.9430   -8.2840   49.6360 N.3   291  VAL291     -0.1245
    122  CA       -15.7580   -7.3450   48.8770 C.3   291  VAL291      0.1561
    123  C        -15.6940   -5.9720   49.5380 C.2   291  VAL291      0.2260
    124  O        -15.8880   -4.9580   48.8860 O.2   291  VAL291     -0.2867
    125  CB       -17.2170   -7.7900   48.7860 C.3   291  VAL291      0.0252
    126  CG1      -18.0430   -6.7930   47.9880 C.3   291  VAL291      0.0019
    127  CG2      -17.3140   -9.1520   48.1380 C.3   291  VAL291      0.0019
    128  N        -20.8210  -25.7910   52.7730 N.3   312  HIS312     -0.1241
    129  CA       -21.3120  -26.3720   51.5330 C.3   312  HIS312      0.1621
    130  C        -21.4490  -27.9100   51.5470 C.2   312  HIS312      0.2264
    131  O        -21.8520  -28.4970   50.5480 O.2   312  HIS312     -0.2867
    132  CB       -20.4090  -25.9240   50.3710 C.3   312  HIS312      0.0745
    133  CG       -20.3220  -24.4330   50.1970 C.ar  312  HIS312      0.0817
    134  ND1      -19.9470  -23.8470   49.0080 N.ar  312  HIS312     -0.2268
    135  CD2      -20.5860  -23.4120   51.0510 C.ar  312  HIS312      0.1154
    136  CE1      -19.9780  -22.5320   49.1380 C.ar  312  HIS312      0.1986
    137  NE2      -20.3620  -22.2420   50.3700 N.ar  312  HIS312     -0.2212
@<TRIPOS>BOND
     1    67    68    2
     2    67    66    1
     3    65    66    1
     4    66    69    1
     5    69    70    1
     6    70    71    1
     7    37    36    1
     8    37    38    1
     9    36    33    1
    10    71    72    1
    11    74    73    1
    12    38    32    1
    13    72    73    2
    14    73    75    1
    15    57    56    2
    16    33    34    1
    17    33    32    1
    18    56    55    1
    19    34    35    2
    20    32    29   am
    21    87    88    1
    22    64    62    1
    23    76    77    1
    24    59    58    1
    25    59    60    1
    26    62    63    1
    27    62    61    2
    28    55    58    1
    29    55    54    1
    30    61    60    1
    31    31    28    1
    32    29    28    1
    33    29    30    2
    34    88    89    1
    35    88    91    1
    36    28    27    1
    37    95    93   ar
    38    79    78    2
    39    90    89    2
    40    77    78    1
    41    77    80    1
    42    92    93    1
    43    92    91    1
    44    93    94   ar
    45    83    82    1
    46    83    84    2
    47    39    40    1
    48    82    81    1
    49    21    20    2
    50    27    20   am
    51    85    84    1
    52    80    81    1
    53    84    86    1
    54    20    19    1
    55    40    41    1
    56    40    43    1
    57    41    42    2
    58    43    44    1
    59   105   104    1
    60    19    22    1
    61    19    18    1
    62   106   104    1
    63   126   125    1
    64   127   125    1
    65    22    23    1
    66   104   101    1
    67    12    11    2
    68    18    11   am
    69    11    10    1
    70   125   122    1
    71   122   123    1
    72   122   121    1
    73   124   123    2
    74    26    24   ar
    75   134   136   ar
    76   134   133   ar
    77     9    10    1
    78   136   137   ar
    79    10    13    1
    80    23    24    1
    81   101   100    1
    82   101   102    1
    83   100    98   am
    84    24    25   ar
    85   119   118   ar
    86   133   132    1
    87   133   135   ar
    88   137   135   ar
    89   132   129    1
    90    98    97    1
    91    98    99    2
    92   102   103    2
    93   102   107   am
    94    97    96    1
    95   131   130    2
    96   110   109    2
    97    13    14    1
    98   107   108    1
    99    14    15    1
   100    15    17   ar
   101    15    16   ar
   102   118   120   ar
   103   118   117    1
   104   109   108    1
   105   109   113   am
   106   129   130    1
   107   129   128    1
   108   108   111    1
   109   114   113    1
   110   114   117    1
   111   114   115    1
   112   116   115    2
   113   111   112    1
   114     8     6   ar
   115     6     7   ar
   116     6     5    1
   117    53    51   ar
   118     4     3    2
   119     5     2    1
   120    51    52   ar
   121    51    50    1
   122     3     2    1
   123    50    49    1
   124     2     1    1
   125    49    46    1
   126    46    45    1
   127    46    47    1
   128    47    48    2
