@<TRIPOS>MOLECULE
tmp/5xp5B00.pdb
 171 158 0 0 0
SMALL
GASTEIGER

@<TRIPOS>ATOM
      1  N         16.2340   21.7660   50.0390 N.3    15  LEU15      -0.1231
      2  CA        16.3090   22.3870   48.7190 C.3    15  LEU15       0.1693
      3  C         17.5290   21.9330   47.9220 C.2    15  LEU15       0.2593
      4  O         17.4070   21.4980   46.7760 O.2    15  LEU15      -0.2718
      5  CB        16.3140   23.9110   48.8570 C.3    15  LEU15       0.0284
      6  CG        15.0580   24.5110   49.4910 C.3    15  LEU15       0.0019
      7  CD1       15.1980   26.0160   49.6550 C.3    15  LEU15       0.0001
      8  CD2       13.8220   24.1690   48.6700 C.3    15  LEU15       0.0001
      9  N         18.7050   22.0470   48.5280 N.am   16  GLY16      -0.1942
     10  CA        19.9370   21.6260   47.8870 C.3    16  GLY16       0.2014
     11  C         20.8740   20.9710   48.8800 C.2    16  GLY16       0.2638
     12  O         20.6010   20.9580   50.0770 O.2    16  GLY16      -0.2714
     13  N         21.9820   20.4260   48.3890 N.am   17  GLN17      -0.1977
     14  CA        22.9490   19.7690   49.2600 C.3    17  GLN17       0.1601
     15  C         24.2750   19.5320   48.5470 C.2    17  GLN17       0.2287
     16  O         24.3260   18.9290   47.4730 O.2    17  GLN17      -0.2864
     17  CB        22.3780   18.4420   49.7920 C.3    17  GLN17       0.0394
     18  CG        23.3650   17.2680   49.8740 C.3    17  GLN17       0.0908
     19  CD        22.7200   16.0000   50.4140 C.2    17  GLN17       0.2608
     20  OE1       21.5720   16.0180   50.8530 O.2    17  GLN17      -0.2717
     21  NE2       23.4530   14.8900   50.3710 N.am   17  GLN17      -0.0878
     22  N         29.1940   19.4460   51.9330 N.3    20  PHE20      -0.1241
     23  CA        29.6510   20.3670   52.9630 C.3    20  PHE20       0.1605
     24  C         28.4760   21.0550   53.6470 C.2    20  PHE20       0.2264
     25  O         28.6580   22.0280   54.3750 O.2    20  PHE20      -0.2867
     26  CB        30.5870   21.4120   52.3570 C.3    20  PHE20       0.0534
     27  CG        29.9610   22.2040   51.2460 C.ar   20  PHE20      -0.0203
     28  CD1       29.2730   23.3770   51.5100 C.ar   20  PHE20      -0.0042
     29  CD2       30.0470   21.7640   49.9360 C.ar   20  PHE20      -0.0042
     30  CE1       28.6920   24.0960   50.4890 C.ar   20  PHE20      -0.0003
     31  CE2       29.4680   22.4800   48.9120 C.ar   20  PHE20      -0.0003
     32  CZ        28.7920   23.6440   49.1890 C.ar   20  PHE20      -0.0000
     33  N         20.7340   22.9690   52.2870 N.3    23  VAL23      -0.1245
     34  CA        19.9630   24.2060   52.2590 C.3    23  VAL23       0.1561
     35  C         18.4850   23.8800   52.4440 C.2    23  VAL23       0.2260
     36  O         17.9450   23.0050   51.7680 O.2    23  VAL23      -0.2867
     37  CB        20.1600   24.9870   50.9430 C.3    23  VAL23       0.0252
     38  CG1       19.3680   26.2840   50.9760 C.3    23  VAL23       0.0019
     39  CG2       21.6350   25.2750   50.7060 C.3    23  VAL23       0.0019
     40  N         15.5490   30.9410   54.5160 N.3    35  ALA35      -0.1245
     41  CA        16.4340   29.9370   53.9400 C.3    35  ALA35       0.1562
     42  C         17.5400   29.6210   54.9340 C.2    35  ALA35       0.2260
     43  O         18.1490   30.5260   55.4930 O.2    35  ALA35      -0.2867
     44  CB        17.0150   30.4190   52.6230 C.3    35  ALA35       0.0290
     45  N         21.0970   27.4930   55.7370 N.3    37  LYS37      -0.1245
     46  CA        22.2430   26.7070   55.2960 C.3    37  LYS37       0.1561
     47  C         22.9350   26.0430   56.4750 C.2    37  LYS37       0.2260
     48  O         23.4130   26.7090   57.3930 O.2    37  LYS37      -0.2867
     49  CB        23.2480   27.5720   54.5300 C.3    37  LYS37       0.0271
     50  CG        22.6520   28.7920   53.8540 C.3    37  LYS37       0.0035
     51  CD        23.6530   29.4400   52.9120 C.3    37  LYS37       0.0206
     52  CE        22.9820   30.4650   52.0160 C.3    37  LYS37       0.1093
     53  NZ        22.3670   29.8260   50.8200 N.3    37  LYS37      -0.1314
     54  N         31.2090   33.2540   55.0720 N.3    52  GLU52      -0.1245
     55  CA        30.2440   33.8020   54.1270 C.3    52  GLU52       0.1567
     56  C         29.3310   34.7350   54.9110 C.2    52  GLU52       0.2260
     57  O         28.8530   35.7450   54.3950 O.2    52  GLU52      -0.2867
     58  CB        29.4390   32.6960   53.4360 C.3    52  GLU52       0.0388
     59  CG        28.1920   33.1870   52.7100 C.3    52  GLU52       0.1160
     60  CD        27.5510   32.1170   51.8490 C.2    52  GLU52       0.3649
     61  OE1       28.0460   30.9710   51.8550 O.co2  52  GLU52      -0.2457
     62  OE2       26.5460   32.4210   51.1710 O.co2  52  GLU52      -0.2457
     63  N         21.3140   39.0900   48.6250 N.3    65  VAL65      -0.1245
     64  CA        20.5810   38.2140   49.5310 C.3    65  VAL65       0.1561
     65  C         20.9340   38.5690   50.9700 C.2    65  VAL65       0.2260
     66  O         22.1030   38.5550   51.3560 O.2    65  VAL65      -0.2867
     67  CB        20.8790   36.7280   49.2660 C.3    65  VAL65       0.0252
     68  CG1       20.2350   35.8600   50.3340 C.3    65  VAL65       0.0019
     69  CG2       20.3740   36.3330   47.8890 C.3    65  VAL65       0.0019
     70  N         18.9430   32.9820   55.9030 N.3    80  THR80      -0.1203
     71  CA        18.9490   34.1950   55.1010 C.3    80  THR80       0.1994
     72  C         17.5720   34.5020   54.5640 C.2    80  THR80       0.2618
     73  O         16.6140   33.7910   54.8540 O.2    80  THR80      -0.2717
     74  CB        19.9400   34.1020   53.9140 C.3    80  THR80       0.1784
     75  OG1       19.5620   33.0220   53.0500 O.3    80  THR80      -0.2211
     76  CG2       21.3840   33.9140   54.3910 C.3    80  THR80       0.0376
     77  N         17.4760   35.5750   53.7880 N.am   81  GLU81      -0.1965
     78  CA        16.2570   35.8700   53.0420 C.3    81  GLU81       0.1733
     79  C         15.8820   34.6880   52.1440 C.2    81  GLU81       0.2616
     80  O         16.7520   34.0820   51.5220 O.2    81  GLU81      -0.2715
     81  CB        16.4500   37.1400   52.2110 C.3    81  GLU81       0.0429
     82  CG        15.3140   37.5050   51.2690 C.3    81  GLU81       0.1163
     83  CD        15.6170   38.7800   50.5080 C.2    81  GLU81       0.3649
     84  OE1       16.8030   39.1760   50.4760 O.co2  81  GLU81      -0.2457
     85  OE2       14.6800   39.3870   49.9510 O.co2  81  GLU81      -0.2457
     86  N         14.5960   34.3520   52.0790 N.am   82  TYR82      -0.1960
     87  CA        14.1520   33.2440   51.2340 C.3    82  TYR82       0.1771
     88  C         13.7630   33.7270   49.8390 C.2    82  TYR82       0.2619
     89  O         13.0060   34.6850   49.6900 O.2    82  TYR82      -0.2715
     90  CB        12.9770   32.4970   51.8740 C.3    82  TYR82       0.0574
     91  CG        12.4630   31.3530   51.0280 C.ar   82  TYR82      -0.0198
     92  CD1       13.2570   30.2420   50.7760 C.ar   82  TYR82      -0.0009
     93  CD2       11.1870   31.3840   50.4800 C.ar   82  TYR82      -0.0009
     94  CE1       12.7980   29.1960   49.9990 C.ar   82  TYR82       0.0417
     95  CE2       10.7170   30.3390   49.7040 C.ar   82  TYR82       0.0417
     96  CZ        11.5270   29.2480   49.4680 C.ar   82  TYR82       0.1957
     97  OH        11.0670   28.2050   48.6970 O.3    82  TYR82      -0.2866
     98  N         14.2940   33.0530   48.8230 N.am   83  MET83      -0.1977
     99  CA        14.0260   33.3960   47.4310 C.3    83  MET83       0.1605
    100  C         13.2290   32.2820   46.7590 C.2    83  MET83       0.2287
    101  O         13.7880   31.2620   46.3560 O.2    83  MET83      -0.2864
    102  CB        15.3350   33.6500   46.6840 C.3    83  MET83       0.0413
    103  CG        16.2460   34.6560   47.3720 C.3    83  MET83       0.0598
    104  SD        15.5570   36.3230   47.3880 S.3    83  MET83      -0.1393
    105  CE        15.6430   36.7370   45.6470 C.3    83  MET83       0.0692
    106  N         14.2170   30.1900   43.4170 N.3    86  GLY86      -0.1210
    107  CA        15.4730   29.4620   43.3440 C.3    86  GLY86       0.1956
    108  C         16.5380   30.1700   42.5280 C.2    86  GLY86       0.2612
    109  O         16.4730   31.3820   42.3220 O.2    86  GLY86      -0.2717
    110  N         17.5240   29.4090   42.0600 N.am   87  SER87      -0.1952
    111  CA        18.6430   29.9780   41.3180 C.3    87  SER87       0.1924
    112  C         18.2100   30.4740   39.9420 C.2    87  SER87       0.2314
    113  O         17.2740   29.9420   39.3450 O.2    87  SER87      -0.2863
    114  CB        19.7680   28.9510   41.1700 C.3    87  SER87       0.2116
    115  OG        19.4830   28.0280   40.1340 O.3    87  SER87      -0.2180
    116  N         18.6210   27.6340   37.1620 N.3    90  ASP90      -0.1239
    117  CA        17.5110   26.6870   37.1210 C.3    90  ASP90       0.1674
    118  C         16.2650   27.3400   36.5320 C.2    90  ASP90       0.2266
    119  O         15.4910   26.6990   35.8210 O.2    90  ASP90      -0.2867
    120  CB        17.2060   26.1460   38.5200 C.3    90  ASP90       0.1410
    121  CG        18.3770   25.3930   39.1240 C.2    90  ASP90       0.3668
    122  OD1       19.2010   24.8520   38.3570 O.co2  90  ASP90      -0.2456
    123  OD2       18.4720   25.3430   40.3690 O.co2  90  ASP90      -0.2456
    124  N         32.8840   35.0110   42.1050 N.3   128  ASP128     -0.1239
    125  CA        32.0840   33.8700   41.6700 C.3   128  ASP128      0.1674
    126  C         30.7360   34.3190   41.1130 C.2   128  ASP128      0.2266
    127  O         29.7040   33.7010   41.3770 O.2   128  ASP128     -0.2867
    128  CB        31.8810   32.8870   42.8260 C.3   128  ASP128      0.1410
    129  CG        31.5250   31.4910   42.3490 C.2   128  ASP128      0.3668
    130  OD1       31.7460   31.1940   41.1550 O.co2 128  ASP128     -0.2456
    131  OD2       31.0270   30.6900   43.1670 O.co2 128  ASP128     -0.2456
    132  N         27.8760   34.5370   38.6710 N.3   130  ARG130     -0.1245
    133  CA        27.3150   33.6600   37.6490 C.3   130  ARG130      0.1563
    134  C         25.8330   33.4160   37.9110 C.2   130  ARG130      0.2260
    135  O         25.3260   33.7410   38.9850 O.2   130  ARG130     -0.2867
    136  CB        28.0750   32.3340   37.6060 C.3   130  ARG130      0.0307
    137  CG        28.1470   31.6270   38.9480 C.3   130  ARG130      0.0489
    138  CD        29.1900   30.5260   38.9370 C.3   130  ARG130      0.2205
    139  NE        28.8900   29.4980   37.9450 N.pl3 130  ARG130     -0.0865
    140  CZ        29.6530   28.4330   37.7230 C.cat 130  ARG130      0.5346
    141  NH1       29.3060   27.5450   36.8020 N.pl3 130  ARG130      0.1354
    142  NH2       30.7620   28.2550   38.4260 N.pl3 130  ARG130      0.1354
    143  N         24.2310   30.7040   38.4320 N.3   132  ALA132     -0.1231
    144  CA        23.9990   29.7260   39.4900 C.3   132  ALA132      0.1694
    145  C         24.0860   30.3710   40.8700 C.2   132  ALA132      0.2592
    146  O         23.6260   29.8020   41.8610 O.2   132  ALA132     -0.2718
    147  CB        24.9910   28.5790   39.3780 C.3   132  ALA132      0.0304
    148  N         24.6780   31.5590   40.9280 N.am  133  ASN133     -0.1974
    149  CA        24.8100   32.2830   42.1860 C.3   133  ASN133      0.1688
    150  C         23.9480   33.5390   42.2140 C.2   133  ASN133      0.2292
    151  O         24.2040   34.4680   42.9800 O.2   133  ASN133     -0.2864
    152  CB        26.2740   32.6330   42.4440 C.3   133  ASN133      0.1181
    153  CG        27.1230   31.4040   42.6980 C.2   133  ASN133      0.2629
    154  OD1       26.6190   30.3690   43.1330 O.2   133  ASN133     -0.2716
    155  ND2       28.4170   31.5090   42.4280 N.am  133  ASN133     -0.0877
    156  N         19.8930   34.4780   42.8090 N.3   135  LEU135     -0.1245
    157  CA        18.6380   33.9060   43.2720 C.3   135  LEU135      0.1561
    158  C         17.4550   34.7500   42.8210 C.2   135  LEU135      0.2260
    159  O         17.5170   35.9790   42.8170 O.2   135  LEU135     -0.2867
    160  CB        18.6450   33.7590   44.7930 C.3   135  LEU135      0.0270
    161  CG        19.5650   32.6560   45.3230 C.3   135  LEU135      0.0019
    162  CD1       19.5970   32.6540   46.8430 C.3   135  LEU135      0.0001
    163  CD2       19.1290   31.2990   44.7890 C.3   135  LEU135      0.0001
    164  N         25.6880   33.9310   47.5250 N.3   146  ASP146     -0.1239
    165  CA        26.8800   33.1070   47.7150 C.3   146  ASP146      0.1674
    166  C         28.1570   33.9380   47.7500 C.2   146  ASP146      0.2266
    167  O         28.8880   34.0230   46.7630 O.2   146  ASP146     -0.2867
    168  CB        26.9680   32.0430   46.6190 C.3   146  ASP146      0.1410
    169  CG        25.7020   31.2180   46.5160 C.2   146  ASP146      0.3668
    170  OD1       25.3620   30.5280   47.5000 O.co2 146  ASP146     -0.2456
    171  OD2       25.0470   31.2580   45.4540 O.co2 146  ASP146     -0.2456
@<TRIPOS>BOND
     1   119   118    2
     2   118   117    1
     3   141   140    1
     4   117   116    1
     5   117   120    1
     6   136   133    1
     7   136   137    1
     8   133   134    1
     9   133   132    1
    10   140   139    2
    11   140   142    1
    12   134   135    2
    13   139   138    1
    14   122   121   ar
    15   143   144    1
    16   120   121    1
    17   138   137    1
    18   121   123   ar
    19   113   112    2
    20   147   144    1
    21   144   145    1
    22   112   111    1
    23   115   114    1
    24   145   148   am
    25   145   146    2
    26   148   149    1
    27   126   127    2
    28   126   125    1
    29   130   129   ar
    30   114   111    1
    31   111   110    1
    32   125   124    1
    33   125   128    1
    34   110   108   am
    35   149   150    1
    36   149   152    1
    37   150   151    2
    38   109   108    2
    39   129   128    1
    40   129   131   ar
    41   155   153   am
    42   152   153    1
    43   108   107    1
    44   153   154    2
    45   156   157    1
    46   159   158    2
    47   158   157    1
    48   157   160    1
    49   107   106    1
    50   163   161    1
    51   160   161    1
    52   161   162    1
    53   171   169   ar
    54   105   104    1
    55   101   100    2
    56   169   168    1
    57   169   170   ar
    58   168   165    1
    59   102   103    1
    60   102    99    1
    61   100    99    1
    62   167   166    2
    63     4     3    2
    64   103   104    1
    65    99    98    1
    66    16    15    2
    67   164   165    1
    68   165   166    1
    69    10     9    1
    70    10    11    1
    71    69    67    1
    72     3     9   am
    73     3     2    1
    74    13    11   am
    75    13    14    1
    76    15    14    1
    77    63    64    1
    78     8     6    1
    79    97    96    1
    80     2     5    1
    81     2     1    1
    82    98    88   am
    83     5     6    1
    84    11    12    2
    85    31    32   ar
    86    31    29   ar
    87    32    30   ar
    88    14    17    1
    89    67    64    1
    90    67    68    1
    91    96    95   ar
    92    96    94   ar
    93     6     7    1
    94    64    65    1
    95    89    88    2
    96    95    93   ar
    97    17    18    1
    98    88    87    1
    99    18    19    1
   100    29    27   ar
   101    85    83   ar
   102    94    92   ar
   103    21    19   am
   104    19    20    2
   105    84    83   ar
   106    93    91   ar
   107    30    28   ar
   108    83    82    1
   109    39    37    1
   110    92    91   ar
   111    53    52    1
   112    37    38    1
   113    37    34    1
   114    65    66    2
   115    91    90    1
   116    62    60   ar
   117    87    90    1
   118    87    86    1
   119    27    28   ar
   120    27    26    1
   121    82    81    1
   122    80    79    2
   123    36    35    2
   124    60    61   ar
   125    60    59    1
   126    22    23    1
   127    52    51    1
   128    86    79   am
   129    79    78    1
   130    81    78    1
   131    34    33    1
   132    34    35    1
   133    26    23    1
   134    44    41    1
   135    59    58    1
   136    51    50    1
   137    23    24    1
   138    78    77    1
   139    75    74    1
   140    58    55    1
   141    24    25    2
   142    77    72   am
   143    50    49    1
   144    74    76    1
   145    74    71    1
   146    41    40    1
   147    41    42    1
   148    55    56    1
   149    55    54    1
   150    57    56    2
   151    49    46    1
   152    72    73    2
   153    72    71    1
   154    42    43    2
   155    71    70    1
   156    46    45    1
   157    46    47    1
   158    47    48    2
