@<TRIPOS>MOLECULE
tmp/5xp7B00.pdb
 179 170 0 0 0
SMALL
GASTEIGER

@<TRIPOS>ATOM
      1  N          3.9230  -13.2660    1.1850 N.3    18  LEU18      -0.1231
      2  CA         3.6740  -14.0750    2.3760 C.3    18  LEU18       0.1696
      3  C          4.7730  -13.9470    3.4300 C.2    18  LEU18       0.2632
      4  O          4.4820  -13.9760    4.6240 O.2    18  LEU18      -0.2714
      5  CB         3.5070  -15.5570    1.9960 C.3    18  LEU18       0.0284
      6  CG         2.2870  -15.9920    1.1680 C.3    18  LEU18       0.0019
      7  CD1        2.3220  -17.4900    0.8740 C.3    18  LEU18       0.0001
      8  CD2        0.9900  -15.6170    1.8840 C.3    18  LEU18       0.0001
      9  N          6.0270  -13.8220    2.9970 N.am   19  GLY19      -0.1718
     10  CA         7.1360  -13.7580    3.9400 C.2    19  GLY19       0.1480
     11  C          8.4930  -13.3410    3.3910 C.2    19  GLY19       0.2820
     12  O          8.6710  -13.1970    2.1800 O.2    19  GLY19      -0.2669
     13  N          9.4420  -13.1280    4.3020 N.am   20  GLN20      -0.1929
     14  CA        10.8000  -12.6980    3.9630 C.3    20  GLN20       0.1736
     15  C         11.8660  -13.4240    4.8090 C.2    20  GLN20       0.2617
     16  O         11.5340  -14.2060    5.7020 O.2    20  GLN20      -0.2715
     17  CB        10.9320  -11.1840    4.1080 C.3    20  GLN20       0.0408
     18  CG        11.0500  -10.5030    2.7560 C.3    20  GLN20       0.0908
     19  CD        11.0510   -9.0000    2.8600 C.2    20  GLN20       0.2608
     20  OE1       10.7410   -8.4410    3.9120 O.2    20  GLN20      -0.2717
     21  NE2       11.3750   -8.3310    1.7570 N.am   20  GLN20      -0.0878
     22  N         13.1380  -13.1070    4.5600 N.am   21  GLY21      -0.1940
     23  CA        14.2660  -13.6850    5.2830 C.3    21  GLY21       0.2014
     24  C         15.5620  -12.9810    4.9040 C.2    21  GLY21       0.2639
     25  O         15.5190  -11.9170    4.2830 O.2    21  GLY21      -0.2714
     26  N         16.7150  -13.5340    5.2780 N.am   22  CYS22      -0.1953
     27  CA        17.9770  -12.8620    4.9580 C.3    22  CYS22       0.1843
     28  C         18.3840  -13.0600    3.4990 C.2    22  CYS22       0.2625
     29  O         19.1920  -12.2910    2.9810 O.2    22  CYS22      -0.2714
     30  CB        19.1350  -13.3960    5.8120 C.3    22  CYS22       0.0997
     31  SG        19.0210  -13.3280    7.6030 S.3    22  CYS22      -0.0797
     32  N         17.8180  -14.0660    2.8330 N.am   23  PHE23      -0.1959
     33  CA        18.2650  -14.4100    1.4800 C.3    23  PHE23       0.1774
     34  C         17.2100  -14.3350    0.3670 C.2    23  PHE23       0.2659
     35  O         17.5510  -14.4750   -0.8060 O.2    23  PHE23      -0.2711
     36  CB        18.9060  -15.8050    1.4950 C.3    23  PHE23       0.0574
     37  CG        20.1520  -15.8740    2.3310 C.ar   23  PHE23      -0.0200
     38  CD1       21.3690  -15.4560    1.8140 C.ar   23  PHE23      -0.0042
     39  CD2       20.1060  -16.3350    3.6410 C.ar   23  PHE23      -0.0042
     40  CE1       22.5230  -15.4980    2.5840 C.ar   23  PHE23      -0.0003
     41  CE2       21.2540  -16.3820    4.4180 C.ar   23  PHE23      -0.0003
     42  CZ        22.4650  -15.9630    3.8870 C.ar   23  PHE23      -0.0000
     43  N         15.9490  -14.0880    0.7070 N.am   24  GLY24      -0.1716
     44  CA        14.9190  -14.0190   -0.3180 C.2    24  GLY24       0.1480
     45  C         13.5030  -13.7490    0.1540 C.2    24  GLY24       0.2820
     46  O         13.2540  -13.5800    1.3490 O.2    24  GLY24      -0.2669
     47  N         12.5710  -13.7020   -0.7970 N.am   25  GLU25      -0.1929
     48  CA        11.1690  -13.4440   -0.4890 C.3    25  GLU25       0.1736
     49  C         10.2560  -14.5600   -0.9630 C.2    25  GLU25       0.2616
     50  O         10.5820  -15.2800   -1.9050 O.2    25  GLU25      -0.2715
     51  CB        10.7330  -12.1250   -1.1250 C.3    25  GLU25       0.0429
     52  CG        11.8720  -11.1390   -1.3010 C.3    25  GLU25       0.1163
     53  CD        11.3800   -9.7270   -1.5090 C.2    25  GLU25       0.3649
     54  OE1       10.2540   -9.5700   -2.0260 O.co2  25  GLU25      -0.2457
     55  OE2       12.1060   -8.7770   -1.1400 O.co2  25  GLU25      -0.2457
     56  N          9.0810  -14.6540   -0.3470 N.am   26  VAL26      -0.1977
     57  CA         8.0900  -15.6550   -0.7300 C.3    26  VAL26       0.1596
     58  C          6.7250  -15.0410   -1.0320 C.2    26  VAL26       0.2287
     59  O          6.1810  -14.2730   -0.2400 O.2    26  VAL26      -0.2864
     60  CB         7.9100  -16.7220    0.3600 C.3    26  VAL26       0.0276
     61  CG1        6.7890  -17.6710   -0.0290 C.3    26  VAL26       0.0022
     62  CG2        9.2140  -17.4990    0.5790 C.3    26  VAL26       0.0022
     63  N          3.0450  -21.5780   -3.6500 N.3    38  ALA38      -0.1245
     64  CA         3.9350  -20.6040   -3.0540 C.3    38  ALA38       0.1562
     65  C          5.1260  -20.4060   -3.9910 C.2    38  ALA38       0.2260
     66  O          5.6340  -21.3670   -4.5860 O.2    38  ALA38      -0.2867
     67  CB         4.3870  -21.0480   -1.6690 C.3    38  ALA38       0.0290
     68  N          8.9450  -18.7410   -4.2950 N.3    40  LYS40      -0.1245
     69  CA        10.0840  -18.1300   -3.6130 C.3    40  LYS40       0.1561
     70  C         11.0160  -17.4610   -4.6170 C.2    40  LYS40       0.2260
     71  O         11.4790  -18.0830   -5.5700 O.2    40  LYS40      -0.2867
     72  CB        10.8480  -19.1680   -2.7840 C.3    40  LYS40       0.0271
     73  CG        12.0800  -18.6270   -2.0770 C.3    40  LYS40       0.0035
     74  CD        12.7140  -19.6760   -1.1710 C.3    40  LYS40       0.0206
     75  CE        13.8630  -19.0880   -0.3730 C.3    40  LYS40       0.1093
     76  NZ        14.0090  -19.6880    0.9840 N.3    40  LYS40      -0.1314
     77  N          8.0810  -29.9010    2.7460 N.3    68  VAL68      -0.1245
     78  CA         7.3610  -29.0640    1.7810 C.3    68  VAL68       0.1561
     79  C          7.7790  -29.4840    0.3640 C.2    68  VAL68       0.2260
     80  O          8.9780  -29.6460    0.0580 O.2    68  VAL68      -0.2867
     81  CB         7.6170  -27.5520    1.9940 C.3    68  VAL68       0.0252
     82  CG1        6.8110  -26.7240    1.0020 C.3    68  VAL68       0.0019
     83  CG2        7.2070  -27.1690    3.3880 C.3    68  VAL68       0.0019
     84  N          6.5520  -24.0530   -4.8780 N.3    83  THR83      -0.1203
     85  CA         6.2620  -25.1530   -3.9560 C.3    83  THR83       0.1994
     86  C          4.7800  -25.2260   -3.5850 C.2    83  THR83       0.2618
     87  O          4.0090  -24.3310   -3.9320 O.2    83  THR83      -0.2717
     88  CB         7.0430  -25.0140   -2.6630 C.3    83  THR83       0.1784
     89  OG1        6.5990  -23.8300   -2.0070 O.3    83  THR83      -0.2211
     90  CG2        8.5390  -24.9250   -2.9350 C.3    83  THR83       0.0376
     91  N          4.3950  -26.2790   -2.8610 N.am   84  GLU84      -0.1965
     92  CA         3.0270  -26.4180   -2.3510 C.3    84  GLU84       0.1733
     93  C          2.7480  -25.3030   -1.3540 C.2    84  GLU84       0.2616
     94  O          3.6560  -24.8420   -0.6620 O.2    84  GLU84      -0.2715
     95  CB         2.8030  -27.7790   -1.6710 C.3    84  GLU84       0.0429
     96  CG         3.3290  -27.9060   -0.2550 C.3    84  GLU84       0.1163
     97  CD         3.1280  -29.3000    0.3490 C.2    84  GLU84       0.3649
     98  OE1        4.1250  -30.0370    0.5020 O.co2  84  GLU84      -0.2457
     99  OE2        1.9880  -29.6560    0.7030 O.co2  84  GLU84      -0.2457
    100  N          1.4900  -24.8790   -1.2880 N.am   85  TYR85      -0.1960
    101  CA         1.0770  -23.7810   -0.4240 C.3    85  TYR85       0.1771
    102  C          0.7250  -24.3110    0.9580 C.2    85  TYR85       0.2619
    103  O         -0.0770  -25.2410    1.0830 O.2    85  TYR85      -0.2715
    104  CB        -0.1300  -23.0440   -1.0310 C.3    85  TYR85       0.0574
    105  CG        -0.6850  -21.9550   -0.1380 C.ar   85  TYR85      -0.0198
    106  CD1        0.0680  -20.8330    0.1580 C.ar   85  TYR85      -0.0009
    107  CD2       -1.9600  -22.0570    0.4150 C.ar   85  TYR85      -0.0009
    108  CE1       -0.4190  -19.8360    0.9850 C.ar   85  TYR85       0.0417
    109  CE2       -2.4610  -21.0600    1.2460 C.ar   85  TYR85       0.0417
    110  CZ        -1.6830  -19.9510    1.5240 C.ar   85  TYR85       0.1957
    111  OH        -2.1510  -18.9380    2.3360 O.3    85  TYR85      -0.2866
    112  N          1.3300  -23.7420    1.9960 N.am   86  MET86      -0.1977
    113  CA         1.0110  -24.1730    3.3570 C.3    86  MET86       0.1605
    114  C          0.1360  -23.1160    4.0530 C.2    86  MET86       0.2287
    115  O          0.6070  -22.0370    4.4430 O.2    86  MET86      -0.2864
    116  CB         2.2960  -24.4740    4.1450 C.3    86  MET86       0.0413
    117  CG         3.1280  -25.5800    3.5120 C.3    86  MET86       0.0598
    118  SD         2.2670  -27.1890    3.5410 S.3    86  MET86      -0.1393
    119  CE         2.2750  -27.5840    5.2890 C.3    86  MET86       0.0692
    120  N          0.9280  -21.0340    7.5500 N.3    89  GLY89      -0.1210
    121  CA         2.1530  -20.2570    7.7210 C.3    89  GLY89       0.1956
    122  C          3.2270  -20.9010    8.5900 C.2    89  GLY89       0.2612
    123  O          3.2210  -22.1260    8.8060 O.2    89  GLY89      -0.2717
    124  N          4.1760  -20.1020    9.0790 N.am   90  SER90      -0.1952
    125  CA         5.2960  -20.6940    9.8130 C.3    90  SER90       0.1924
    126  C          4.8590  -21.1620   11.1890 C.2    90  SER90       0.2314
    127  O          4.0000  -20.5300   11.8100 O.2    90  SER90      -0.2863
    128  CB         6.4650  -19.7120    9.9380 C.3    90  SER90       0.2116
    129  OG         6.3970  -18.8790   11.0770 O.3    90  SER90      -0.2180
    130  N          5.2410  -18.4080   13.8460 N.3    93  ASP93      -0.1239
    131  CA         4.1340  -17.4310   13.9280 C.3    93  ASP93       0.1674
    132  C          2.8800  -18.0580   14.5500 C.2    93  ASP93       0.2266
    133  O          2.1330  -17.3860   15.2680 O.2    93  ASP93      -0.2867
    134  CB         3.7820  -16.8360   12.5580 C.3    93  ASP93       0.1410
    135  CG         4.9480  -16.0820   11.9250 C.2    93  ASP93       0.3668
    136  OD1        5.9350  -15.7820   12.6380 O.co2  93  ASP93      -0.2456
    137  OD2        4.8710  -15.7620   10.7150 O.co2  93  ASP93      -0.2456
    138  N         19.4570  -25.8080    9.2750 N.3   131  ASP131     -0.1239
    139  CA        18.6880  -24.6240    9.6760 C.3   131  ASP131      0.1674
    140  C         17.3230  -25.0240   10.2340 C.2   131  ASP131      0.2266
    141  O         16.3230  -24.3550    9.9970 O.2   131  ASP131     -0.2867
    142  CB        18.5410  -23.6880    8.4790 C.3   131  ASP131      0.1410
    143  CG        18.2150  -22.2420    8.8820 C.2   131  ASP131      0.3668
    144  OD1       18.2200  -21.9290   10.0890 O.co2 131  ASP131     -0.2456
    145  OD2       17.9730  -21.4130    7.9700 O.co2 131  ASP131     -0.2456
    146  N         10.8130  -21.4350   12.8610 N.3   135  ALA135     -0.1231
    147  CA        10.5880  -20.4750   11.7930 C.3   135  ALA135      0.1694
    148  C         10.7220  -21.1360   10.4110 C.2   135  ALA135      0.2592
    149  O         10.3200  -20.5500    9.4110 O.2   135  ALA135     -0.2718
    150  CB        11.5450  -19.2940   11.9060 C.3   135  ALA135      0.0304
    151  N         11.3420  -22.3120   10.3580 N.am  136  ASN136     -0.1974
    152  CA        11.5100  -23.0500    9.0880 C.3   136  ASN136      0.1688
    153  C         10.6480  -24.3020    9.0350 C.2   136  ASN136      0.2292
    154  O         10.9290  -25.2380    8.2730 O.2   136  ASN136     -0.2864
    155  CB        12.9920  -23.3890    8.8560 C.3   136  ASN136      0.1181
    156  CG        13.8150  -22.1460    8.4890 C.2   136  ASN136      0.2629
    157  OD1       13.2680  -21.1850    7.9570 O.2   136  ASN136     -0.2716
    158  ND2       15.1140  -22.1490    8.8020 N.am  136  ASN136     -0.0877
    159  N          6.6130  -25.3390    8.3690 N.3   138  LEU138     -0.1245
    160  CA         5.3580  -24.7860    7.8520 C.3   138  LEU138      0.1561
    161  C          4.1790  -25.6230    8.3170 C.2   138  LEU138      0.2260
    162  O          4.2940  -26.8380    8.4800 O.2   138  LEU138     -0.2867
    163  CB         5.3720  -24.7030    6.3210 C.3   138  LEU138      0.0270
    164  CG         6.2450  -23.6110    5.6970 C.3   138  LEU138      0.0019
    165  CD1        6.3260  -23.7590    4.2110 C.3   138  LEU138      0.0001
    166  CD2        5.6720  -22.2360    6.0320 C.3   138  LEU138      0.0001
    167  N         10.7390  -27.1730    6.0410 N.3   148  ALA148     -0.1231
    168  CA        10.9080  -26.2240    4.9520 C.3   148  ALA148      0.1694
    169  C         12.2890  -25.5560    4.9560 C.2   148  ALA148      0.2592
    170  O         13.1490  -25.9070    5.7580 O.2   148  ALA148     -0.2718
    171  CB         9.8060  -25.1500    5.0220 C.3   148  ALA148      0.0304
    172  N         12.4770  -24.6130    4.0250 N.am  149  ASP149     -0.1974
    173  CA        13.6950  -23.7950    3.8460 C.3   149  ASP149      0.1709
    174  C         14.9600  -24.6300    3.7810 C.2   149  ASP149      0.2293
    175  O         15.7410  -24.6900    4.7420 O.2   149  ASP149     -0.2864
    176  CB        13.8570  -22.7080    4.9240 C.3   149  ASP149      0.1436
    177  CG        14.9770  -21.6920    4.5660 C.2   149  ASP149      0.3671
    178  OD1       15.3160  -20.8090    5.3860 O.co2 149  ASP149     -0.2456
    179  OD2       15.5340  -21.7880    3.4470 O.co2 149  ASP149     -0.2456
@<TRIPOS>BOND
     1    71    70    2
     2    84    85    1
     3    70    69    1
     4    66    65    2
     5    68    69    1
     6    65    64    1
     7    85    86    1
     8    85    88    1
     9    87    86    2
    10    63    64    1
    11    69    72    1
    12    86    91   am
    13    64    67    1
    14    90    88    1
    15    91    92    1
    16    72    73    1
    17    88    89    1
    18    92    95    1
    19    92    93    1
    20    73    74    1
    21    54    53   ar
    22    50    49    2
    23    95    96    1
    24    53    52    1
    25    53    55   ar
    26    93   100   am
    27    93    94    2
    28    52    51    1
    29   100   101    1
    30    74    75    1
    31    51    48    1
    32    58    57    1
    33    58    59    2
    34   104   101    1
    35   104   105    1
    36    49    48    1
    37    49    56   am
    38    35    34    2
    39    47    48    1
    40    47    45   am
    41    57    56    1
    42    57    60    1
    43   101   102    1
    44    75    76    1
    45    44    45    1
    46    44    43    2
    47    96    97    1
    48   105   106   ar
    49   105   107   ar
    50    61    60    1
    51    80    79    2
    52    45    46    2
    53   106   108   ar
    54    97    98   ar
    55    97    99   ar
    56    60    62    1
    57    79    78    1
    58    34    43    1
    59    34    33    1
    60   107   109   ar
    61     7     6    1
    62   102   103    2
    63   102   112   am
    64   108   110   ar
    65    82    81    1
    66     6     8    1
    67     6     5    1
    68     1     2    1
    69   109   110   ar
    70    33    36    1
    71    33    32    1
    72    36    37    1
    73   110   111    1
    74    21    19   am
    75    78    81    1
    76    78    77    1
    77    38    37   ar
    78    38    40   ar
    79    81    83    1
    80   112   113    1
    81     5     2    1
    82    12    11    2
    83    37    39   ar
    84     2     3    1
    85    40    42   ar
    86    18    19    1
    87    18    17    1
    88    32    28   am
    89    19    20    2
    90    29    28    2
    91     9     3    1
    92     9    10    2
    93   113   114    1
    94   113   116    1
    95    11    10    1
    96    11    13   am
    97     3     4    2
    98   179   177   ar
    99    28    27    1
   100   117   118    1
   101   117   116    1
   102   118   119    1
   103    39    41   ar
   104   174   173    1
   105   174   175    2
   106   173   172    1
   107   173   176    1
   108    42    41   ar
   109    14    17    1
   110    14    13    1
   111    14    15    1
   112   172   169   am
   113   114   115    2
   114   165   164    1
   115    25    24    2
   116    22    15   am
   117    22    23    1
   118   177   176    1
   119   177   178   ar
   120    15    16    2
   121    24    26   am
   122    24    23    1
   123   168   169    1
   124   168   171    1
   125   168   167    1
   126   169   170    2
   127    27    26    1
   128    27    30    1
   129   164   166    1
   130   164   163    1
   131    30    31    1
   132   163   160    1
   133   120   121    1
   134   121   122    1
   135   160   161    1
   136   160   159    1
   137   157   156    2
   138   145   143   ar
   139   154   153    2
   140   161   162    2
   141   142   143    1
   142   142   139    1
   143   156   158   am
   144   156   155    1
   145   122   123    2
   146   122   124   am
   147   155   152    1
   148   143   144   ar
   149   153   152    1
   150   124   125    1
   151   152   151    1
   152   138   139    1
   153   149   148    2
   154   139   140    1
   155   125   128    1
   156   125   126    1
   157   128   129    1
   158   141   140    2
   159   151   148   am
   160   148   147    1
   161   137   135   ar
   162   126   127    2
   163   147   150    1
   164   147   146    1
   165   135   134    1
   166   135   136   ar
   167   134   131    1
   168   130   131    1
   169   131   132    1
   170   132   133    2
