@<TRIPOS>MOLECULE
tmp/5xpdA00.pdb
 150 143 0 0 0
SMALL
GASTEIGER

@<TRIPOS>ATOM
      1  N        -20.9460   -0.4040   35.7420 N.3    15  SER15      -0.1217
      2  CA       -19.7500   -1.1350   35.3320 C.3    15  SER15       0.1889
      3  C        -20.0840   -2.4410   34.6280 C.2    15  SER15       0.2288
      4  O        -19.3730   -2.8430   33.7170 O.2    15  SER15      -0.2866
      5  CB       -18.8560   -1.4220   36.5340 C.3    15  SER15       0.2089
      6  OG       -18.6240   -0.2450   37.2840 O.3    15  SER15      -0.2183
      7  N        -20.6810   -1.4700   31.1700 N.3    18  LEU18      -0.1231
      8  CA       -19.4120   -1.2080   30.5010 C.3    18  LEU18       0.1693
      9  C        -18.6110   -2.4810   30.2100 C.2    18  LEU18       0.2592
     10  O        -17.8240   -2.5170   29.2640 O.2    18  LEU18      -0.2718
     11  CB       -18.5650   -0.2450   31.3240 C.3    18  LEU18       0.0284
     12  CG       -19.0210    1.2120   31.3870 C.3    18  LEU18       0.0019
     13  CD1      -18.0700    2.0240   32.2560 C.3    18  LEU18       0.0001
     14  CD2      -19.1090    1.8050   29.9910 C.3    18  LEU18       0.0001
     15  N        -18.8040   -3.5180   31.0180 N.am   19  PHE19      -0.1976
     16  CA       -18.1610   -4.7970   30.7520 C.3    19  PHE19       0.1639
     17  C        -18.8440   -5.4680   29.5800 C.2    19  PHE19       0.2290
     18  O        -18.2230   -6.2440   28.8510 O.2    19  PHE19      -0.2864
     19  CB       -18.1910   -5.7140   31.9760 C.3    19  PHE19       0.0560
     20  CG       -17.1140   -5.4190   32.9800 C.ar   19  PHE19      -0.0200
     21  CD1      -15.7800   -5.4480   32.6090 C.ar   19  PHE19      -0.0042
     22  CD2      -17.4320   -5.1310   34.2980 C.ar   19  PHE19      -0.0042
     23  CE1      -14.7840   -5.1820   33.5260 C.ar   19  PHE19      -0.0003
     24  CE2      -16.4410   -4.8630   35.2230 C.ar   19  PHE19      -0.0003
     25  CZ       -15.1130   -4.8890   34.8360 C.ar   19  PHE19      -0.0000
     26  N         -7.8540   -5.2080   31.3730 N.3    46  ALA46      -0.1245
     27  CA        -9.0560   -5.1680   32.2070 C.3    46  ALA46       0.1562
     28  C         -9.1060   -6.3340   33.2030 C.2    46  ALA46       0.2260
     29  O         -9.4900   -6.1580   34.3730 O.2    46  ALA46      -0.2867
     30  CB       -10.3030   -5.1600   31.3390 C.3    46  ALA46       0.0290
     31  N         -6.3710   -5.7730   35.9650 N.3    49  ASN49      -0.1225
     32  CA        -6.8920   -4.7220   36.8310 C.3    49  ASN49       0.1785
     33  C         -7.9460   -5.2630   37.7980 C.2    49  ASN49       0.2597
     34  O         -7.8400   -5.0760   39.0240 O.2    49  ASN49      -0.2718
     35  CB        -7.4760   -3.5860   35.9800 C.3    49  ASN49       0.1169
     36  CG        -7.7940   -2.3470   36.7960 C.2    49  ASN49       0.2627
     37  OD1       -7.1170   -2.0520   37.7800 O.2    49  ASN49      -0.2716
     38  ND2       -8.8230   -1.6120   36.3860 N.am   49  ASN49      -0.0877
     39  N         -8.9480   -5.9420   37.2400 N.am   50  ALA50      -0.1979
     40  CA        -9.9910   -6.5780   38.0430 C.3    50  ALA50       0.1597
     41  C         -9.3980   -7.4810   39.1270 C.2    50  ALA50       0.2287
     42  O         -9.8310   -7.4440   40.2870 O.2    50  ALA50      -0.2864
     43  CB       -10.9370   -7.3720   37.1570 C.3    50  ALA50       0.0319
     44  N         -7.8190   -5.5760   41.9260 N.3    53  TRP53      -0.1241
     45  CA        -8.8010   -4.9560   42.8140 C.3    53  TRP53       0.1605
     46  C         -9.5190   -5.9560   43.7270 C.2    53  TRP53       0.2264
     47  O         -9.7910   -5.6420   44.8930 O.2    53  TRP53      -0.2867
     48  CB        -9.8150   -4.1430   42.0070 C.3    53  TRP53       0.0550
     49  CG        -9.2570   -2.8050   41.6280 C.ar   53  TRP53       0.0003
     50  CD1       -8.8330   -2.4100   40.3920 C.ar   53  TRP53       0.0946
     51  CD2       -9.0230   -1.6960   42.5060 C.ar   53  TRP53       0.0152
     52  NE1       -8.3650   -1.1190   40.4430 N.ar   53  TRP53      -0.2442
     53  CE2       -8.4700   -0.6590   41.7280 C.ar   53  TRP53       0.0810
     54  CE3       -9.2350   -1.4770   43.8700 C.ar   53  TRP53       0.0012
     55  CZ2       -8.1280    0.5790   42.2710 C.ar   53  TRP53       0.0191
     56  CZ3       -8.8920   -0.2460   44.4070 C.ar   53  TRP53       0.0001
     57  CH2       -8.3450    0.7650   43.6090 C.ar   53  TRP53       0.0015
     58  N        -17.1680   -4.0830   45.7980 N.3    67  LEU67      -0.1245
     59  CA       -16.1430   -3.8610   44.7850 C.3    67  LEU67       0.1561
     60  C        -15.4520   -5.1810   44.4470 C.2    67  LEU67       0.2260
     61  O        -14.5300   -5.2170   43.6310 O.2    67  LEU67      -0.2867
     62  CB       -15.1320   -2.7910   45.2260 C.3    67  LEU67       0.0270
     63  CG       -14.0120   -2.9780   46.2510 C.3    67  LEU67       0.0019
     64  CD1      -12.7300   -3.4390   45.5790 C.3    67  LEU67       0.0001
     65  CD2      -13.7780   -1.6560   46.9560 C.3    67  LEU67       0.0001
     66  N        -18.4480   -6.9260   41.4530 N.3    70  ILE70      -0.1231
     67  CA       -18.3280   -6.4190   40.1020 C.3    70  ILE70       0.1692
     68  C        -17.0210   -6.9330   39.4830 C.2    70  ILE70       0.2592
     69  O        -17.0410   -7.5340   38.4050 O.2    70  ILE70      -0.2718
     70  CB       -18.4220   -4.8670   40.0630 C.3    70  ILE70       0.0266
     71  CG1      -18.4600   -4.3760   38.6150 C.3    70  ILE70       0.0019
     72  CG2      -17.3400   -4.1930   40.9230 C.3    70  ILE70       0.0020
     73  CD1      -19.7410   -4.7810   37.8890 C.3    70  ILE70       0.0001
     74  N        -15.9060   -6.7680   40.1940 N.am   71  ASN71      -0.1974
     75  CA       -14.6050   -7.2100   39.6990 C.3    71  ASN71       0.1688
     76  C        -14.5760   -8.7070   39.4310 C.2    71  ASN71       0.2292
     77  O        -14.0230   -9.1540   38.4240 O.2    71  ASN71      -0.2864
     78  CB       -13.5010   -6.8340   40.6860 C.3    71  ASN71       0.1181
     79  CG       -13.2780   -5.3340   40.7630 C.2    71  ASN71       0.2629
     80  OD1      -12.3800   -4.7910   40.1190 O.2    71  ASN71      -0.2716
     81  ND2      -14.1160   -4.6520   41.5330 N.am   71  ASN71      -0.0877
     82  N         -4.4020    1.0630   37.3730 N.3   137  SER137     -0.1217
     83  CA        -5.6270    1.7240   36.9410 C.3   137  SER137      0.1889
     84  C         -5.3100    3.0310   36.2290 C.2   137  SER137      0.2288
     85  O         -5.8370    3.3000   35.1480 O.2   137  SER137     -0.2866
     86  CB        -6.5500    1.9880   38.1300 C.3   137  SER137      0.2089
     87  OG        -6.8330    0.7910   38.8310 O.3   137  SER137     -0.2183
     88  N         -5.2880    4.5920   31.6310 N.3   141  PHE141     -0.1241
     89  CA        -5.8540    5.8030   31.0350 C.3   141  PHE141      0.1605
     90  C         -5.1460    6.1820   29.7420 C.2   141  PHE141      0.2264
     91  O         -5.5440    7.1290   29.0610 O.2   141  PHE141     -0.2867
     92  CB        -5.7800    6.9770   32.0110 C.3   141  PHE141      0.0534
     93  CG        -6.7790    6.9060   33.1240 C.ar  141  PHE141     -0.0203
     94  CD1       -8.0990    6.5740   32.8720 C.ar  141  PHE141     -0.0042
     95  CD2       -6.3940    7.1680   34.4260 C.ar  141  PHE141     -0.0042
     96  CE1       -9.0180    6.5090   33.9010 C.ar  141  PHE141     -0.0003
     97  CE2       -7.3050    7.1040   35.4590 C.ar  141  PHE141     -0.0003
     98  CZ        -8.6200    6.7730   35.1970 C.ar  141  PHE141     -0.0000
     99  N        -18.6030    6.0300   31.1210 N.3   168  LEU168     -0.1245
    100  CA       -17.3300    6.0330   31.8330 C.3   168  LEU168      0.1561
    101  C        -17.3170    7.1380   32.8840 C.2   168  LEU168      0.2260
    102  O        -16.8120    6.9430   33.9940 O.2   168  LEU168     -0.2867
    103  CB       -16.1540    6.2080   30.8650 C.3   168  LEU168      0.0270
    104  CG       -15.8370    5.0430   29.9200 C.3   168  LEU168      0.0019
    105  CD1      -14.8540    5.4820   28.8440 C.3   168  LEU168      0.0001
    106  CD2      -15.3050    3.8330   30.6740 C.3   168  LEU168      0.0001
    107  N        -19.8140    6.0880   35.7580 N.3   171  ASN171     -0.1240
    108  CA       -19.0790    5.0360   36.4560 C.3   171  ASN171      0.1653
    109  C        -18.0330    5.6430   37.3900 C.2   171  ASN171      0.2266
    110  O        -17.9330    5.2750   38.5710 O.2   171  ASN171     -0.2867
    111  CB       -18.4150    4.0940   35.4400 C.3   171  ASN171      0.1155
    112  CG       -17.8710    2.8240   36.0740 C.2   171  ASN171      0.2627
    113  OD1      -18.6300    2.0010   36.5880 O.2   171  ASN171     -0.2716
    114  ND2      -16.5530    2.6440   36.0110 N.am  171  ASN171     -0.0877
    115  N        -18.1160    5.4440   41.4980 N.3   175  TRP175     -0.1241
    116  CA       -17.1200    4.7530   42.3100 C.3   175  TRP175      0.1605
    117  C        -16.2920    5.7380   43.1390 C.2   175  TRP175      0.2264
    118  O        -15.7510    5.3730   44.1840 O.2   175  TRP175     -0.2867
    119  CB       -16.2210    3.8750   41.4380 C.3   175  TRP175      0.0550
    120  CG       -16.9330    2.6350   40.9960 C.ar  175  TRP175      0.0003
    121  CD1      -17.3950    2.3540   39.7420 C.ar  175  TRP175      0.0946
    122  CD2      -17.2990    1.5180   41.8160 C.ar  175  TRP175      0.0152
    123  NE1      -18.0130    1.1250   39.7300 N.ar  175  TRP175     -0.2442
    124  CE2      -17.9660    0.5940   40.9910 C.ar  175  TRP175      0.0810
    125  CE3      -17.1180    1.2100   43.1690 C.ar  175  TRP175      0.0012
    126  CZ2      -18.4540   -0.6200   41.4720 C.ar  175  TRP175      0.0191
    127  CZ3      -17.6050    0.0030   43.6430 C.ar  175  TRP175      0.0001
    128  CH2      -18.2650   -0.8950   42.7980 C.ar  175  TRP175      0.0015
    129  N         -9.4840    3.8280   46.1620 N.3   187  VAL187     -0.1245
    130  CA       -10.5670    3.6420   45.2070 C.3   187  VAL187      0.1561
    131  C        -10.9660    4.9890   44.5940 C.2   187  VAL187      0.2260
    132  O        -11.3440    5.0650   43.4240 O.2   187  VAL187     -0.2867
    133  CB       -11.7950    2.9690   45.8820 C.3   187  VAL187      0.0252
    134  CG1      -13.0470    3.0960   45.0230 C.3   187  VAL187      0.0019
    135  CG2      -11.5030    1.5030   46.1900 C.3   187  VAL187      0.0019
    136  N         -8.1380    7.6040   41.6060 N.3   190  PRO190     -0.2102
    137  CA        -8.1410    7.3570   40.1610 C.3   190  PRO190      0.1504
    138  C         -9.5170    7.5570   39.5190 C.2   190  PRO190      0.2575
    139  O         -9.5780    7.7710   38.3100 O.2   190  PRO190     -0.2718
    140  CB        -7.6760    5.9000   40.0430 C.3   190  PRO190      0.0282
    141  CG        -7.7680    5.3290   41.4090 C.3   190  PRO190      0.0208
    142  CD        -7.6690    6.4330   42.3720 C.3   190  PRO190      0.0893
    143  N        -10.5890    7.5110   40.3070 N.am  191  ASN191     -0.1975
    144  CA       -11.9140    7.8400   39.7880 C.3   191  ASN191      0.1688
    145  C        -12.0870    9.3420   39.6080 C.2   191  ASN191      0.2292
    146  O        -12.9130    9.7850   38.8090 O.2   191  ASN191     -0.2864
    147  CB       -13.0150    7.2990   40.6980 C.3   191  ASN191      0.1181
    148  CG       -13.1760    5.7970   40.5890 C.2   191  ASN191      0.2629
    149  OD1      -13.6170    5.2800   39.5620 O.2   191  ASN191     -0.2716
    150  ND2      -12.8300    5.0870   41.6550 N.am  191  ASN191     -0.0877
@<TRIPOS>BOND
     1   105   104    1
     2    18    17    2
     3    91    90    2
     4    10     9    2
     5    17    16    1
     6    90    89    1
     7   104   106    1
     8   104   103    1
     9    14    12    1
    10     9     8    1
    11     9    15   am
    12     8     7    1
    13     8    11    1
    14    16    15    1
    15    16    19    1
    16   103   100    1
    17    89    88    1
    18    89    92    1
    19    99   100    1
    20    11    12    1
    21    30    27    1
    22    26    27    1
    23    12    13    1
    24   100   101    1
    25    19    20    1
    26    92    93    1
    27    27    28    1
    28    21    20   ar
    29    21    23   ar
    30    94    93   ar
    31    94    96   ar
    32   101   102    2
    33    20    22   ar
    34    93    95   ar
    35    28    29    2
    36    23    25   ar
    37     4     3    2
    38    96    98   ar
    39    22    24   ar
    40    95    97   ar
    41     3     2    1
    42    25    24   ar
    43    85    84    2
    44    98    97   ar
    45     2     1    1
    46     2     5    1
    47   111   112    1
    48   111   108    1
    49   107   108    1
    50    31    32    1
    51    35    36    1
    52    35    32    1
    53   114   112   am
    54   112   113    2
    55    84    83    1
    56    38    36   am
    57   108   109    1
    58     5     6    1
    59    36    37    2
    60    32    33    1
    61    83    82    1
    62    83    86    1
    63    43    40    1
    64    39    33   am
    65    39    40    1
    66   109   110    2
    67    33    34    2
    68    73    71    1
    69    40    41    1
    70    86    87    1
    71   139   138    2
    72    69    68    2
    73    77    76    2
    74    71    70    1
    75   146   145    2
    76    41    42    2
    77    76    75    1
    78    68    67    1
    79    68    74   am
    80   138   137    1
    81   138   143   am
    82   149   148    2
    83   145   144    1
    84    75    74    1
    85    75    78    1
    86   123   121   ar
    87   123   124   ar
    88   121   120   ar
    89   144   143    1
    90   144   147    1
    91   140   137    1
    92   140   141    1
    93    70    67    1
    94    70    72    1
    95    67    66    1
    96    80    79    2
    97   137   136    1
    98    50    52   ar
    99    50    49   ar
   100    52    53   ar
   101   148   147    1
   102   148   150   am
   103    78    79    1
   104    79    81   am
   105   124   126   ar
   106   124   122   ar
   107   120   119    1
   108   120   122   ar
   109   141   142    1
   110   119   116    1
   111   126   128   ar
   112   115   116    1
   113   136   142    1
   114    49    48    1
   115    49    51   ar
   116    53    55   ar
   117    53    51   ar
   118   122   125   ar
   119    44    45    1
   120    48    45    1
   121    55    57   ar
   122   116   117    1
   123    51    54   ar
   124   128   127   ar
   125    45    46    1
   126   117   118    2
   127   125   127   ar
   128   132   131    2
   129    57    56   ar
   130    61    60    2
   131    46    47    2
   132    54    56   ar
   133    60    59    1
   134   131   130    1
   135    59    62    1
   136    59    58    1
   137   134   133    1
   138   130   133    1
   139   130   129    1
   140    62    63    1
   141    64    63    1
   142   133   135    1
   143    63    65    1
