@<TRIPOS>MOLECULE
tmp/5xprA00.pdb
 235 224 0 0 0
SMALL
GASTEIGER

@<TRIPOS>ATOM
      1  N        -17.7070   10.0350   10.2420 N.3    15  ASN15      -0.1240
      2  CA       -19.0760   10.3450    9.8520 C.3    15  ASN15       0.1653
      3  C        -19.2060   11.7820    9.3660 C.2    15  ASN15       0.2266
      4  O        -19.8890   12.0460    8.3700 O.2    15  ASN15      -0.2867
      5  CB       -20.0250   10.0760   11.0160 C.3    15  ASN15       0.1155
      6  CG       -20.2130    8.5980   11.2730 C.2    15  ASN15       0.2627
      7  OD1      -19.2790    7.8080   11.1270 O.2    15  ASN15      -0.2716
      8  ND2      -21.4280    8.2110   11.6360 N.am   15  ASN15      -0.0877
      9  N        -33.5900   12.0560    0.7390 N.3    61  HIS61      -0.1241
     10  CA       -32.8210   11.3500    1.7580 C.3    61  HIS61       0.1621
     11  C        -31.6270   12.1790    2.2040 C.2    61  HIS61       0.2264
     12  O        -31.2900   12.2050    3.3910 O.2    61  HIS61      -0.2867
     13  CB       -32.3580    9.9890    1.2280 C.3    61  HIS61       0.0745
     14  CG       -31.7910    9.0890    2.2820 C.ar   61  HIS61       0.0817
     15  ND1      -30.5540    9.2990    2.8540 N.ar   61  HIS61      -0.2268
     16  CD2      -32.2920    7.9770    2.8700 C.ar   61  HIS61       0.1154
     17  CE1      -30.3180    8.3550    3.7460 C.ar   61  HIS61       0.1986
     18  NE2      -31.3570    7.5400    3.7760 N.ar   61  HIS61      -0.2212
     19  N        -31.2730   13.3350    6.0210 N.3    65  ASP65      -0.1239
     20  CA       -30.2320   12.5880    6.7210 C.3    65  ASP65       0.1674
     21  C        -29.1020   13.5070    7.1690 C.2    65  ASP65       0.2266
     22  O        -28.7640   13.5600    8.3560 O.2    65  ASP65      -0.2867
     23  CB       -29.7050   11.4690    5.8150 C.3    65  ASP65       0.1410
     24  CG       -28.4630   10.7920    6.3650 C.2    65  ASP65       0.3668
     25  OD1      -28.5820   10.0110    7.3330 O.co2  65  ASP65      -0.2456
     26  OD2      -27.3660   11.0320    5.8150 O.co2  65  ASP65      -0.2456
     27  N        -29.8030   14.7260   11.1900 N.3    69  ASN69      -0.1240
     28  CA       -29.1990   13.6560   11.9800 C.3    69  ASN69       0.1653
     29  C        -27.7350   13.9420   12.3010 C.2    69  ASN69       0.2266
     30  O        -27.2730   13.6420   13.4080 O.2    69  ASN69      -0.2867
     31  CB       -29.3390   12.3170   11.2570 C.3    69  ASN69       0.1155
     32  CG       -30.7670   12.0230   10.8440 C.2    69  ASN69       0.2627
     33  OD1      -31.6510   12.8680   10.9810 O.2    69  ASN69      -0.2716
     34  ND2      -30.9990   10.8230   10.3270 N.am   69  ASN69      -0.0877
     35  N        -27.2920   15.9280   15.2540 N.3    72  LYS72      -0.1245
     36  CA       -27.4940   15.2580   16.5320 C.3    72  LYS72       0.1561
     37  C        -26.2580   14.4990   16.9980 C.2    72  LYS72       0.2260
     38  O        -26.1460   14.1900   18.1890 O.2    72  LYS72      -0.2867
     39  CB       -28.6930   14.3100   16.4410 C.3    72  LYS72       0.0271
     40  CG       -29.1120   13.7000   17.7680 C.3    72  LYS72       0.0035
     41  CD       -30.5490   13.2270   17.7300 C.3    72  LYS72       0.0206
     42  CE       -31.0550   12.8980   19.1250 C.3    72  LYS72       0.1093
     43  NZ       -30.1920   11.9040   19.8180 N.3    72  LYS72      -0.1314
     44  N        -31.1630   16.6500   21.9910 N.3    78  TRP78      -0.1241
     45  CA       -32.0420   16.8310   20.8340 C.3    78  TRP78       0.1605
     46  C        -32.6570   18.2240   20.8750 C.2    78  TRP78       0.2264
     47  O        -33.2850   18.5840   21.8800 O.2    78  TRP78      -0.2867
     48  CB       -33.1280   15.7580   20.8070 C.3    78  TRP78       0.0550
     49  CG       -34.2440   16.0730   19.8550 C.ar   78  TRP78       0.0003
     50  CD1      -35.3410   16.8490   20.1040 C.ar   78  TRP78       0.0946
     51  CD2      -34.3530   15.6540   18.4890 C.ar   78  TRP78       0.0152
     52  NE1      -36.1320   16.9220   18.9860 N.ar   78  TRP78      -0.2442
     53  CE2      -35.5480   16.1980   17.9800 C.ar   78  TRP78       0.0810
     54  CE3      -33.5610   14.8650   17.6490 C.ar   78  TRP78       0.0012
     55  CZ2      -35.9680   15.9810   16.6680 C.ar   78  TRP78       0.0191
     56  CZ3      -33.9810   14.6480   16.3480 C.ar   78  TRP78       0.0001
     57  CH2      -35.1730   15.2020   15.8710 C.ar   78  TRP78       0.0015
     58  N        -39.1130   15.1600   15.7730 N.3    85  CYS85      -0.1235
     59  CA       -38.6490   13.7950   15.9780 C.3    85  CYS85       0.1677
     60  C        -39.6620   12.7610   15.5100 C.2    85  CYS85       0.2270
     61  O        -39.2790   11.6170   15.2470 O.2    85  CYS85      -0.2867
     62  CB       -38.2950   13.5420   17.4380 C.3    85  CYS85       0.0956
     63  SG       -37.0790   12.2200   17.5440 S.3    85  CYS85      -0.0801
     64  N        -38.6760   13.3150   11.3580 N.3    88  VAL88      -0.1231
     65  CA       -37.4000   12.9880   10.7180 C.3    88  VAL88       0.1678
     66  C        -37.3150   11.5120   10.3360 C.2    88  VAL88       0.2434
     67  O        -37.0950   11.2180    9.1500 O.2    88  VAL88      -0.2733
     68  CB       -36.2300   13.4660   11.5970 C.3    88  VAL88       0.0265
     69  CG1      -34.9220   12.8480   11.1230 C.3    88  VAL88       0.0020
     70  CG2      -36.1520   14.9900   11.5420 C.3    88  VAL88       0.0020
     71  N        -37.5340   10.5490   11.2440 N.am   89  PRO89      -0.2729
     72  CA       -37.4960    9.1420   10.8050 C.3    89  PRO89       0.1401
     73  C        -38.6130    8.7980    9.8410 C.2    89  PRO89       0.2269
     74  O        -38.4270    7.9360    8.9740 O.2    89  PRO89      -0.2865
     75  CB       -37.6360    8.3530   12.1110 C.3    89  PRO89       0.0296
     76  CG       -37.3150    9.3240   13.1850 C.3    89  PRO89       0.0237
     77  CD       -37.8030   10.6370   12.6890 C.3    89  PRO89       0.0939
     78  N        -37.1470   10.0300    6.6210 N.3    92  GLN92      -0.1231
     79  CA       -36.0330    9.1880    6.2040 C.3    92  GLN92       0.1698
     80  C        -36.5050    7.7900    5.8140 C.2    92  GLN92       0.2592
     81  O        -36.0120    7.2180    4.8350 O.2    92  GLN92      -0.2718
     82  CB       -34.9880    9.1250    7.3160 C.3    92  GLN92       0.0381
     83  CG       -33.6830    8.4950    6.8870 C.3    92  GLN92       0.0905
     84  CD       -33.6090    7.0380    7.2770 C.2    92  GLN92       0.2608
     85  OE1      -34.1430    6.6380    8.3110 O.2    92  GLN92      -0.2717
     86  NE2      -32.9660    6.2310    6.4430 N.am   92  GLN92      -0.0878
     87  N        -37.4660    7.2250    6.5520 N.am   93  LYS93      -0.1980
     88  CA       -37.9660    5.8970    6.2000 C.3    93  LYS93       0.1596
     89  C        -38.7650    5.9330    4.9080 C.2    93  LYS93       0.2287
     90  O        -38.6370    5.0360    4.0660 O.2    93  LYS93      -0.2864
     91  CB       -38.8240    5.3290    7.3260 C.3    93  LYS93       0.0298
     92  CG       -38.0990    4.3390    8.2000 C.3    93  LYS93       0.0038
     93  CD       -37.0810    5.0420    9.0690 C.3    93  LYS93       0.0206
     94  CE       -36.1120    4.0470    9.6500 C.3    93  LYS93       0.1093
     95  NZ       -35.4580    3.2550    8.5780 N.3    93  LYS93      -0.1314
     96  N        -36.1460    6.2960    1.9380 N.3    96  VAL96      -0.1245
     97  CA       -35.5550    5.0250    1.5260 C.3    96  VAL96       0.1561
     98  C        -36.5860    4.1760    0.8020 C.2    96  VAL96       0.2260
     99  O        -36.2760    3.4980   -0.1870 O.2    96  VAL96      -0.2867
    100  CB       -34.9740    4.2710    2.7350 C.3    96  VAL96       0.0252
    101  CG1      -34.4150    2.9300    2.2820 C.3    96  VAL96       0.0019
    102  CG2      -33.9160    5.0980    3.4270 C.3    96  VAL96       0.0019
    103  N        -42.9730    4.6080   12.1170 N.3   147  GLU147     -0.1245
    104  CA       -41.9390    5.4120   12.7580 C.3   147  GLU147      0.1567
    105  C        -42.5350    6.6760   13.3650 C.2   147  GLU147      0.2260
    106  O        -42.3610    6.9490   14.5570 O.2   147  GLU147     -0.2867
    107  CB       -40.8450    5.7710   11.7510 C.3   147  GLU147      0.0388
    108  CG       -40.1470    4.5880   11.1020 C.3   147  GLU147      0.1160
    109  CD       -39.5060    3.6490   12.1060 C.2   147  GLU147      0.3649
    110  OE1      -39.7540    2.4290   12.0230 O.co2 147  GLU147     -0.2457
    111  OE2      -38.7470    4.1280   12.9740 O.co2 147  GLU147     -0.2457
    112  N        -42.7300    7.6860   17.5990 N.3   151  PHE151     -0.1241
    113  CA       -41.5400    8.4450   17.9840 C.3   151  PHE151      0.1605
    114  C        -41.9290    9.6010   18.9000 C.2   151  PHE151      0.2264
    115  O        -42.4810   10.6080   18.4530 O.2   151  PHE151     -0.2867
    116  CB       -40.8080    8.9460   16.7420 C.3   151  PHE151      0.0534
    117  CG       -39.5710    8.1560   16.4040 C.ar  151  PHE151     -0.0203
    118  CD1      -38.4540    8.2170   17.2200 C.ar  151  PHE151     -0.0042
    119  CD2      -39.5260    7.3470   15.2810 C.ar  151  PHE151     -0.0042
    120  CE1      -37.3130    7.4960   16.9130 C.ar  151  PHE151     -0.0003
    121  CE2      -38.3920    6.6160   14.9760 C.ar  151  PHE151     -0.0003
    122  CZ       -37.2830    6.6950   15.7900 C.ar  151  PHE151     -0.0000
    123  N        -34.1790   11.5160   22.0640 N.3   166  CYS166     -0.1221
    124  CA       -35.3480   11.0440   21.3270 C.3   166  CYS166      0.1808
    125  C        -35.0450    9.7200   20.6430 C.2   166  CYS166      0.2601
    126  O        -34.1050    9.6280   19.8460 O.2   166  CYS166     -0.2717
    127  CB       -35.8120   12.0660   20.2930 C.3   166  CYS166      0.0970
    128  SG       -37.2780   11.4860   19.4230 S.3   166  CYS166     -0.0800
    129  N        -35.8650    8.7150   20.9370 N.am  167  LEU167     -0.1979
    130  CA       -35.8030    7.4110   20.2910 C.3   167  LEU167      0.1596
    131  C        -37.2310    6.8930   20.1450 C.2   167  LEU167      0.2287
    132  O        -38.2020    7.5900   20.4560 O.2   167  LEU167     -0.2864
    133  CB       -34.8980    6.4550   21.0820 C.3   167  LEU167      0.0297
    134  CG       -35.0260    6.3920   22.6100 C.3   167  LEU167      0.0022
    135  CD1      -36.2700    5.6380   23.0590 C.3   167  LEU167      0.0001
    136  CD2      -33.7800    5.7730   23.2220 C.3   167  LEU167      0.0001
    137  N        -39.0720   -4.5030   14.3760 N.3   184  LYS184     -0.1231
    138  CA       -38.7160   -3.4560   13.4260 C.3   184  LYS184      0.1693
    139  C        -37.4300   -3.7910   12.6800 C.2   184  LYS184      0.2592
    140  O        -37.3250   -3.5260   11.4780 O.2   184  LYS184     -0.2718
    141  CB       -38.5770   -2.1140   14.1410 C.3   184  LYS184      0.0285
    142  CG       -38.6490   -0.9370   13.1930 C.3   184  LYS184      0.0035
    143  CD       -38.0550    0.3160   13.7950 C.3   184  LYS184      0.0206
    144  CE       -36.6300    0.0720   14.2560 C.3   184  LYS184      0.1093
    145  NZ       -36.1060    1.1980   15.0730 N.3   184  LYS184     -0.1314
    146  N        -36.4450   -4.3720   13.3730 N.am  185  ASP185     -0.1974
    147  CA       -35.1920   -4.7330   12.7160 C.3   185  ASP185      0.1709
    148  C        -35.4290   -5.6970   11.5660 C.2   185  ASP185      0.2293
    149  O        -34.7360   -5.6370   10.5440 O.2   185  ASP185     -0.2864
    150  CB       -34.2210   -5.3430   13.7210 C.3   185  ASP185      0.1436
    151  CG       -34.0660   -4.4930   14.9450 C.2   185  ASP185      0.3671
    152  OD1      -34.4040   -3.2950   14.8560 O.co2 185  ASP185     -0.2456
    153  OD2      -33.6140   -5.0120   15.9850 O.co2 185  ASP185     -0.2456
    154  N        -37.5790   -3.5830    8.8450 N.3   188  LEU188     -0.1245
    155  CA       -36.6490   -2.7760    8.0660 C.3   188  LEU188      0.1561
    156  C        -35.7980   -3.6430    7.1450 C.2   188  LEU188      0.2260
    157  O        -35.4990   -3.2490    6.0130 O.2   188  LEU188     -0.2867
    158  CB       -35.7650   -1.9500    8.9970 C.3   188  LEU188      0.0270
    159  CG       -36.2450   -0.5580    9.4230 C.3   188  LEU188      0.0019
    160  CD1      -37.7300   -0.5150    9.7410 C.3   188  LEU188      0.0001
    161  CD2      -35.4310   -0.0910   10.6100 C.3   188  LEU188      0.0001
    162  N        -37.4220   -3.5130    3.3350 N.3   192  TYR192     -0.1241
    163  CA       -36.6090   -2.5820    2.5500 C.3   192  TYR192      0.1605
    164  C        -35.4440   -3.2480    1.8300 C.2   192  TYR192      0.2264
    165  O        -35.0490   -2.7980    0.7500 O.2   192  TYR192     -0.2867
    166  CB       -36.0780   -1.4560    3.4430 C.3   192  TYR192      0.0534
    167  CG       -37.1310   -0.4650    3.8970 C.ar  192  TYR192     -0.0201
    168  CD1      -38.2900   -0.8890    4.5370 C.ar  192  TYR192     -0.0009
    169  CD2      -36.9730    0.8960    3.6680 C.ar  192  TYR192     -0.0009
    170  CE1      -39.2510    0.0110    4.9440 C.ar  192  TYR192      0.0417
    171  CE2      -37.9330    1.8050    4.0730 C.ar  192  TYR192      0.0417
    172  CZ       -39.0690    1.3550    4.7090 C.ar  192  TYR192      0.1957
    173  OH       -40.0310    2.2490    5.1150 O.3   192  TYR192     -0.2866
    174  N        -26.7230   -1.3200    1.4690 N.3   345  TRP345     -0.1241
    175  CA       -27.6280   -1.6310    2.5630 C.3   345  TRP345      0.1605
    176  C        -27.3960   -3.0100    3.1600 C.2   345  TRP345      0.2264
    177  O        -27.9410   -3.2990    4.2280 O.2   345  TRP345     -0.2867
    178  CB       -29.0800   -1.4810    2.1020 C.3   345  TRP345      0.0550
    179  CG       -29.4030   -0.0540    1.8240 C.ar  345  TRP345      0.0003
    180  CD1      -29.1850    0.6200    0.6630 C.ar  345  TRP345      0.0946
    181  CD2      -29.9620    0.8930    2.7400 C.ar  345  TRP345      0.0152
    182  NE1      -29.5940    1.9260    0.7890 N.ar  345  TRP345     -0.2442
    183  CE2      -30.0720    2.1190    2.0570 C.ar  345  TRP345      0.0810
    184  CE3      -30.3870    0.8210    4.0690 C.ar  345  TRP345      0.0012
    185  CZ2      -30.5910    3.2620    2.6550 C.ar  345  TRP345      0.0191
    186  CZ3      -30.8970    1.9560    4.6610 C.ar  345  TRP345      0.0001
    187  CH2      -30.9980    3.1610    3.9550 C.ar  345  TRP345      0.0015
    188  N        -25.3660   -2.5370    6.5930 N.3   348  LEU348     -0.1231
    189  CA       -26.2290   -2.0250    7.6500 C.3   348  LEU348      0.1693
    190  C        -27.2810   -3.0510    8.0580 C.2   348  LEU348      0.2592
    191  O        -27.4420   -3.3450    9.2480 O.2   348  LEU348     -0.2718
    192  CB       -26.8850   -0.7260    7.1890 C.3   348  LEU348      0.0284
    193  CG       -27.7000    0.0730    8.1950 C.3   348  LEU348      0.0019
    194  CD1      -26.7900    0.7240    9.2170 C.3   348  LEU348      0.0001
    195  CD2      -28.4720    1.1260    7.4420 C.3   348  LEU348      0.0001
    196  N        -28.0030   -3.6060    7.0810 N.am  349  HIS349     -0.1976
    197  CA       -29.0190   -4.6080    7.3880 C.3   349  HIS349      0.1656
    198  C        -28.4050   -5.8470    8.0220 C.2   349  HIS349      0.2291
    199  O        -29.0350   -6.4890    8.8710 O.2   349  HIS349     -0.2864
    200  CB       -29.7900   -4.9910    6.1250 C.3   349  HIS349      0.0771
    201  CG       -30.8220   -3.9880    5.7150 C.ar  349  HIS349      0.0820
    202  ND1      -30.7470   -3.2800    4.5350 N.ar  349  HIS349     -0.2267
    203  CD2      -31.9500   -3.5690    6.3350 C.ar  349  HIS349      0.1154
    204  CE1      -31.7890   -2.4730    4.4420 C.ar  349  HIS349      0.1986
    205  NE2      -32.5340   -2.6290    5.5210 N.ar  349  HIS349     -0.2212
    206  N        -27.7900   -5.3050   11.7490 N.3   352  ARG352     -0.1245
    207  CA       -28.9490   -5.3720   12.6320 C.3   352  ARG352      0.1563
    208  C        -29.3290   -6.8130   12.9490 C.2   352  ARG352      0.2260
    209  O        -29.5530   -7.1620   14.1130 O.2   352  ARG352     -0.2867
    210  CB       -30.1240   -4.6260   12.0060 C.3   352  ARG352      0.0307
    211  CG       -29.7710   -3.2190   11.5780 C.3   352  ARG352      0.0489
    212  CD       -30.8790   -2.2530   11.9270 C.3   352  ARG352      0.2205
    213  NE       -30.3580   -0.9500   12.3170 N.pl3 352  ARG352     -0.0865
    214  CZ       -31.0810   -0.0220   12.9310 C.cat 352  ARG352      0.5346
    215  NH1      -30.5380    1.1450   13.2570 N.pl3 352  ARG352      0.1354
    216  NH2      -32.3530   -0.2640   13.2160 N.pl3 352  ARG352      0.1354
    217  N        -23.9710    2.5160    8.0570 N.3   381  ILE381     -0.1245
    218  CA       -24.6160    3.8240    7.9710 C.3   381  ILE381      0.1561
    219  C        -23.9900    4.6440    6.8520 C.2   381  ILE381      0.2260
    220  O        -24.6900    5.2810    6.0550 O.2   381  ILE381     -0.2867
    221  CB       -24.5310    4.5560    9.3210 C.3   381  ILE381      0.0252
    222  CG1      -25.7300    4.1900   10.1920 C.3   381  ILE381      0.0019
    223  CG2      -24.4620    6.0680    9.1180 C.3   381  ILE381      0.0019
    224  CD1      -25.7130    4.8610   11.5320 C.3   381  ILE381      0.0001
    225  N        -25.1450    3.2060    3.4620 N.3   384  ALA384     -0.1231
    226  CA       -26.4910    3.6160    3.0690 C.3   384  ALA384      0.1694
    227  C        -26.5280    5.0780    2.6410 C.2   384  ALA384      0.2592
    228  O        -27.2450    5.4400    1.7000 O.2   384  ALA384     -0.2718
    229  CB       -27.4670    3.3660    4.2170 C.3   384  ALA384      0.0304
    230  N        -25.7670    5.9360    3.3220 N.am  385  SER385     -0.1952
    231  CA       -25.6870    7.3300    2.9030 C.3   385  SER385      0.1924
    232  C        -24.9590    7.4580    1.5720 C.2   385  SER385      0.2314
    233  O        -25.2980    8.3180    0.7510 O.2   385  SER385     -0.2863
    234  CB       -24.9930    8.1620    3.9780 C.3   385  SER385      0.2116
    235  OG       -23.6130    7.8520    4.0400 O.3   385  SER385     -0.2180
@<TRIPOS>BOND
     1    99    98    2
     2   180   182   ar
     3   180   179   ar
     4     9    10    1
     5   165   164    2
     6   233   232    2
     7   182   183   ar
     8    98    97    1
     9    13    10    1
    10    13    14    1
    11   174   175    1
    12    97    96    1
    13    97   100    1
    14   232   231    1
    15   228   227    2
    16    10    11    1
    17   179   178    1
    18   179   181   ar
    19   164   163    1
    20   183   185   ar
    21   183   181   ar
    22   178   175    1
    23    11    12    2
    24    14    15   ar
    25    14    16   ar
    26   101   100    1
    27   163   162    1
    28   163   166    1
    29   175   176    1
    30   227   226    1
    31   227   230   am
    32   185   187   ar
    33   100   102    1
    34   181   184   ar
    35    15    17   ar
    36    16    18   ar
    37   231   230    1
    38   231   234    1
    39   226   225    1
    40   226   229    1
    41   176   177    2
    42   166   167    1
    43   169   167   ar
    44   169   171   ar
    45    17    18   ar
    46   167   168   ar
    47   187   186   ar
    48   234   235    1
    49    90    89    2
    50   184   186   ar
    51   171   172   ar
    52   204   202   ar
    53   204   205   ar
    54   202   201   ar
    55   168   170   ar
    56   172   170   ar
    57   172   173    1
    58    81    80    2
    59    89    88    1
    60   205   203   ar
    61   201   200    1
    62   201   203   ar
    63    80    79    1
    64    80    87   am
    65    23    24    1
    66    23    20    1
    67    26    24   ar
    68   157   156    2
    69    19    20    1
    70   220   219    2
    71   200   197    1
    72    88    87    1
    73    88    91    1
    74    79    78    1
    75    79    82    1
    76    24    25   ar
    77    86    84   am
    78   188   189    1
    79    20    21    1
    80   219   218    1
    81    83    84    1
    82    83    82    1
    83   196   197    1
    84   196   190   am
    85   156   155    1
    86    21    22    2
    87   192   189    1
    88   192   193    1
    89    84    85    2
    90    91    92    1
    91   197   198    1
    92   195   193    1
    93   189   190    1
    94   218   217    1
    95   218   221    1
    96   198   199    2
    97   190   191    2
    98   155   154    1
    99   155   158    1
   100   193   194    1
   101    92    93    1
   102     4     3    2
   103    95    94    1
   104    74    73    2
   105   158   159    1
   106    93    94    1
   107   223   221    1
   108    67    66    2
   109   221   222    1
   110     3     2    1
   111   159   160    1
   112   159   161    1
   113    73    72    1
   114     2     1    1
   115     2     5    1
   116   222   224    1
   117    34    32   am
   118    66    65    1
   119    66    71   am
   120   149   148    2
   121    65    64    1
   122    65    68    1
   123    72    71    1
   124    72    75    1
   125    32    33    2
   126    32    31    1
   127     5     6    1
   128   108   107    1
   129   108   109    1
   130    69    68    1
   131     7     6    2
   132    27    28    1
   133    71    77    1
   134    31    28    1
   135     6     8   am
   136   140   139    2
   137    70    68    1
   138   148   147    1
   139   211   212    1
   140   211   210    1
   141   206   207    1
   142   107   104    1
   143   212   213    1
   144    28    29    1
   145   210   207    1
   146   110   109   ar
   147   109   111   ar
   148    75    76    1
   149   103   104    1
   150    29    30    2
   151   213   214    2
   152   207   208    1
   153   139   146   am
   154   139   138    1
   155    77    76    1
   156   147   146    1
   157   147   150    1
   158   104   105    1
   159   214   216    1
   160   214   215    1
   161   208   209    2
   162   142   143    1
   163   142   141    1
   164   105   106    2
   165   138   141    1
   166   138   137    1
   167   150   151    1
   168   143   144    1
   169   144   145    1
   170   152   151   ar
   171   151   153   ar
   172   121   119   ar
   173   121   122   ar
   174    61    60    2
   175    35    36    1
   176   119   117   ar
   177    60    59    1
   178    58    59    1
   179   122   120   ar
   180    57    56   ar
   181    57    55   ar
   182    59    62    1
   183    56    54   ar
   184   117   116    1
   185   117   118   ar
   186    39    36    1
   187    39    40    1
   188    36    37    1
   189    55    53   ar
   190   116   113    1
   191   120   118   ar
   192    37    38    2
   193    62    63    1
   194    63   128    1
   195   112   113    1
   196    54    51   ar
   197    41    40    1
   198    41    42    1
   199    53    51   ar
   200    53    52   ar
   201   113   114    1
   202   115   114    2
   203    51    49   ar
   204    52    50   ar
   205    42    43    1
   206   128   127    1
   207   126   125    2
   208    49    50   ar
   209    49    48    1
   210   131   130    1
   211   131   132    2
   212   130   129    1
   213   130   133    1
   214   127   124    1
   215   125   129   am
   216   125   124    1
   217    48    45    1
   218    45    46    1
   219    45    44    1
   220    46    47    2
   221   133   134    1
   222   124   123    1
   223   134   135    1
   224   134   136    1
