@<TRIPOS>MOLECULE
tmp/5xq2A00.pdb
 145 143 0 0 0
SMALL
GASTEIGER

@<TRIPOS>ATOM
      1  N         16.7530  -38.3310  -23.8450 N.3   192  ASN192     -0.1240
      2  CA        17.1930  -38.7720  -25.1480 C.3   192  ASN192      0.1653
      3  C         16.0020  -39.2700  -25.9300 C.2   192  ASN192      0.2266
      4  O         15.1350  -39.9230  -25.3840 O.2   192  ASN192     -0.2867
      5  CB        18.1930  -39.9020  -25.0000 C.3   192  ASN192      0.1155
      6  CG        19.5330  -39.4300  -24.5180 C.2   192  ASN192      0.2627
      7  OD1       19.6280  -38.5420  -23.6910 O.2   192  ASN192     -0.2716
      8  ND2       20.5790  -40.0250  -25.0400 N.am  192  ASN192     -0.0877
      9  N         16.2430  -41.4800  -28.2540 N.3   194  TYR194     -0.1227
     10  CA        16.5110  -42.8840  -28.4960 C.3   194  TYR194      0.1736
     11  C         16.5700  -43.7670  -27.2690 C.2   194  TYR194      0.2595
     12  O         16.6800  -44.9750  -27.3920 O.2   194  TYR194     -0.2718
     13  CB        17.8190  -43.0200  -29.2470 C.3   194  TYR194      0.0548
     14  CG        18.9120  -42.1610  -28.6950 C.ar  194  TYR194     -0.0200
     15  CD1       19.7530  -42.6400  -27.7250 C.ar  194  TYR194     -0.0009
     16  CD2       19.1130  -40.8800  -29.1530 C.ar  194  TYR194     -0.0009
     17  CE1       20.7660  -41.8660  -27.2170 C.ar  194  TYR194      0.0417
     18  CE2       20.1220  -40.0990  -28.6460 C.ar  194  TYR194      0.0417
     19  CZ        20.9430  -40.6080  -27.6800 C.ar  194  TYR194      0.1957
     20  OH        21.9510  -39.8640  -27.1540 O.3   194  TYR194     -0.2866
     21  N         16.5250  -43.1800  -26.0860 N.am  195  ASP195     -0.1974
     22  CA        16.5800  -43.9850  -24.8780 C.3   195  ASP195      0.1709
     23  C         16.0380  -43.3060  -23.6360 C.2   195  ASP195      0.2293
     24  O         15.6310  -42.1610  -23.6670 O.2   195  ASP195     -0.2864
     25  CB        17.9470  -44.6740  -24.6820 C.3   195  ASP195      0.1436
     26  CG        18.9510  -43.8400  -23.9300 C.2   195  ASP195      0.3671
     27  OD1       18.6290  -43.2660  -22.8830 O.co2 195  ASP195     -0.2456
     28  OD2       20.1070  -43.7990  -24.3640 O.co2 195  ASP195     -0.2456
     29  N         17.6840  -42.4980  -20.8950 N.3   197  ARG197     -0.1245
     30  CA        18.5600  -41.6370  -20.1200 C.3   197  ARG197      0.1563
     31  C         18.0930  -40.2150  -20.2200 C.2   197  ARG197      0.2260
     32  O         17.7930  -39.7300  -21.2850 O.2   197  ARG197     -0.2867
     33  CB        19.9900  -41.7100  -20.6260 C.3   197  ARG197      0.0307
     34  CG        20.9520  -40.8200  -19.8620 C.3   197  ARG197      0.0489
     35  CD        22.3850  -41.0680  -20.3000 C.3   197  ARG197      0.2205
     36  NE        23.3680  -40.5280  -19.3680 N.pl3 197  ARG197     -0.0865
     37  CZ        23.8490  -41.1890  -18.3240 C.cat 197  ARG197      0.5346
     38  NH1       23.4290  -42.4160  -18.0630 N.pl3 197  ARG197      0.1354
     39  NH2       24.7450  -40.6250  -17.5380 N.pl3 197  ARG197      0.1354
     40  N         18.6540  -36.1570  -19.4040 N.3   199  TRP199     -0.1241
     41  CA        19.6160  -35.1060  -19.1610 C.3   199  TRP199      0.1605
     42  C         18.9270  -34.0020  -18.3880 C.2   199  TRP199      0.2264
     43  O         17.7550  -34.1180  -18.0340 O.2   199  TRP199     -0.2867
     44  CB        20.1880  -34.5830  -20.4710 C.3   199  TRP199      0.0550
     45  CG        20.9070  -35.6230  -21.1770 C.ar  199  TRP199      0.0003
     46  CD1       20.4760  -36.3410  -22.2460 C.ar  199  TRP199      0.0946
     47  CD2       22.1870  -36.1180  -20.8450 C.ar  199  TRP199      0.0152
     48  NE1       21.4280  -37.2470  -22.6170 N.ar  199  TRP199     -0.2442
     49  CE2       22.4920  -37.1290  -21.7640 C.ar  199  TRP199      0.0810
     50  CE3       23.1170  -35.7960  -19.8620 C.ar  199  TRP199      0.0012
     51  CZ2       23.6890  -37.8260  -21.7230 C.ar  199  TRP199      0.0191
     52  CZ3       24.2930  -36.4760  -19.8210 C.ar  199  TRP199      0.0001
     53  CH2       24.5740  -37.4870  -20.7380 C.ar  199  TRP199      0.0015
     54  N         34.5660  -32.8640  -30.4480 N.3   214  LEU214     -0.1231
     55  CA        34.3200  -33.8900  -29.4610 C.3   214  LEU214      0.1678
     56  C         35.6640  -34.4350  -29.0100 C.2   214  LEU214      0.2434
     57  O         36.6430  -34.3730  -29.7550 O.2   214  LEU214     -0.2733
     58  CB        33.4920  -35.0040  -30.0750 C.3   214  LEU214      0.0284
     59  CG        32.3650  -35.5780  -29.2350 C.3   214  LEU214      0.0019
     60  CD1       31.0980  -34.7650  -29.3960 C.3   214  LEU214      0.0001
     61  CD2       32.1230  -37.0220  -29.6160 C.3   214  LEU214      0.0001
     62  N         35.6870  -34.9990  -27.7260 N.am  215  PRO215     -0.2718
     63  CA        37.0150  -35.4970  -27.3320 C.3   215  PRO215      0.1535
     64  C         37.4520  -36.5590  -28.3080 C.2   215  PRO215      0.2599
     65  O         38.6270  -36.7210  -28.5800 O.2   215  PRO215     -0.2715
     66  CB        36.7780  -36.1290  -25.9650 C.3   215  PRO215      0.0310
     67  CG        35.6930  -35.3280  -25.3770 C.3   215  PRO215      0.0237
     68  CD        34.7500  -35.2660  -26.5250 C.3   215  PRO215      0.0939
     69  N         36.4790  -37.2800  -28.8270 N.am  216  GLY216     -0.1955
     70  CA        36.7050  -38.4170  -29.6850 C.3   216  GLY216      0.1869
     71  C         37.3620  -38.0640  -30.9980 C.2   216  GLY216      0.2309
     72  O         37.8210  -38.9490  -31.7100 O.2   216  GLY216     -0.2863
     73  N         29.5890  -33.6610  -33.2050 N.3   220  LEU220     -0.1245
     74  CA        28.3400  -33.9520  -32.5420 C.3   220  LEU220      0.1561
     75  C         27.3590  -34.4970  -33.5400 C.2   220  LEU220      0.2260
     76  O         26.7200  -35.4990  -33.2860 O.2   220  LEU220     -0.2867
     77  CB        27.7580  -32.6760  -31.9510 C.3   220  LEU220      0.0270
     78  CG        27.2270  -32.7350  -30.5320 C.3   220  LEU220      0.0019
     79  CD1       28.3870  -32.5530  -29.5800 C.3   220  LEU220      0.0001
     80  CD2       26.2030  -31.6380  -30.3320 C.3   220  LEU220      0.0001
     81  N         28.6650  -38.0040  -34.4570 N.3   223  TYR223     -0.1227
     82  CA        28.7000  -39.0670  -33.4700 C.3   223  TYR223      0.1736
     83  C         27.3500  -39.7410  -33.3890 C.2   223  TYR223      0.2595
     84  O         27.2520  -40.9560  -33.4340 O.2   223  TYR223     -0.2718
     85  CB        29.1000  -38.4820  -32.1090 C.3   223  TYR223      0.0548
     86  CG        28.7030  -39.2830  -30.8920 C.ar  223  TYR223     -0.0200
     87  CD1       27.3840  -39.4480  -30.5540 C.ar  223  TYR223     -0.0009
     88  CD2       29.6550  -39.8420  -30.0630 C.ar  223  TYR223     -0.0009
     89  CE1       27.0180  -40.1690  -29.4470 C.ar  223  TYR223      0.0417
     90  CE2       29.2940  -40.5640  -28.9490 C.ar  223  TYR223      0.0417
     91  CZ        27.9720  -40.7220  -28.6510 C.ar  223  TYR223      0.1957
     92  OH        27.5590  -41.4270  -27.5550 O.3   223  TYR223     -0.2866
     93  N         26.3070  -38.9320  -33.3130 N.am  224  HIS224     -0.1975
     94  CA        24.9510  -39.4330  -33.2330 C.3   224  HIS224      0.1656
     95  C         24.5690  -40.1380  -34.5140 C.2   224  HIS224      0.2291
     96  O         23.8870  -41.1460  -34.5100 O.2   224  HIS224     -0.2864
     97  CB        23.9880  -38.3000  -32.9020 C.3   224  HIS224      0.0771
     98  CG        24.2180  -37.6850  -31.5560 C.ar  224  HIS224      0.0820
     99  ND1       23.4850  -38.0320  -30.4470 N.ar  224  HIS224     -0.2267
    100  CD2       25.0970  -36.7460  -31.1430 C.ar  224  HIS224      0.1154
    101  CE1       23.9010  -37.3340  -29.4090 C.ar  224  HIS224      0.1986
    102  NE2       24.8830  -36.5500  -29.8030 N.ar  224  HIS224     -0.2212
    103  N         26.0600  -43.5390  -34.6960 N.3   227  LYS227     -0.1245
    104  CA        25.3440  -44.4630  -33.8360 C.3   227  LYS227      0.1561
    105  C         23.9610  -44.7210  -34.3860 C.2   227  LYS227      0.2260
    106  O         23.2440  -45.5820  -33.9100 O.2   227  LYS227     -0.2867
    107  CB        25.3560  -44.0010  -32.3740 C.3   227  LYS227      0.0271
    108  CG        24.0300  -43.5620  -31.7810 C.3   227  LYS227      0.0035
    109  CD        24.2520  -42.8450  -30.4600 C.3   227  LYS227      0.0206
    110  CE        23.0940  -41.9320  -30.1390 C.3   227  LYS227      0.1093
    111  NZ        22.7870  -41.9790  -28.6900 N.3   227  LYS227     -0.1314
    112  N         30.2380  -31.4670  -16.0330 N.3   249  LYS249     -0.1245
    113  CA        30.4360  -30.2520  -16.8020 C.3   249  LYS249      0.1561
    114  C         29.4300  -30.2680  -17.9280 C.2   249  LYS249      0.2260
    115  O         28.8630  -31.3190  -18.2180 O.2   249  LYS249     -0.2867
    116  CB        31.8430  -30.2220  -17.3830 C.3   249  LYS249      0.0271
    117  CG        32.1530  -31.3160  -18.3960 C.3   249  LYS249      0.0035
    118  CD        33.5530  -31.0730  -18.9070 C.3   249  LYS249      0.0206
    119  CE        34.1920  -32.3370  -19.4930 C.3   249  LYS249      0.1093
    120  NZ        33.4740  -32.8320  -20.6470 N.3   249  LYS249     -0.1314
    121  N         27.4490  -30.8530  -21.1080 N.3   251  ILE251     -0.1231
    122  CA        27.6740  -31.8540  -22.1420 C.3   251  ILE251      0.1678
    123  C         26.8750  -31.4540  -23.3800 C.2   251  ILE251      0.2434
    124  O         25.7160  -31.0240  -23.2690 O.2   251  ILE251     -0.2733
    125  CB        27.3210  -33.2570  -21.6300 C.3   251  ILE251      0.0265
    126  CG1       28.2970  -33.6470  -20.5000 C.3   251  ILE251      0.0019
    127  CG2       27.3940  -34.2350  -22.7640 C.3   251  ILE251      0.0020
    128  CD1       27.6850  -33.7720  -19.0670 C.3   251  ILE251      0.0001
    129  N         27.4810  -31.5010  -24.5610 N.am  252  PRO252     -0.2718
    130  CA        26.7900  -31.0790  -25.7730 C.3   252  PRO252      0.1535
    131  C         25.8950  -32.1900  -26.2960 C.2   252  PRO252      0.2598
    132  O         26.0920  -33.3710  -25.9980 O.2   252  PRO252     -0.2715
    133  CB        27.9410  -30.7960  -26.7400 C.3   252  PRO252      0.0310
    134  CG        29.1840  -30.8210  -25.8930 C.3   252  PRO252      0.0237
    135  CD        28.8880  -31.7900  -24.8350 C.3   252  PRO252      0.0939
    136  N         24.9100  -31.7810  -27.1040 N.am  253  HIS253     -0.1974
    137  CA        23.7740  -32.6070  -27.5080 C.3   253  HIS253      0.1656
    138  C         22.9670  -31.8710  -28.5780 C.2   253  HIS253      0.2291
    139  O         22.8930  -30.6420  -28.5580 O.2   253  HIS253     -0.2864
    140  CB        22.8960  -32.9340  -26.2880 C.3   253  HIS253      0.0771
    141  CG        22.2770  -34.2840  -26.3440 C.ar  253  HIS253      0.0820
    142  ND1       21.8740  -34.8560  -27.5310 N.ar  253  HIS253     -0.2267
    143  CD2       22.0010  -35.1810  -25.3730 C.ar  253  HIS253      0.1154
    144  CE1       21.3670  -36.0490  -27.2880 C.ar  253  HIS253      0.1986
    145  NE2       21.4310  -36.2690  -25.9850 N.ar  253  HIS253     -0.2212
@<TRIPOS>BOND
     1   103   104    1
     2    95    96    2
     3    95    94    1
     4    81    82    1
     5   105   106    2
     6   105   104    1
     7   104   107    1
     8    75    76    2
     9    75    74    1
    10    82    83    1
    11    82    85    1
    12    84    83    2
    13    83    93   am
    14    93    94    1
    15    94    97    1
    16    73    74    1
    17    97    98    1
    18    74    77    1
    19   107   108    1
    20    85    86    1
    21    77    78    1
    22   108   109    1
    23    72    71    2
    24    98   100   ar
    25    98    99   ar
    26   100   102   ar
    27    71    70    1
    28    86    87   ar
    29    86    88   ar
    30    87    89   ar
    31    78    80    1
    32    78    79    1
    33   109   110    1
    34    54    55    1
    35    99   101   ar
    36   110   111    1
    37    58    55    1
    38    58    59    1
    39    88    90   ar
    40   102   101   ar
    41    57    56    2
    42    70    69    1
    43    61    59    1
    44    55    56    1
    45    89    91   ar
    46    60    59    1
    47    13    14    1
    48    13    10    1
    49    16    14   ar
    50    16    18   ar
    51    56    62   am
    52    90    91   ar
    53    69    64   am
    54    14    15   ar
    55    91    92    1
    56    18    19   ar
    57    65    64    2
    58   138   139    2
    59   138   137    1
    60    10     9    1
    61    10    11    1
    62    64    63    1
    63    62    63    1
    64    62    68    1
    65    15    17   ar
    66    19    17   ar
    67    19    20    1
    68   142   144   ar
    69   142   141   ar
    70   137   136    1
    71   137   140    1
    72    12    11    2
    73    63    66    1
    74   144   145   ar
    75    11    21   am
    76   136   131   am
    77   133   134    1
    78   133   130    1
    79    68    67    1
    80   141   140    1
    81   141   143   ar
    82   131   132    2
    83   131   130    1
    84    21    22    1
    85   145   143   ar
    86    66    67    1
    87     3     4    2
    88     3     2    1
    89   134   135    1
    90   130   129    1
    91     2     5    1
    92     2     1    1
    93     8     6   am
    94     5     6    1
    95    22    25    1
    96    22    23    1
    97   135   129    1
    98    25    26    1
    99   129   123   am
   100     6     7    2
   101    28    26   ar
   102    26    27   ar
   103    24    23    2
   104   123   124    2
   105   123   122    1
   106   127   125    1
   107    48    46   ar
   108    48    49   ar
   109    46    45   ar
   110   122   125    1
   111   122   121    1
   112    49    51   ar
   113    49    47   ar
   114    51    53   ar
   115   125   126    1
   116    32    31    2
   117    45    47   ar
   118    45    44    1
   119    29    30    1
   120    47    50   ar
   121    53    52   ar
   122   120   119    1
   123    33    30    1
   124    33    34    1
   125   126   128    1
   126    44    41    1
   127    35    34    1
   128    35    36    1
   129    31    30    1
   130    50    52   ar
   131   119   118    1
   132    40    41    1
   133    36    37    2
   134    41    42    1
   135   118   117    1
   136   117   116    1
   137    42    43    2
   138    37    38    1
   139    37    39    1
   140   115   114    2
   141   114   113    1
   142   116   113    1
   143   113   112    1
