@<TRIPOS>MOLECULE
tmp/5xqdA00.pdb
 140 128 0 0 0
SMALL
GASTEIGER

@<TRIPOS>ATOM
      1  N         31.2810   11.5490   15.9480 N.3    32  LEU32      -0.1245
      2  CA        30.7010   12.0280   17.2090 C.3    32  LEU32       0.1561
      3  C         29.3910   11.3110   17.5320 C.2    32  LEU32       0.2260
      4  O         29.1200   10.9600   18.6900 O.2    32  LEU32      -0.2867
      5  CB        30.5100   13.5380   17.1780 C.3    32  LEU32       0.0270
      6  CG        31.8140   14.3250   17.0570 C.3    32  LEU32       0.0019
      7  CD1       31.5140   15.8140   16.8930 C.3    32  LEU32       0.0001
      8  CD2       32.6740   14.0990   18.2940 C.3    32  LEU32       0.0001
      9  N         30.3330    7.9920   18.8910 N.3    35  ASN35      -0.1225
     10  CA        30.6840    8.0770   20.3040 C.3    35  ASN35       0.1785
     11  C         29.4360    8.1660   21.1910 C.2    35  ASN35       0.2597
     12  O         29.3490    7.4890   22.2070 O.2    35  ASN35      -0.2718
     13  CB        31.6250    9.2510   20.5630 C.3    35  ASN35       0.1169
     14  CG        33.0250    8.9890   20.0450 C.2    35  ASN35       0.2627
     15  OD1       33.3090    7.9300   19.4790 O.2    35  ASN35      -0.2716
     16  ND2       33.9190    9.9510   20.2520 N.am   35  ASN35      -0.0877
     17  N         28.4690    8.9850   20.7880 N.am   36  SER36      -0.1952
     18  CA        27.2260    9.0940   21.5460 C.3    36  SER36       0.1924
     19  C         26.5260    7.7310   21.6150 C.2    36  SER36       0.2314
     20  O         26.0160    7.3250   22.6670 O.2    36  SER36      -0.2863
     21  CB        26.2860   10.1070   20.8720 C.3    36  SER36       0.2116
     22  OG        26.7900   11.4240   20.9930 O.3    36  SER36      -0.2180
     23  N         27.8560    4.7860   21.4320 N.3    38  ASP38      -0.1225
     24  CA        28.6020    3.9290   22.3400 C.3    38  ASP38       0.1805
     25  C         28.2670    4.2400   23.7900 C.2    38  ASP38       0.2597
     26  O         28.1070    3.3230   24.6080 O.2    38  ASP38      -0.2718
     27  CB        30.1040    4.0870   22.1250 C.3    38  ASP38       0.1424
     28  CG        30.5820    3.4760   20.8170 C.2    38  ASP38       0.3668
     29  OD1       29.7980    2.7780   20.1230 O.co2  38  ASP38      -0.2456
     30  OD2       31.7710    3.6950   20.4880 O.co2  38  ASP38      -0.2456
     31  N         28.1540    5.5270   24.1050 N.am   39  ALA39      -0.1979
     32  CA        27.8310    5.9490   25.4760 C.3    39  ALA39       0.1597
     33  C         26.3960    5.5790   25.8460 C.2    39  ALA39       0.2287
     34  O         26.0940    5.2390   26.9980 O.2    39  ALA39      -0.2864
     35  CB        28.0530    7.4490   25.6420 C.3    39  ALA39       0.0319
     36  N         26.2180    1.9390   26.6580 N.3    42  LYS42      -0.1245
     37  CA        26.7730    1.6170   27.9660 C.3    42  LYS42       0.1561
     38  C         25.7550    1.8400   29.0730 C.2    42  LYS42       0.2260
     39  O         25.5940    0.9870   29.9420 O.2    42  LYS42      -0.2867
     40  CB        28.0610    2.3860   28.2480 C.3    42  LYS42       0.0271
     41  CG        28.7320    1.9180   29.5400 C.3    42  LYS42       0.0035
     42  CD        30.1950    2.3180   29.6220 C.3    42  LYS42       0.0206
     43  CE        30.8590    1.7070   30.8580 C.3    42  LYS42       0.1093
     44  NZ        32.2950    2.1020   30.9990 N.3    42  LYS42      -0.1314
     45  N         26.0350   18.5520   19.6180 N.3    75  ILE75      -0.1245
     46  CA        25.5430   17.1760   19.6020 C.3    75  ILE75       0.1561
     47  C         25.2990   16.7730   21.0470 C.2    75  ILE75       0.2260
     48  O         26.2240   16.7890   21.8610 O.2    75  ILE75      -0.2867
     49  CB        26.5500   16.2000   18.9430 C.3    75  ILE75       0.0252
     50  CG1       26.8030   16.5640   17.4770 C.3    75  ILE75       0.0019
     51  CG2       26.0320   14.7760   19.0060 C.3    75  ILE75       0.0019
     52  CD1       27.8580   17.6060   17.2610 C.3    75  ILE75       0.0001
     53  N         23.7640   13.9520   23.8140 N.3    77  ASP77      -0.1239
     54  CA        23.2660   12.6050   24.0480 C.3    77  ASP77       0.1674
     55  C         22.9970   12.3940   25.5270 C.2    77  ASP77       0.2266
     56  O         23.5010   13.1290   26.3800 O.2    77  ASP77      -0.2867
     57  CB        24.2180   11.5310   23.5050 C.3    77  ASP77       0.1410
     58  CG        25.5210   11.4390   24.2820 C.2    77  ASP77       0.3668
     59  OD1       25.4890   11.0570   25.4730 O.co2  77  ASP77      -0.2456
     60  OD2       26.5880   11.7240   23.6850 O.co2  77  ASP77      -0.2456
     61  N         25.9860    7.4510   29.0050 N.3    80  ILE80      -0.1231
     62  CA        26.5210    7.2390   30.3480 C.3    80  ILE80       0.1692
     63  C         27.2410    8.4600   30.9340 C.2    80  ILE80       0.2593
     64  O         27.3120    8.6250   32.1630 O.2    80  ILE80      -0.2718
     65  CB        27.4430    5.9980   30.3820 C.3    80  ILE80       0.0266
     66  CG1       27.7630    5.6090   31.8270 C.3    80  ILE80       0.0019
     67  CG2       28.7130    6.2330   29.5540 C.3    80  ILE80       0.0020
     68  CD1       28.1990    4.1990   31.9690 C.3    80  ILE80       0.0001
     69  N         27.7640    9.3200   30.0660 N.am   81  GLY81      -0.1942
     70  CA        28.5050   10.4830   30.5250 C.3    81  GLY81       0.2014
     71  C         29.9130   10.1320   30.9510 C.2    81  GLY81       0.2638
     72  O         30.2590    8.9680   31.1150 O.2    81  GLY81      -0.2714
     73  N         30.7330   11.1580   31.1050 N.am   82  MET82      -0.1976
     74  CA        32.1180   10.9560   31.4780 C.3    82  MET82       0.1605
     75  C         32.3950   11.5930   32.8270 C.2    82  MET82       0.2287
     76  O         31.8700   12.6670   33.1450 O.2    82  MET82      -0.2864
     77  CB        33.0320   11.5470   30.4050 C.3    82  MET82       0.0413
     78  CG        33.0850   10.7320   29.1180 C.3    82  MET82       0.0598
     79  SD        34.1080   11.5060   27.8340 S.3    82  MET82      -0.1393
     80  CE        33.0090   12.8060   27.2750 C.3    82  MET82       0.0692
     81  N         37.7260   10.7190   33.3320 N.3    86  ASP86      -0.1239
     82  CA        37.5870   10.3600   31.9200 C.3    86  ASP86       0.1674
     83  C         37.9520   11.5280   31.0170 C.2    86  ASP86       0.2266
     84  O         38.6770   11.3540   30.0310 O.2    86  ASP86      -0.2867
     85  CB        36.1440    9.9730   31.5760 C.3    86  ASP86       0.1410
     86  CG        35.7400    8.6150   32.1070 C.2    86  ASP86       0.3668
     87  OD1       36.6060    7.7260   32.2650 O.co2  86  ASP86      -0.2456
     88  OD2       34.5220    8.4380   32.3420 O.co2  86  ASP86      -0.2456
     89  N         39.2090   12.1350   27.0630 N.3    91  LEU91      -0.1231
     90  CA        37.8000   11.8660   26.7960 C.3    91  LEU91       0.1693
     91  C         37.5010   10.3690   26.6920 C.2    91  LEU91       0.2593
     92  O         36.8280    9.9120   25.7660 O.2    91  LEU91      -0.2718
     93  CB        37.3240   12.6330   25.5550 C.3    91  LEU91       0.0284
     94  CG        37.5820   14.1440   25.6990 C.3    91  LEU91       0.0019
     95  CD1       38.8810   14.5330   25.0130 C.3    91  LEU91       0.0001
     96  CD2       36.4360   14.9640   25.1570 C.3    91  LEU91       0.0001
     97  N         38.0140    9.6120   27.6560 N.am   92  GLY92      -0.1942
     98  CA        37.7090    8.1990   27.7690 C.3    92  GLY92       0.2014
     99  C         38.3170    7.2990   26.7090 C.2    92  GLY92       0.2639
    100  O         37.8750    6.1520   26.5500 O.2    92  GLY92      -0.2714
    101  N         39.3320    7.7960   25.9980 N.am   93  THR93      -0.1950
    102  CA        39.9370    7.0410   24.9040 C.3    93  THR93       0.1897
    103  C         41.3010    6.4880   25.2510 C.2    93  THR93       0.2313
    104  O         41.9650    6.9710   26.1790 O.2    93  THR93      -0.2863
    105  CB        40.1420    7.9040   23.6320 C.3    93  THR93       0.1794
    106  OG1       41.1850    8.8670   23.8610 O.3    93  THR93      -0.2208
    107  CG2       38.8570    8.6060   23.2240 C.3    93  THR93       0.0378
    108  N         40.1090    4.4170   17.7570 N.3   119  GLY119     -0.1225
    109  CA        39.5670    4.8150   19.0380 C.3   119  GLY119      0.1811
    110  C         39.6530    6.2930   19.3650 C.2   119  GLY119      0.2280
    111  O         39.3400    6.6980   20.4860 O.2   119  GLY119     -0.2866
    112  N         38.3140    8.9190   17.2730 N.3   121  GLY121     -0.1210
    113  CA        37.4310    9.6580   16.3860 C.3   121  GLY121      0.1956
    114  C         37.0020   11.0250   16.8990 C.2   121  GLY121      0.2611
    115  O         36.7140   11.9070   16.0960 O.2   121  GLY121     -0.2717
    116  N         36.9450   11.2070   18.2170 N.am  122  PHE122     -0.1976
    117  CA        36.5590   12.5050   18.7690 C.3   122  PHE122      0.1639
    118  C         37.3510   13.6330   18.1120 C.2   122  PHE122      0.2290
    119  O         36.8020   14.6920   17.8060 O.2   122  PHE122     -0.2864
    120  CB        36.7610   12.5660   20.2910 C.3   122  PHE122      0.0560
    121  CG        36.7390   13.9660   20.8330 C.ar  122  PHE122     -0.0200
    122  CD1       35.5440   14.6720   20.9150 C.ar  122  PHE122     -0.0042
    123  CD2       37.9150   14.5940   21.2060 C.ar  122  PHE122     -0.0042
    124  CE1       35.5080   15.9720   21.3890 C.ar  122  PHE122     -0.0003
    125  CE2       37.9000   15.9000   21.6830 C.ar  122  PHE122     -0.0003
    126  CZ        36.7060   16.5930   21.7700 C.ar  122  PHE122     -0.0000
    127  N         26.2880   13.6690   27.5500 N.3   168  THR168     -0.1218
    128  CA        27.3760   14.4830   27.0460 C.3   168  THR168      0.1862
    129  C         26.8750   15.4260   25.9720 C.2   168  THR168      0.2287
    130  O         26.0570   15.0460   25.1350 O.2   168  THR168     -0.2866
    131  CB        28.4860   13.5680   26.5060 C.3   168  THR168      0.1770
    132  OG1       28.9910   12.7820   27.5990 O.3   168  THR168     -0.2211
    133  CG2       29.6320   14.3690   25.8690 C.3   168  THR168      0.0375
    134  N         28.5070   18.0020   23.0740 N.3   170  VAL170     -0.1245
    135  CA        29.7130   18.4510   22.3780 C.3   170  VAL170      0.1561
    136  C         29.3520   19.6860   21.5750 C.2   170  VAL170      0.2260
    137  O         28.4840   19.6310   20.7130 O.2   170  VAL170     -0.2867
    138  CB        30.2560   17.3720   21.4330 C.3   170  VAL170      0.0252
    139  CG1       31.4400   17.9210   20.6200 C.3   170  VAL170      0.0019
    140  CG2       30.6580   16.1340   22.2230 C.3   170  VAL170      0.0019
@<TRIPOS>BOND
     1     1     2    1
     2   115   114    2
     3   113   114    1
     4   113   112    1
     5     7     6    1
     6   114   116   am
     7     6     5    1
     8     6     8    1
     9     5     2    1
    10     2     3    1
    11    52    50    1
    12    50    49    1
    13     3     4    2
    14   108   109    1
    15   119   118    2
    16   118   117    1
    17   116   117    1
    18   117   120    1
    19     9    10    1
    20    49    51    1
    21    49    46    1
    22   109   110    1
    23   110   111    2
    24    15    14    2
    25    46    45    1
    26    46    47    1
    27    14    16   am
    28    14    13    1
    29    29    28   ar
    30   120   121    1
    31    10    13    1
    32    10    11    1
    33    30    28   ar
    34   139   138    1
    35   137   136    2
    36    17    11   am
    37    17    18    1
    38    28    27    1
    39   121   122   ar
    40   121   123   ar
    41    21    22    1
    42    21    18    1
    43   122   124   ar
    44    47    48    2
    45    11    12    2
    46   123   125   ar
    47   124   126   ar
    48    23    24    1
    49   138   140    1
    50   138   135    1
    51    18    19    1
    52   136   135    1
    53    19    20    2
    54   125   126   ar
    55    27    24    1
    56    24    25    1
    57   135   134    1
    58   107   105    1
    59    57    54    1
    60    57    58    1
    61   105   106    1
    62   105   102    1
    63    60    58   ar
    64    25    31   am
    65    25    26    2
    66    53    54    1
    67    54    55    1
    68    31    32    1
    69    58    59   ar
    70   102   103    1
    71   102   101    1
    72    95    94    1
    73   130   129    2
    74    96    94    1
    75   103   104    2
    76    32    35    1
    77    32    33    1
    78    55    56    2
    79    93    94    1
    80    93    90    1
    81    92    91    2
    82    33    34    2
    83   133   131    1
    84   129   128    1
    85   101    99   am
    86   131   128    1
    87   131   132    1
    88   100    99    2
    89    36    37    1
    90    91    90    1
    91    91    97   am
    92    99    98    1
    93    90    89    1
    94   128   127    1
    95    80    79    1
    96    97    98    1
    97    79    78    1
    98    37    40    1
    99    37    38    1
   100    40    41    1
   101    61    62    1
   102    38    39    2
   103    78    77    1
   104    41    42    1
   105    67    65    1
   106    42    43    1
   107    84    83    2
   108    69    70    1
   109    69    63   am
   110    62    65    1
   111    62    63    1
   112    65    66    1
   113    77    74    1
   114    70    71    1
   115    43    44    1
   116    63    64    2
   117    71    73   am
   118    71    72    2
   119    83    82    1
   120    73    74    1
   121    74    75    1
   122    85    82    1
   123    85    86    1
   124    66    68    1
   125    82    81    1
   126    86    87   ar
   127    86    88   ar
   128    75    76    2
