@<TRIPOS>MOLECULE
tmp/5xqjF02.pdb
 85 77 0 0 0
SMALL
GASTEIGER

@<TRIPOS>ATOM
      1  N        -40.1860  -44.7630  -12.6550 N.3   619  GLN619     -0.1245
      2  CA       -40.3120  -43.4250  -13.1920 C.3   619  GLN619      0.1566
      3  C        -39.9930  -43.3600  -14.6970 C.2   619  GLN619      0.2260
      4  O        -39.2830  -44.2530  -15.2220 O.2   619  GLN619     -0.2867
      5  CB       -39.3610  -42.5080  -12.4300 C.3   619  GLN619      0.0367
      6  CG       -39.6960  -42.3420  -10.9580 C.3   619  GLN619      0.0905
      7  CD       -39.1080  -41.0870  -10.3660 C.2   619  GLN619      0.2608
      8  OE1      -38.7130  -40.1630  -11.0920 O.2   619  GLN619     -0.2717
      9  NE2      -39.0360  -41.0460   -9.0420 N.am  619  GLN619     -0.0878
     10  N        -38.3810  -40.7490  -16.1640 N.3   621  ARG621     -0.1245
     11  CA       -36.9430  -40.4690  -16.0860 C.3   621  ARG621      0.1563
     12  C        -36.0580  -41.5000  -16.7520 C.2   621  ARG621      0.2260
     13  O        -35.1260  -41.1350  -17.4270 O.2   621  ARG621     -0.2867
     14  CB       -36.5650  -40.5280  -14.6120 C.3   621  ARG621      0.0307
     15  CG       -35.7090  -39.4270  -14.1150 C.3   621  ARG621      0.0489
     16  CD       -35.8360  -39.3180  -12.6070 C.3   621  ARG621      0.2205
     17  NE       -34.9170  -40.1850  -11.8920 N.pl3 621  ARG621     -0.0865
     18  CZ       -34.8310  -40.2330  -10.5650 C.cat 621  ARG621      0.5346
     19  NH1      -35.6430  -39.5090   -9.8050 N.pl3 621  ARG621      0.1354
     20  NH2      -33.9290  -41.0080   -9.9850 N.pl3 621  ARG621      0.1354
     21  N        -44.1570  -39.4380   -6.4250 N.3   661  GLN661     -0.1245
     22  CA       -44.0910  -38.6540   -5.1920 C.3   661  GLN661      0.1566
     23  C        -44.8510  -39.2680   -3.9790 C.2   661  GLN661      0.2260
     24  O        -44.8720  -38.6750   -2.8980 O.2   661  GLN661     -0.2867
     25  CB       -44.5980  -37.2180   -5.4650 C.3   661  GLN661      0.0367
     26  CG       -43.8070  -36.3620   -6.4880 C.3   661  GLN661      0.0905
     27  CD       -42.2850  -36.5910   -6.4030 C.2   661  GLN661      0.2608
     28  OE1      -41.5630  -35.9920   -5.5970 O.2   661  GLN661     -0.2717
     29  NE2      -41.8120  -37.4900   -7.2170 N.am  661  GLN661     -0.0878
     30  N        -43.1600  -38.6780   -0.4580 N.3   664  VAL664     -0.1245
     31  CA       -42.4990  -37.4320   -0.0480 C.3   664  VAL664      0.1561
     32  C        -43.4270  -36.2400   -0.1190 C.2   664  VAL664      0.2260
     33  O        -43.3310  -35.3330    0.6880 O.2   664  VAL664     -0.2867
     34  CB       -41.1410  -37.2150   -0.7870 C.3   664  VAL664      0.0252
     35  CG1      -40.1480  -38.2850   -0.3580 C.3   664  VAL664      0.0019
     36  CG2      -41.2820  -37.2470   -2.3130 C.3   664  VAL664      0.0019
     37  N        -44.7360  -34.6040  -12.3220 N.3   680  GLY680     -0.1225
     38  CA       -43.8120  -33.4810  -12.2970 C.3   680  GLY680      0.1811
     39  C        -43.5250  -32.8420  -13.6550 C.2   680  GLY680      0.2280
     40  O        -43.4280  -33.5120  -14.6910 O.2   680  GLY680     -0.2866
     41  N        -38.7820  -34.0150  -14.3240 N.3   683  THR683     -0.1203
     42  CA       -38.4670  -35.3870  -14.6330 C.3   683  THR683      0.1994
     43  C        -39.5690  -36.0150  -15.4610 C.2   683  THR683      0.2617
     44  O        -39.4030  -36.2500  -16.6690 O.2   683  THR683     -0.2717
     45  CB       -38.2470  -36.2340  -13.3820 C.3   683  THR683      0.1784
     46  OG1      -39.2140  -35.8720  -12.3990 O.3   683  THR683     -0.2211
     47  CG2      -36.8410  -36.0230  -12.8440 C.3   683  THR683      0.0376
     48  N        -40.7020  -36.2570  -14.8270 N.am  684  ASP684     -0.1973
     49  CA       -41.8030  -36.9510  -15.5050 C.3   684  ASP684      0.1709
     50  C        -42.2150  -36.3250  -16.8670 C.2   684  ASP684      0.2293
     51  O        -42.2650  -37.0250  -17.8610 O.2   684  ASP684     -0.2864
     52  CB       -43.0280  -37.0160  -14.5900 C.3   684  ASP684      0.1436
     53  CG       -42.7510  -37.6690  -13.2410 C.2   684  ASP684      0.3671
     54  OD1      -42.1110  -38.7620  -13.1540 O.co2 684  ASP684     -0.2456
     55  OD2      -43.2550  -37.0700  -12.2710 O.co2 684  ASP684     -0.2456
     56  N        -38.8030  -26.7990   -6.2030 N.3   753  ILE753     -0.1231
     57  CA       -37.5590  -26.8910   -6.9360 C.3   753  ILE753      0.1692
     58  C        -36.9480  -28.2390   -6.6590 C.2   753  ILE753      0.2592
     59  O        -36.8860  -28.6930   -5.5120 O.2   753  ILE753     -0.2718
     60  CB       -36.6030  -25.7910   -6.4520 C.3   753  ILE753      0.0266
     61  CG1      -37.1910  -24.4230   -6.7870 C.3   753  ILE753      0.0019
     62  CG2      -35.1970  -25.9350   -7.0370 C.3   753  ILE753      0.0020
     63  CD1      -37.4960  -24.2310   -8.2520 C.3   753  ILE753      0.0001
     64  N        -36.4770  -28.8790   -7.7130 N.am  754  SER754     -0.1952
     65  CA       -35.6790  -30.0810   -7.5650 C.3   754  SER754      0.1924
     66  C        -34.4490  -29.9830   -8.4390 C.2   754  SER754      0.2314
     67  O        -34.5610  -29.7390   -9.6350 O.2   754  SER754     -0.2863
     68  CB       -36.4970  -31.3150   -7.9610 C.3   754  SER754      0.2116
     69  OG       -35.7860  -32.4990   -7.6230 O.3   754  SER754     -0.2180
     70  N        -33.0250  -32.3020   -9.5790 N.3   756  LEU756     -0.1231
     71  CA       -33.2340  -33.3390  -10.5820 C.3   756  LEU756      0.1693
     72  C        -34.0070  -32.9480  -11.8130 C.2   756  LEU756      0.2592
     73  O        -33.8980  -33.6480  -12.7970 O.2   756  LEU756     -0.2718
     74  CB       -33.9880  -34.5180   -9.9870 C.3   756  LEU756      0.0284
     75  CG       -33.3670  -35.2870   -8.8220 C.3   756  LEU756      0.0019
     76  CD1      -34.2360  -36.5280   -8.6220 C.3   756  LEU756      0.0001
     77  CD2      -31.9050  -35.6940   -8.9750 C.3   756  LEU756      0.0001
     78  N        -34.8080  -31.8850  -11.7760 N.am  757  ASN757     -0.1974
     79  CA       -35.8130  -31.6780  -12.8350 C.3   757  ASN757      0.1688
     80  C        -35.3030  -31.5490  -14.2590 C.2   757  ASN757      0.2292
     81  O        -35.9970  -31.9580  -15.1950 O.2   757  ASN757     -0.2864
     82  CB       -36.6530  -30.4620  -12.5570 C.3   757  ASN757      0.1181
     83  CG       -37.7080  -30.7360  -11.5410 C.2   757  ASN757      0.2629
     84  OD1      -38.2190  -31.8310  -11.4430 O.2   757  ASN757     -0.2716
     85  ND2      -38.0450  -29.7240  -10.7730 N.am  757  ASN757     -0.0877
@<TRIPOS>BOND
     1    51    50    2
     2    13    12    2
     3    50    49    1
     4    12    11    1
     5    44    43    2
     6    10    11    1
     7    11    14    1
     8    49    48    1
     9    49    52    1
    10    43    48   am
    11    43    42    1
    12     4     3    2
    13    81    80    2
    14     3     2    1
    15    40    39    2
    16    42    41    1
    17    42    45    1
    18    14    15    1
    19    52    53    1
    20    80    79    1
    21    15    16    1
    22    39    38    1
    23    45    47    1
    24    45    46    1
    25    53    54   ar
    26    53    55   ar
    27     2     1    1
    28     2     5    1
    29    79    82    1
    30    79    78    1
    31    73    72    2
    32    16    17    1
    33    82    83    1
    34     5     6    1
    35    37    38    1
    36    17    18    2
    37    72    78   am
    38    72    71    1
    39    83    84    2
    40    83    85   am
    41     8     7    2
    42     6     7    1
    43    71    74    1
    44    71    70    1
    45    18    20    1
    46    18    19    1
    47     7     9   am
    48    74    75    1
    49    67    66    2
    50    77    75    1
    51    75    76    1
    52    66    65    1
    53    63    61    1
    54    68    69    1
    55    68    65    1
    56    64    65    1
    57    64    58   am
    58    29    27   am
    59    62    60    1
    60    57    58    1
    61    57    60    1
    62    57    56    1
    63    61    60    1
    64    58    59    2
    65    26    27    1
    66    26    25    1
    67    21    22    1
    68    27    28    2
    69    25    22    1
    70    22    23    1
    71    23    24    2
    72    36    34    1
    73    34    35    1
    74    34    31    1
    75    30    31    1
    76    32    31    1
    77    32    33    2
