@<TRIPOS>MOLECULE
tmp/5xqjF01.pdb
 112 103 0 0 0
SMALL
GASTEIGER

@<TRIPOS>ATOM
      1  N        -37.7470  -44.7610    3.6180 N.3   424  LEU424     -0.1245
      2  CA       -36.9940  -43.5220    3.4340 C.3   424  LEU424      0.1561
      3  C        -35.8180  -43.4790    4.3770 C.2   424  LEU424      0.2260
      4  O        -34.8340  -42.8420    4.0570 O.2   424  LEU424     -0.2867
      5  CB       -37.8510  -42.2840    3.6800 C.3   424  LEU424      0.0270
      6  CG       -38.9750  -42.0800    2.6850 C.3   424  LEU424      0.0019
      7  CD1      -39.9370  -40.9840    3.1510 C.3   424  LEU424      0.0001
      8  CD2      -38.3990  -41.7720    1.3180 C.3   424  LEU424      0.0001
      9  N        -33.2490  -45.6350    2.6770 N.3   427  LEU427     -0.1245
     10  CA       -32.7410  -44.7930    1.5980 C.3   427  LEU427      0.1561
     11  C        -31.6250  -43.9030    2.0750 C.2   427  LEU427      0.2260
     12  O        -30.8150  -43.5090    1.2880 O.2   427  LEU427     -0.2867
     13  CB       -33.9000  -43.9560    1.0140 C.3   427  LEU427      0.0270
     14  CG       -33.6420  -42.8580    0.0010 C.3   427  LEU427      0.0019
     15  CD1      -32.8750  -43.4340   -1.1630 C.3   427  LEU427      0.0001
     16  CD2      -34.9650  -42.2610   -0.4630 C.3   427  LEU427      0.0001
     17  N        -28.4920  -46.4060   -0.8530 N.3   431  TYR431     -0.1241
     18  CA       -29.2550  -45.2860   -1.4850 C.3   431  TYR431      0.1605
     19  C        -30.5220  -45.8530   -2.1750 C.2   431  TYR431      0.2264
     20  O        -30.8230  -45.5090   -3.3130 O.2   431  TYR431     -0.2867
     21  CB       -28.2490  -44.5850   -2.4010 C.3   431  TYR431      0.0534
     22  CG       -28.5390  -43.2920   -3.0730 C.ar  431  TYR431     -0.0201
     23  CD1      -29.4220  -42.3680   -2.5680 C.ar  431  TYR431     -0.0009
     24  CD2      -27.8150  -42.9540   -4.1980 C.ar  431  TYR431     -0.0009
     25  CE1      -29.6190  -41.1430   -3.2140 C.ar  431  TYR431      0.0417
     26  CE2      -27.9900  -41.7480   -4.8480 C.ar  431  TYR431      0.0417
     27  CZ       -28.8910  -40.8460   -4.3690 C.ar  431  TYR431      0.1957
     28  OH       -29.0470  -39.6590   -5.0600 O.3   431  TYR431     -0.2866
     29  N        -34.6090  -46.9540   -2.5050 N.3   433  ASP433     -0.1239
     30  CA       -35.9730  -46.6200   -2.1440 C.3   433  ASP433      0.1674
     31  C        -36.7280  -47.9240   -2.2940 C.2   433  ASP433      0.2266
     32  O        -37.3250  -48.1590   -3.3370 O.2   433  ASP433     -0.2867
     33  CB       -36.5500  -45.5030   -3.0540 C.3   433  ASP433      0.1410
     34  CG       -37.8230  -44.8920   -2.5050 C.2   433  ASP433      0.3668
     35  OD1      -38.3840  -45.4840   -1.5640 O.co2 433  ASP433     -0.2456
     36  OD2      -38.3000  -43.8140   -2.9770 O.co2 433  ASP433     -0.2456
     37  N        -35.1880  -46.9170  -11.2740 N.3   607  ARG607     -0.1245
     38  CA       -34.0410  -46.2060  -10.7210 C.3   607  ARG607      0.1563
     39  C        -32.9220  -47.1760  -10.3840 C.2   607  ARG607      0.2260
     40  O        -33.1720  -48.3000   -9.9950 O.2   607  ARG607     -0.2867
     41  CB       -34.4710  -45.4630   -9.4390 C.3   607  ARG607      0.0307
     42  CG       -33.4460  -44.6010   -8.7080 C.3   607  ARG607      0.0489
     43  CD       -34.1240  -43.9160   -7.5270 C.3   607  ARG607      0.2205
     44  NE       -33.1540  -43.3280   -6.6250 N.pl3 607  ARG607     -0.0865
     45  CZ       -32.4630  -43.9800   -5.6940 C.cat 607  ARG607      0.5346
     46  NH1      -32.6560  -45.2550   -5.4850 N.pl3 607  ARG607      0.1354
     47  NH2      -31.5730  -43.3360   -4.9410 N.pl3 607  ARG607      0.1354
     48  N        -38.5590  -46.5740   -6.9530 N.3   617  ALA617     -0.1245
     49  CA       -38.7760  -45.4040   -7.8240 C.3   617  ALA617      0.1562
     50  C        -38.9220  -45.9070   -9.2510 C.2   617  ALA617      0.2260
     51  O        -37.9280  -46.1290   -9.9520 O.2   617  ALA617     -0.2867
     52  CB       -37.6410  -44.3960   -7.7160 C.3   617  ALA617      0.0290
     53  N        -40.1860  -44.7630  -12.6550 N.3   619  GLN619     -0.1245
     54  CA       -40.3120  -43.4250  -13.1920 C.3   619  GLN619      0.1566
     55  C        -39.9930  -43.3600  -14.6970 C.2   619  GLN619      0.2260
     56  O        -39.2830  -44.2530  -15.2220 O.2   619  GLN619     -0.2867
     57  CB       -39.3610  -42.5080  -12.4300 C.3   619  GLN619      0.0367
     58  CG       -39.6960  -42.3420  -10.9580 C.3   619  GLN619      0.0905
     59  CD       -39.1080  -41.0870  -10.3660 C.2   619  GLN619      0.2608
     60  OE1      -38.7130  -40.1630  -11.0920 O.2   619  GLN619     -0.2717
     61  NE2      -39.0360  -41.0460   -9.0420 N.am  619  GLN619     -0.0878
     62  N        -38.3810  -40.7490  -16.1640 N.3   621  ARG621     -0.1245
     63  CA       -36.9430  -40.4690  -16.0860 C.3   621  ARG621      0.1563
     64  C        -36.0580  -41.5000  -16.7520 C.2   621  ARG621      0.2260
     65  O        -35.1260  -41.1350  -17.4270 O.2   621  ARG621     -0.2867
     66  CB       -36.5650  -40.5280  -14.6120 C.3   621  ARG621      0.0307
     67  CG       -35.7090  -39.4270  -14.1150 C.3   621  ARG621      0.0489
     68  CD       -35.8360  -39.3180  -12.6070 C.3   621  ARG621      0.2205
     69  NE       -34.9170  -40.1850  -11.8920 N.pl3 621  ARG621     -0.0865
     70  CZ       -34.8310  -40.2330  -10.5650 C.cat 621  ARG621      0.5346
     71  NH1      -35.6430  -39.5090   -9.8050 N.pl3 621  ARG621      0.1354
     72  NH2      -33.9290  -41.0080   -9.9850 N.pl3 621  ARG621      0.1354
     73  N        -45.1100  -41.2890   -8.3110 N.3   660  PRO660     -0.2102
     74  CA       -43.6770  -41.3040   -7.9330 C.3   660  PRO660      0.1504
     75  C        -43.3730  -40.4760   -6.6540 C.2   660  PRO660      0.2575
     76  O        -42.4970  -40.8240   -5.8630 O.2   660  PRO660     -0.2718
     77  CB       -42.9940  -40.7590   -9.1890 C.3   660  PRO660      0.0282
     78  CG       -44.0390  -39.9050   -9.8550 C.3   660  PRO660      0.0208
     79  CD       -45.3480  -40.5870   -9.5870 C.3   660  PRO660      0.0893
     80  N        -44.1570  -39.4380   -6.4250 N.am  661  GLN661     -0.1980
     81  CA       -44.0910  -38.6540   -5.1920 C.3   661  GLN661      0.1601
     82  C        -44.8510  -39.2680   -3.9790 C.2   661  GLN661      0.2287
     83  O        -44.8720  -38.6750   -2.8980 O.2   661  GLN661     -0.2864
     84  CB       -44.5980  -37.2180   -5.4650 C.3   661  GLN661      0.0394
     85  CG       -43.8070  -36.3620   -6.4880 C.3   661  GLN661      0.0908
     86  CD       -42.2850  -36.5910   -6.4030 C.2   661  GLN661      0.2608
     87  OE1      -41.5630  -35.9920   -5.5970 O.2   661  GLN661     -0.2717
     88  NE2      -41.8120  -37.4900   -7.2170 N.am  661  GLN661     -0.0878
     89  N        -44.4090  -40.9460   -1.4730 N.3   663  LYS663     -0.1231
     90  CA       -43.7930  -41.0170   -0.1360 C.3   663  LYS663      0.1693
     91  C        -43.2630  -39.6890    0.3980 C.2   663  LYS663      0.2591
     92  O        -42.9260  -39.5940    1.5860 O.2   663  LYS663     -0.2718
     93  CB       -42.6220  -42.0160   -0.1240 C.3   663  LYS663      0.0285
     94  CG       -42.8830  -43.3400   -0.8080 C.3   663  LYS663      0.0035
     95  CD       -41.6510  -44.2210   -0.6190 C.3   663  LYS663      0.0206
     96  CE       -41.7830  -45.5490   -1.3490 C.3   663  LYS663      0.1093
     97  NZ       -40.6380  -46.4430   -1.0870 N.3   663  LYS663     -0.1314
     98  N        -43.1600  -38.6780   -0.4580 N.am  664  VAL664     -0.1980
     99  CA       -42.4990  -37.4320   -0.0480 C.3   664  VAL664      0.1595
    100  C        -43.4270  -36.2400   -0.1190 C.2   664  VAL664      0.2287
    101  O        -43.3310  -35.3330    0.6880 O.2   664  VAL664     -0.2864
    102  CB       -41.1410  -37.2150   -0.7870 C.3   664  VAL664      0.0276
    103  CG1      -40.1480  -38.2850   -0.3580 C.3   664  VAL664      0.0022
    104  CG2      -41.2820  -37.2470   -2.3130 C.3   664  VAL664      0.0022
    105  N        -33.0250  -32.3020   -9.5790 N.3   756  LEU756     -0.1245
    106  CA       -33.2340  -33.3390  -10.5820 C.3   756  LEU756      0.1561
    107  C        -34.0070  -32.9480  -11.8130 C.2   756  LEU756      0.2260
    108  O        -33.8980  -33.6480  -12.7970 O.2   756  LEU756     -0.2867
    109  CB       -33.9880  -34.5180   -9.9870 C.3   756  LEU756      0.0270
    110  CG       -33.3670  -35.2870   -8.8220 C.3   756  LEU756      0.0019
    111  CD1      -34.2360  -36.5280   -8.6220 C.3   756  LEU756      0.0001
    112  CD2      -31.9050  -35.6940   -8.9750 C.3   756  LEU756      0.0001
@<TRIPOS>BOND
     1    65    64    2
     2    64    63    1
     3    62    63    1
     4    63    66    1
     5    56    55    2
     6    55    54    1
     7    66    67    1
     8    67    68    1
     9    54    53    1
    10    54    57    1
    11   108   107    2
    12    68    69    1
    13    57    58    1
    14    69    70    2
    15   107   106    1
    16    37    38    1
    17    60    59    2
    18    58    59    1
    19    38    39    1
    20    38    41    1
    21   106   109    1
    22   106   105    1
    23    70    72    1
    24    70    71    1
    25    39    40    2
    26    59    61   am
    27   109   110    1
    28    51    50    2
    29    78    79    1
    30    78    77    1
    31    79    73    1
    32    41    42    1
    33    50    49    1
    34    77    74    1
    35   112   110    1
    36   110   111    1
    37    42    43    1
    38    73    74    1
    39    74    75    1
    40    49    52    1
    41    49    48    1
    42    43    44    1
    43    88    86   am
    44    75    80   am
    45    75    76    2
    46    44    45    2
    47    85    86    1
    48    85    84    1
    49    80    81    1
    50    86    87    2
    51    45    46    1
    52    45    47    1
    53    84    81    1
    54    81    82    1
    55    28    27    1
    56    26    27   ar
    57    26    24   ar
    58    27    25   ar
    59    24    22   ar
    60    82    83    2
    61    32    31    2
    62    20    19    2
    63    25    23   ar
    64    22    23   ar
    65    22    21    1
    66    33    34    1
    67    33    30    1
    68    36    34   ar
    69    34    35   ar
    70    29    30    1
    71    21    18    1
    72   104   102    1
    73    31    30    1
    74    19    18    1
    75    18    17    1
    76    89    90    1
    77    96    97    1
    78    96    95    1
    79    15    14    1
    80    94    95    1
    81    94    93    1
    82   102   103    1
    83   102    99    1
    84    16    14    1
    85    98    99    1
    86    98    91   am
    87    90    93    1
    88    90    91    1
    89   100    99    1
    90   100   101    2
    91    14    13    1
    92    91    92    2
    93    13    10    1
    94    12    11    2
    95     8     6    1
    96    10    11    1
    97    10     9    1
    98     6     7    1
    99     6     5    1
   100     2     1    1
   101     2     5    1
   102     2     3    1
   103     4     3    2
