@<TRIPOS>MOLECULE
tmp/5xqjF00.pdb
 104 99 0 0 0
SMALL
GASTEIGER

@<TRIPOS>ATOM
      1  N        -33.2490  -45.6350    2.6770 N.3   427  LEU427     -0.1231
      2  CA       -32.7410  -44.7930    1.5980 C.3   427  LEU427      0.1693
      3  C        -31.6250  -43.9030    2.0750 C.2   427  LEU427      0.2591
      4  O        -30.8150  -43.5090    1.2880 O.2   427  LEU427     -0.2718
      5  CB       -33.9000  -43.9560    1.0140 C.3   427  LEU427      0.0284
      6  CG       -33.6420  -42.8580    0.0010 C.3   427  LEU427      0.0019
      7  CD1      -32.8750  -43.4340   -1.1630 C.3   427  LEU427      0.0001
      8  CD2      -34.9650  -42.2610   -0.4630 C.3   427  LEU427      0.0001
      9  N        -31.5900  -43.5760    3.3560 N.am  428  GLU428     -0.1979
     10  CA       -30.5870  -42.6620    3.8870 C.3   428  GLU428      0.1602
     11  C        -29.2290  -43.3060    4.1870 C.2   428  GLU428      0.2287
     12  O        -28.2830  -42.5760    4.4550 O.2   428  GLU428     -0.2864
     13  CB       -31.1240  -41.8820    5.1120 C.3   428  GLU428      0.0415
     14  CG       -32.2650  -40.9020    4.7990 C.3   428  GLU428      0.1163
     15  CD       -31.8490  -39.6710    3.9990 C.2   428  GLU428      0.3649
     16  OE1      -30.6380  -39.3860    3.8170 O.co2 428  GLU428     -0.2457
     17  OE2      -32.7540  -38.9600    3.5450 O.co2 428  GLU428     -0.2457
     18  N        -28.4920  -46.4060   -0.8530 N.3   431  TYR431     -0.1241
     19  CA       -29.2550  -45.2860   -1.4850 C.3   431  TYR431      0.1605
     20  C        -30.5220  -45.8530   -2.1750 C.2   431  TYR431      0.2264
     21  O        -30.8230  -45.5090   -3.3130 O.2   431  TYR431     -0.2867
     22  CB       -28.2490  -44.5850   -2.4010 C.3   431  TYR431      0.0534
     23  CG       -28.5390  -43.2920   -3.0730 C.ar  431  TYR431     -0.0201
     24  CD1      -29.4220  -42.3680   -2.5680 C.ar  431  TYR431     -0.0009
     25  CD2      -27.8150  -42.9540   -4.1980 C.ar  431  TYR431     -0.0009
     26  CE1      -29.6190  -41.1430   -3.2140 C.ar  431  TYR431      0.0417
     27  CE2      -27.9900  -41.7480   -4.8480 C.ar  431  TYR431      0.0417
     28  CZ       -28.8910  -40.8460   -4.3690 C.ar  431  TYR431      0.1957
     29  OH       -29.0470  -39.6590   -5.0600 O.3   431  TYR431     -0.2866
     30  N        -34.6090  -46.9540   -2.5050 N.3   433  ASP433     -0.1239
     31  CA       -35.9730  -46.6200   -2.1440 C.3   433  ASP433      0.1674
     32  C        -36.7280  -47.9240   -2.2940 C.2   433  ASP433      0.2266
     33  O        -37.3250  -48.1590   -3.3370 O.2   433  ASP433     -0.2867
     34  CB       -36.5500  -45.5030   -3.0540 C.3   433  ASP433      0.1410
     35  CG       -37.8230  -44.8920   -2.5050 C.2   433  ASP433      0.3668
     36  OD1      -38.3840  -45.4840   -1.5640 O.co2 433  ASP433     -0.2456
     37  OD2      -38.3000  -43.8140   -2.9770 O.co2 433  ASP433     -0.2456
     38  N        -29.0960  -42.8650  -14.8870 N.3   560  GLU560     -0.1245
     39  CA       -29.2050  -41.8050  -13.8890 C.3   560  GLU560      0.1567
     40  C        -28.2870  -40.6090  -14.2470 C.2   560  GLU560      0.2260
     41  O        -27.0670  -40.7420  -14.5040 O.2   560  GLU560     -0.2867
     42  CB       -28.8790  -42.3940  -12.5080 C.3   560  GLU560      0.0388
     43  CG       -28.8290  -41.4320  -11.3470 C.3   560  GLU560      0.1160
     44  CD       -30.1520  -40.8640  -10.9420 C.2   560  GLU560      0.3649
     45  OE1      -30.0880  -39.9460  -10.1020 O.co2 560  GLU560     -0.2457
     46  OE2      -31.2370  -41.3270  -11.4170 O.co2 560  GLU560     -0.2457
     47  N        -35.1880  -46.9170  -11.2740 N.3   607  ARG607     -0.1231
     48  CA       -34.0410  -46.2060  -10.7210 C.3   607  ARG607      0.1694
     49  C        -32.9220  -47.1760  -10.3840 C.2   607  ARG607      0.2592
     50  O        -33.1720  -48.3000   -9.9950 O.2   607  ARG607     -0.2718
     51  CB       -34.4710  -45.4630   -9.4390 C.3   607  ARG607      0.0321
     52  CG       -33.4460  -44.6010   -8.7080 C.3   607  ARG607      0.0489
     53  CD       -34.1240  -43.9160   -7.5270 C.3   607  ARG607      0.2205
     54  NE       -33.1540  -43.3280   -6.6250 N.pl3 607  ARG607     -0.0865
     55  CZ       -32.4630  -43.9800   -5.6940 C.cat 607  ARG607      0.5346
     56  NH1      -32.6560  -45.2550   -5.4850 N.pl3 607  ARG607      0.1354
     57  NH2      -31.5730  -43.3360   -4.9410 N.pl3 607  ARG607      0.1354
     58  N        -31.6990  -46.7140  -10.6320 N.am  608  HIS608     -0.1976
     59  CA       -30.4470  -47.3750  -10.2720 C.3   608  HIS608      0.1656
     60  C        -30.5040  -48.2420   -9.0360 C.2   608  HIS608      0.2291
     61  O        -31.1660  -47.8830   -8.0610 O.2   608  HIS608     -0.2864
     62  CB       -29.3260  -46.3380  -10.1140 C.3   608  HIS608      0.0771
     63  CG       -29.7210  -45.0930   -9.3750 C.ar  608  HIS608      0.0820
     64  ND1      -29.2970  -44.8270   -8.1000 N.ar  608  HIS608     -0.2267
     65  CD2      -30.4610  -44.0190   -9.7490 C.ar  608  HIS608      0.1154
     66  CE1      -29.7750  -43.6590   -7.7100 C.ar  608  HIS608      0.1986
     67  NE2      -30.4950  -43.1530   -8.6880 N.ar  608  HIS608     -0.2212
     68  N        -38.3810  -40.7490  -16.1640 N.3   621  ARG621     -0.1245
     69  CA       -36.9430  -40.4690  -16.0860 C.3   621  ARG621      0.1563
     70  C        -36.0580  -41.5000  -16.7520 C.2   621  ARG621      0.2260
     71  O        -35.1260  -41.1350  -17.4270 O.2   621  ARG621     -0.2867
     72  CB       -36.5650  -40.5280  -14.6120 C.3   621  ARG621      0.0307
     73  CG       -35.7090  -39.4270  -14.1150 C.3   621  ARG621      0.0489
     74  CD       -35.8360  -39.3180  -12.6070 C.3   621  ARG621      0.2205
     75  NE       -34.9170  -40.1850  -11.8920 N.pl3 621  ARG621     -0.0865
     76  CZ       -34.8310  -40.2330  -10.5650 C.cat 621  ARG621      0.5346
     77  NH1      -35.6430  -39.5090   -9.8050 N.pl3 621  ARG621      0.1354
     78  NH2      -33.9290  -41.0080   -9.9850 N.pl3 621  ARG621      0.1354
     79  N        -33.2730  -30.2030   -7.8500 N.3   755  HIS755     -0.1226
     80  CA       -32.0180  -30.2780   -8.6180 C.3   755  HIS755      0.1752
     81  C        -32.1110  -31.3360   -9.7220 C.2   755  HIS755      0.2595
     82  O        -31.3940  -31.2560  -10.7010 O.2   755  HIS755     -0.2718
     83  CB       -30.8140  -30.5030   -7.6940 C.3   755  HIS755      0.0759
     84  CG       -30.8430  -31.8100   -6.9570 C.ar  755  HIS755      0.0818
     85  ND1      -31.5720  -32.0020   -5.8030 N.ar  755  HIS755     -0.2268
     86  CD2      -30.2540  -32.9970   -7.2240 C.ar  755  HIS755      0.1154
     87  CE1      -31.4330  -33.2480   -5.3930 C.ar  755  HIS755      0.1986
     88  NE2      -30.6440  -33.8760   -6.2430 N.ar  755  HIS755     -0.2212
     89  N        -33.0250  -32.3020   -9.5790 N.am  756  LEU756     -0.1980
     90  CA       -33.2340  -33.3390  -10.5820 C.3   756  LEU756      0.1596
     91  C        -34.0070  -32.9480  -11.8130 C.2   756  LEU756      0.2287
     92  O        -33.8980  -33.6480  -12.7970 O.2   756  LEU756     -0.2864
     93  CB       -33.9880  -34.5180   -9.9870 C.3   756  LEU756      0.0297
     94  CG       -33.3670  -35.2870   -8.8220 C.3   756  LEU756      0.0022
     95  CD1      -34.2360  -36.5280   -8.6220 C.3   756  LEU756      0.0001
     96  CD2      -31.9050  -35.6940   -8.9750 C.3   756  LEU756      0.0001
     97  N        -22.7990  -39.9290  -12.0100 N.3   875  ASN875     -0.1240
     98  CA       -23.5310  -38.6720  -12.0270 C.3   875  ASN875      0.1653
     99  C        -22.6650  -37.4920  -12.4760 C.2   875  ASN875      0.2266
    100  O        -23.1110  -36.6690  -13.2810 O.2   875  ASN875     -0.2867
    101  CB       -24.2070  -38.4430  -10.6790 C.3   875  ASN875      0.1155
    102  CG       -25.4290  -39.3700  -10.4910 C.2   875  ASN875      0.2627
    103  OD1      -25.7540  -40.2170  -11.3700 O.2   875  ASN875     -0.2716
    104  ND2      -26.1210  -39.2010   -9.3820 N.am  875  ASN875     -0.0877
@<TRIPOS>BOND
     1    71    70    2
     2    70    69    1
     3    68    69    1
     4    69    72    1
     5    38    39    1
     6    72    73    1
     7    41    40    2
     8    40    39    1
     9    73    74    1
    10    39    42    1
    11   100    99    2
    12    92    91    2
    13    74    75    1
    14    42    43    1
    15    99    98    1
    16    98    97    1
    17    98   101    1
    18    75    76    2
    19    91    90    1
    20    46    44   ar
    21   103   102    2
    22    43    44    1
    23    47    48    1
    24    44    45   ar
    25    48    49    1
    26    48    51    1
    27    82    81    2
    28   101   102    1
    29    58    49   am
    30    58    59    1
    31    90    93    1
    32    90    89    1
    33    76    78    1
    34    76    77    1
    35   102   104   am
    36    49    50    2
    37    59    62    1
    38    59    60    1
    39    62    63    1
    40    93    94    1
    41    65    63   ar
    42    65    67   ar
    43    81    89   am
    44    81    80    1
    45    51    52    1
    46    63    64   ar
    47    60    61    2
    48    96    94    1
    49    94    95    1
    50    52    53    1
    51    67    66   ar
    52    80    79    1
    53    80    83    1
    54    64    66   ar
    55    83    84    1
    56    53    54    1
    57    86    84   ar
    58    86    88   ar
    59    84    85   ar
    60    54    55    2
    61    88    87   ar
    62    85    87   ar
    63    55    56    1
    64    55    57    1
    65    29    28    1
    66    27    28   ar
    67    27    25   ar
    68    28    26   ar
    69    25    23   ar
    70    33    32    2
    71    21    20    2
    72    26    24   ar
    73    23    24   ar
    74    23    22    1
    75    34    35    1
    76    34    31    1
    77    37    35   ar
    78    30    31    1
    79    35    36   ar
    80    22    19    1
    81    32    31    1
    82    20    19    1
    83    19    18    1
    84     7     6    1
    85     8     6    1
    86     6     5    1
    87     5     2    1
    88     4     3    2
    89     2     3    1
    90     2     1    1
    91     3     9   am
    92     9    10    1
    93    17    15   ar
    94    16    15   ar
    95    10    11    1
    96    10    13    1
    97    15    14    1
    98    11    12    2
    99    14    13    1
