@<TRIPOS>MOLECULE
tmp/5xqkA00.pdb
 158 149 0 0 0
SMALL
GASTEIGER

@<TRIPOS>ATOM
      1  N        -24.8380  -34.2170   24.0170 N.3    25  HIS25      -0.1241
      2  CA       -25.3280  -35.5190   24.4430 C.3    25  HIS25       0.1621
      3  C        -24.5730  -36.6260   23.7240 C.2    25  HIS25       0.2264
      4  O        -24.8320  -36.8950   22.5530 O.2    25  HIS25      -0.2867
      5  CB       -26.8220  -35.6190   24.1440 C.3    25  HIS25       0.0745
      6  CG       -27.6470  -34.5630   24.8030 C.ar   25  HIS25       0.0817
      7  ND1      -27.7190  -33.2600   24.3470 N.ar   25  HIS25      -0.2268
      8  CD2      -28.4760  -34.6420   25.8660 C.ar   25  HIS25       0.1154
      9  CE1      -28.5330  -32.5780   25.1340 C.ar   25  HIS25       0.1986
     10  NE2      -29.0080  -33.3930   26.0590 N.ar   25  HIS25      -0.2212
     11  N        -26.5200  -41.4890   23.6000 N.3    28  ALA28      -0.1245
     12  CA       -27.2890  -42.1390   22.5590 C.3    28  ALA28       0.1562
     13  C        -26.5150  -42.2240   21.2320 C.2    28  ALA28       0.2260
     14  O        -26.6060  -43.2370   20.5580 O.2    28  ALA28      -0.2867
     15  CB       -28.6640  -41.4930   22.3930 C.3    28  ALA28       0.0290
     16  N        -35.2870  -38.8410   18.7720 N.3    62  ASN62      -0.1240
     17  CA       -34.5070  -38.5250   19.9640 C.3    62  ASN62       0.1653
     18  C        -33.4680  -37.4850   19.5630 C.2    62  ASN62       0.2266
     19  O        -32.2790  -37.7740   19.4330 O.2    62  ASN62      -0.2867
     20  CB       -33.9080  -39.7850   20.6130 C.3    62  ASN62       0.1155
     21  CG       -33.2120  -40.7360   19.6560 C.2    62  ASN62       0.2627
     22  OD1      -33.3600  -40.6820   18.4310 O.2    62  ASN62      -0.2716
     23  ND2      -32.4310  -41.6500   20.2380 N.am   62  ASN62      -0.0877
     24  N        -31.9220  -34.9450   20.7570 N.3    64  HIS64      -0.1241
     25  CA       -30.7250  -34.6700   21.5390 C.3    64  HIS64       0.1621
     26  C        -29.5210  -35.4610   21.0560 C.2    64  HIS64       0.2264
     27  O        -28.3880  -35.0210   21.2650 O.2    64  HIS64      -0.2867
     28  CB       -30.9690  -34.9240   23.0200 C.3    64  HIS64       0.0745
     29  CG       -31.3270  -36.3330   23.3600 C.ar   64  HIS64       0.0817
     30  ND1      -32.6160  -36.8220   23.3110 N.ar   64  HIS64      -0.2268
     31  CD2      -30.5480  -37.3510   23.7910 C.ar   64  HIS64       0.1154
     32  CE1      -32.6080  -38.0850   23.6900 C.ar   64  HIS64       0.1986
     33  NE2      -31.3650  -38.4340   23.9770 N.ar   64  HIS64      -0.2212
     34  N        -23.2450  -26.6550   18.3060 N.3    89  ARG89      -0.1245
     35  CA       -23.8330  -25.8800   19.3970 C.3    89  ARG89       0.1563
     36  C        -23.2780  -24.4600   19.5310 C.2    89  ARG89       0.2260
     37  O        -23.4880  -23.8260   20.5640 O.2    89  ARG89      -0.2867
     38  CB       -23.7610  -26.6490   20.7360 C.3    89  ARG89       0.0307
     39  CG       -24.7900  -27.7550   20.8240 C.3    89  ARG89       0.0489
     40  CD       -24.5790  -28.7070   22.0190 C.3    89  ARG89       0.2205
     41  NE       -25.7630  -29.5310   22.1500 N.pl3  89  ARG89      -0.0865
     42  CZ       -26.7670  -29.3330   23.0000 C.cat  89  ARG89       0.5346
     43  NH1      -26.6370  -28.5310   24.0500 N.pl3  89  ARG89       0.1354
     44  NH2      -27.9110  -29.9910   22.8170 N.pl3  89  ARG89       0.1354
     45  N        -30.1020  -29.1430   18.6520 N.3    98  HIS98      -0.1241
     46  CA       -31.1260  -30.0910   18.2100 C.3    98  HIS98       0.1621
     47  C        -31.3350  -29.8300   16.7090 C.2    98  HIS98       0.2264
     48  O        -31.1310  -28.7090   16.2460 O.2    98  HIS98      -0.2867
     49  CB       -32.4130  -29.9290   19.0300 C.3    98  HIS98       0.0745
     50  CG       -32.2340  -30.3350   20.4580 C.ar   98  HIS98       0.0817
     51  ND1      -31.7640  -29.4780   21.4310 N.ar   98  HIS98      -0.2268
     52  CD2      -32.3440  -31.5490   21.0530 C.ar   98  HIS98       0.1154
     53  CE1      -31.6420  -30.1470   22.5680 C.ar   98  HIS98       0.1986
     54  NE2      -31.9920  -31.4020   22.3680 N.ar   98  HIS98      -0.2212
     55  N        -36.1020  -32.6310   18.9920 N.3   112  GLY112     -0.1210
     56  CA       -35.6190  -32.0850   20.2650 C.3   112  GLY112      0.1940
     57  C        -36.7130  -32.1150   21.3160 C.2   112  GLY112      0.2454
     58  O        -36.5010  -32.5860   22.4300 O.2   112  GLY112     -0.2732
     59  N        -37.9140  -31.6590   20.9620 N.am  113  PRO113     -0.2717
     60  CA       -39.0870  -31.8960   21.8100 C.3   113  PRO113      0.1535
     61  C        -39.5010  -33.3550   21.6190 C.2   113  PRO113      0.2598
     62  O        -39.8480  -33.7750   20.5200 O.2   113  PRO113     -0.2715
     63  CB       -40.1130  -30.8790   21.2830 C.3   113  PRO113      0.0310
     64  CG       -39.2690  -29.8500   20.5800 C.3   113  PRO113      0.0237
     65  CD       -38.2220  -30.6810   19.9130 C.3   113  PRO113      0.0939
     66  N        -39.4110  -34.1380   22.6880 N.am  114  LEU114     -0.1978
     67  CA       -39.5680  -35.5830   22.5900 C.3   114  LEU114      0.1596
     68  C        -40.9550  -35.9710   22.1160 C.2   114  LEU114      0.2287
     69  O        -41.9540  -35.3080   22.4110 O.2   114  LEU114     -0.2864
     70  CB       -39.2490  -36.2370   23.9410 C.3   114  LEU114      0.0297
     71  CG       -37.7600  -36.1390   24.3230 C.3   114  LEU114      0.0022
     72  CD1      -37.5710  -36.2890   25.8190 C.3   114  LEU114      0.0001
     73  CD2      -36.9200  -37.1820   23.5940 C.3   114  LEU114      0.0001
     74  N        -36.2330  -42.9540   21.3290 N.3   152  GLY152     -0.1210
     75  CA       -35.8050  -43.4580   22.6240 C.3   152  GLY152      0.1956
     76  C        -36.9430  -43.6320   23.6000 C.2   152  GLY152      0.2612
     77  O        -38.1360  -43.4690   23.2830 O.2   152  GLY152     -0.2717
     78  N        -36.5640  -43.9360   24.8360 N.am  153  ASP153     -0.1959
     79  CA       -37.5350  -44.1510   25.8960 C.3   153  ASP153      0.1840
     80  C        -38.3900  -42.9140   26.1440 C.2   153  ASP153      0.2622
     81  O        -39.5850  -43.0250   26.4250 O.2   153  ASP153     -0.2715
     82  CB       -36.8300  -44.5470   27.1990 C.3   153  ASP153      0.1450
     83  CG       -35.9780  -45.7940   27.0510 C.2   153  ASP153      0.3671
     84  OD1      -36.5160  -46.8180   26.5700 O.co2 153  ASP153     -0.2456
     85  OD2      -34.7860  -45.7320   27.4230 O.co2 153  ASP153     -0.2456
     86  N        -37.7880  -41.7340   26.0570 N.am  154  GLY154     -0.1954
     87  CA       -38.5480  -40.5120   26.2680 C.3   154  GLY154      0.1869
     88  C        -39.6430  -40.3240   25.2490 C.2   154  GLY154      0.2309
     89  O        -40.7600  -39.9340   25.6010 O.2   154  GLY154     -0.2863
     90  N        -43.9180  -40.1130   25.9620 N.3   158  GLU158     -0.1245
     91  CA       -44.7480  -38.9820   25.5670 C.3   158  GLU158      0.1567
     92  C        -46.0290  -39.4600   24.9110 C.2   158  GLU158      0.2260
     93  O        -45.9890  -40.2250   23.9470 O.2   158  GLU158     -0.2867
     94  CB       -43.9770  -38.0750   24.6080 C.3   158  GLU158      0.0388
     95  CG       -42.9560  -37.1870   25.2970 C.3   158  GLU158      0.1160
     96  CD       -43.5630  -36.0690   26.1190 C.2   158  GLU158      0.3649
     97  OE1      -44.8020  -35.9430   26.2130 O.co2 158  GLU158     -0.2457
     98  OE2      -42.7270  -35.2900   26.6690 O.co2 158  GLU158     -0.2457
     99  N        -34.3980  -47.2900   20.7270 N.3   181  ASP181     -0.1239
    100  CA       -33.1380  -47.3800   21.4390 C.3   181  ASP181      0.1674
    101  C        -33.4220  -47.8630   22.8660 C.2   181  ASP181      0.2266
    102  O        -33.6860  -47.0720   23.7770 O.2   181  ASP181     -0.2867
    103  CB       -32.4260  -46.0360   21.4590 C.3   181  ASP181      0.1410
    104  CG       -31.0230  -46.1290   22.0090 C.2   181  ASP181      0.3668
    105  OD1      -30.5720  -47.2690   22.2250 O.co2 181  ASP181     -0.2456
    106  OD2      -30.3990  -45.0710   22.2290 O.co2 181  ASP181     -0.2456
    107  N        -32.2200  -48.7880   25.8160 N.3   183  ASN183     -0.1240
    108  CA       -31.0250  -48.6920   26.6450 C.3   183  ASN183      0.1653
    109  C        -31.3190  -48.5800   28.1390 C.2   183  ASN183      0.2266
    110  O        -30.3900  -48.5320   28.9500 O.2   183  ASN183     -0.2867
    111  CB       -30.0980  -47.5780   26.1590 C.3   183  ASN183      0.1155
    112  CG       -30.7110  -46.1930   26.2660 C.2   183  ASN183      0.2627
    113  OD1      -31.6730  -45.9720   27.0080 O.2   183  ASN183     -0.2716
    114  ND2      -30.1380  -45.2420   25.5320 N.am  183  ASN183     -0.0877
    115  N        -32.2420  -46.3520   30.1490 N.3   185  ILE185     -0.1231
    116  CA       -31.7280  -45.1700   30.8500 C.3   185  ILE185      0.1692
    117  C        -32.4110  -43.9190   30.3090 C.2   185  ILE185      0.2593
    118  O        -32.4860  -43.7360   29.0880 O.2   185  ILE185     -0.2718
    119  CB       -30.1920  -45.0350   30.6760 C.3   185  ILE185      0.0266
    120  CG1      -29.4530  -46.1560   31.4200 C.3   185  ILE185      0.0019
    121  CG2      -29.6820  -43.6650   31.1100 C.3   185  ILE185      0.0020
    122  CD1      -29.4770  -46.0610   32.9310 C.3   185  ILE185      0.0001
    123  N        -32.8870  -43.0570   31.1980 N.am  186  SER186     -0.1938
    124  CA       -33.3190  -41.7190   30.8360 C.3   186  SER186      0.2055
    125  C        -32.6580  -40.7400   31.8110 C.2   186  SER186      0.2642
    126  O        -31.7640  -41.1250   32.5590 O.2   186  SER186     -0.2714
    127  CB       -34.8440  -41.6320   30.8140 C.3   186  SER186      0.2130
    128  OG       -35.4050  -41.7460   32.1070 O.3   186  SER186     -0.2179
    129  N        -33.0660  -39.4780   31.8230 N.am  187  ILE187     -0.1977
    130  CA       -32.3650  -38.4920   32.6590 C.3   187  ILE187      0.1596
    131  C        -32.4310  -38.8260   34.1440 C.2   187  ILE187      0.2287
    132  O        -31.4430  -38.6610   34.8650 O.2   187  ILE187     -0.2864
    133  CB       -32.8660  -37.0700   32.3820 C.3   187  ILE187      0.0276
    134  CG1      -32.2740  -36.5920   31.0540 C.3   187  ILE187      0.0022
    135  CG2      -32.4730  -36.0950   33.4940 C.3   187  ILE187      0.0022
    136  CD1      -32.7730  -35.2450   30.6000 C.3   187  ILE187      0.0001
    137  N        -26.2610  -47.4320   26.5400 N.3   246  ILE246     -0.1245
    138  CA       -26.0800  -45.9940   26.3750 C.3   246  ILE246      0.1561
    139  C        -24.6070  -45.6740   26.6140 C.2   246  ILE246      0.2260
    140  O        -23.9760  -46.2030   27.5330 O.2   246  ILE246     -0.2867
    141  CB       -27.0230  -45.1680   27.2730 C.3   246  ILE246      0.0252
    142  CG1      -27.0650  -43.7180   26.7720 C.3   246  ILE246      0.0019
    143  CG2      -26.6440  -45.2770   28.7490 C.3   246  ILE246      0.0019
    144  CD1      -28.0210  -42.8230   27.5300 C.3   246  ILE246      0.0001
    145  N        -25.7210  -39.6510   29.3580 N.3   259  HIS259     -0.1226
    146  CA       -26.8060  -39.1700   28.4920 C.3   259  HIS259      0.1752
    147  C        -26.5210  -37.7950   27.9110 C.2   259  HIS259      0.2596
    148  O        -26.6760  -37.6020   26.7170 O.2   259  HIS259     -0.2718
    149  CB       -28.1700  -39.1490   29.2300 C.3   259  HIS259      0.0759
    150  CG       -29.1550  -38.1650   28.6630 C.ar  259  HIS259      0.0818
    151  ND1      -29.9340  -38.4480   27.5680 N.ar  259  HIS259     -0.2268
    152  CD2      -29.4760  -36.9000   29.0300 C.ar  259  HIS259      0.1154
    153  CE1      -30.6760  -37.4000   27.2670 C.ar  259  HIS259      0.1986
    154  NE2      -30.4210  -36.4480   28.1400 N.ar  259  HIS259     -0.2212
    155  N        -26.1260  -36.8550   28.7730 N.am  260  GLY260     -0.1957
    156  CA       -26.3390  -35.4420   28.4950 C.3   260  GLY260      0.1869
    157  C        -25.2490  -34.4790   28.8450 C.2   260  GLY260      0.2309
    158  O        -25.5070  -33.2840   28.9150 O.2   260  GLY260     -0.2863
@<TRIPOS>BOND
     1    48    47    2
     2    47    46    1
     3    46    45    1
     4    46    49    1
     5    34    35    1
     6    22    21    2
     7    16    17    1
     8    55    56    1
     9    49    50    1
    10    35    36    1
    11    35    38    1
    12    19    18    2
    13    36    37    2
    14    18    17    1
    15    21    23   am
    16    21    20    1
    17    65    64    1
    18    65    59    1
    19    17    20    1
    20    56    57    1
    21    50    52   ar
    22    50    51   ar
    23    62    61    2
    24    14    13    2
    25    64    63    1
    26    99   100    1
    27    38    39    1
    28    24    25    1
    29    39    40    1
    30    59    57   am
    31    59    60    1
    32    52    54   ar
    33    26    27    2
    34    26    25    1
    35    13    12    1
    36    63    60    1
    37    57    58    2
    38    74    75    1
    39    51    53   ar
    40   100   103    1
    41   100   101    1
    42   103   104    1
    43    25    28    1
    44    61    60    1
    45    61    66   am
    46   104   105   ar
    47   104   106   ar
    48    40    41    1
    49    68    69    2
    50    68    67    1
    51    41    42    2
    52    54    53   ar
    53    15    12    1
    54     4     3    2
    55    12    11    1
    56    67    66    1
    57    67    70    1
    58    75    76    1
    59    44    42    1
    60   101   102    2
    61    42    43    1
    62    28    29    1
    63    77    76    2
    64    30    29   ar
    65    30    32   ar
    66    29    31   ar
    67    73    71    1
    68    76    78   am
    69    32    33   ar
    70     3     2    1
    71    31    33   ar
    72    70    71    1
    73    93    92    2
    74     1     2    1
    75     5     2    1
    76     5     6    1
    77    71    72    1
    78     7     6   ar
    79     7     9   ar
    80    94    95    1
    81    94    91    1
    82     6     8   ar
    83    78    79    1
    84    92    91    1
    85     9    10   ar
    86    88    89    2
    87    88    87    1
    88    95    96    1
    89   114   112   am
    90    91    90    1
    91   107   108    1
    92     8    10   ar
    93    79    80    1
    94    79    82    1
    95    86    80   am
    96    86    87    1
    97    96    97   ar
    98    96    98   ar
    99    80    81    2
   100   111   112    1
   101   111   108    1
   102   112   113    2
   103   138   137    1
   104   138   139    1
   105   138   141    1
   106    84    83   ar
   107   139   140    2
   108   108   109    1
   109   148   147    2
   110   142   141    1
   111   142   144    1
   112    83    82    1
   113    83    85   ar
   114   153   151   ar
   115   153   154   ar
   116   141   143    1
   117   151   150   ar
   118   147   146    1
   119   147   155   am
   120   109   110    2
   121   154   152   ar
   122   146   149    1
   123   146   145    1
   124   156   155    1
   125   156   157    1
   126   150   152   ar
   127   150   149    1
   128   157   158    2
   129   118   117    2
   130   115   116    1
   131   117   116    1
   132   117   123   am
   133   136   134    1
   134   119   116    1
   135   119   121    1
   136   119   120    1
   137   127   124    1
   138   127   128    1
   139   124   123    1
   140   124   125    1
   141   134   133    1
   142   120   122    1
   143   125   129   am
   144   125   126    2
   145   129   130    1
   146   133   130    1
   147   133   135    1
   148   130   131    1
   149   131   132    2
