@<TRIPOS>MOLECULE
tmp/5xqkA03.pdb
 80 77 0 0 0
SMALL
GASTEIGER

@<TRIPOS>ATOM
      1  N        -31.1780  -33.2230   -1.7560 N.3    50  THR50      -0.1203
      2  CA       -31.9220  -33.5170   -0.5490 C.3    50  THR50       0.1994
      3  C        -33.4310  -33.6140   -0.7560 C.2    50  THR50       0.2617
      4  O        -34.1370  -34.0640    0.1510 O.2    50  THR50      -0.2717
      5  CB       -31.6660  -32.4280    0.5090 C.3    50  THR50       0.1784
      6  OG1      -32.0290  -31.1640   -0.0480 O.3    50  THR50      -0.2211
      7  CG2      -30.1970  -32.4070    0.9580 C.3    50  THR50       0.0376
      8  N        -33.9240  -33.1720   -1.9110 N.am   51  LYS51      -0.1979
      9  CA       -35.3590  -33.1470   -2.1680 C.3    51  LYS51       0.1596
     10  C        -35.8390  -34.2070   -3.1580 C.2    51  LYS51       0.2287
     11  O        -37.0080  -34.2160   -3.5010 O.2    51  LYS51      -0.2864
     12  CB       -35.7810  -31.7370   -2.5910 C.3    51  LYS51       0.0298
     13  CG       -35.5330  -30.6780   -1.5200 C.3    51  LYS51       0.0038
     14  CD       -36.2400  -30.9860   -0.1930 C.3    51  LYS51       0.0206
     15  CE       -36.1270  -29.8460    0.8060 C.3    51  LYS51       0.1093
     16  NZ       -36.7760  -30.1960    2.0920 N.3    51  LYS51      -0.1314
     17  N        -24.2020  -31.1960    2.4780 N.3    79  ASP79      -0.1239
     18  CA       -23.6560  -29.8410    2.5810 C.3    79  ASP79       0.1674
     19  C        -23.4170  -29.4740    4.0540 C.2    79  ASP79       0.2266
     20  O        -23.9830  -28.5310    4.5950 O.2    79  ASP79      -0.2867
     21  CB       -24.6160  -28.8700    1.8810 C.3    79  ASP79       0.1410
     22  CG       -24.1060  -27.4560    1.8190 C.2    79  ASP79       0.3668
     23  OD1      -22.8920  -27.2500    1.8770 O.co2  79  ASP79      -0.2456
     24  OD2      -24.9420  -26.5400    1.6940 O.co2  79  ASP79      -0.2456
     25  N        -24.2930  -24.4660   11.4430 N.3    94  LYS94      -0.1245
     26  CA       -25.1850  -25.4150   10.7740 C.3    94  LYS94       0.1561
     27  C        -25.3750  -26.6990   11.5790 C.2    94  LYS94       0.2260
     28  O        -25.9890  -27.6440   11.0870 O.2    94  LYS94      -0.2867
     29  CB       -24.6620  -25.7360    9.3730 C.3    94  LYS94       0.0271
     30  CG       -24.6800  -24.5330    8.4390 C.3    94  LYS94       0.0035
     31  CD       -23.8740  -24.7580    7.1710 C.3    94  LYS94       0.0206
     32  CE       -24.4920  -25.8150    6.2910 C.3    94  LYS94       0.1093
     33  NZ       -23.7940  -25.8500    4.9710 N.3    94  LYS94      -0.1314
     34  N        -34.7620  -28.4010   10.5120 N.3   101  ASN101     -0.1225
     35  CA       -34.8590  -28.5800    9.0570 C.3   101  ASN101      0.1785
     36  C        -34.5170  -27.3240    8.2670 C.2   101  ASN101      0.2598
     37  O        -34.0080  -27.4290    7.1640 O.2   101  ASN101     -0.2718
     38  CB       -36.2090  -29.1640    8.6290 C.3   101  ASN101      0.1169
     39  CG       -37.3780  -28.2910    8.9990 C.2   101  ASN101      0.2627
     40  OD1      -37.8670  -28.3950   10.1110 O.2   101  ASN101     -0.2716
     41  ND2      -37.8880  -27.5130    8.0720 N.am  101  ASN101     -0.0877
     42  N        -34.7570  -26.1350    8.8270 N.am  102  THR102     -0.1939
     43  CA       -34.4310  -24.9140    8.0900 C.3   102  THR102      0.2028
     44  C        -32.9190  -24.6890    7.9330 C.2   102  THR102      0.2642
     45  O        -32.5030  -24.0000    7.0040 O.2   102  THR102     -0.2714
     46  CB       -35.0410  -23.6610    8.7330 C.3   102  THR102      0.1808
     47  OG1      -34.5090  -23.4930   10.0410 O.3   102  THR102     -0.2208
     48  CG2      -36.5710  -23.7280    8.7940 C.3   102  THR102      0.0379
     49  N        -32.1250  -25.2470    8.8520 N.am  103  ASP103     -0.1957
     50  CA       -30.7010  -24.9240    8.9920 C.3   103  ASP103      0.1840
     51  C        -29.7700  -26.0700    8.5880 C.2   103  ASP103      0.2622
     52  O        -28.6140  -25.8240    8.2590 O.2   103  ASP103     -0.2715
     53  CB       -30.3810  -24.5290   10.4610 C.3   103  ASP103      0.1450
     54  CG       -30.9200  -23.1620   10.8580 C.2   103  ASP103      0.3671
     55  OD1      -31.8980  -22.6800   10.2710 O.co2 103  ASP103     -0.2456
     56  OD2      -30.3500  -22.5720   11.7930 O.co2 103  ASP103     -0.2456
     57  N        -30.2450  -27.3150    8.6800 N.am  104  VAL104     -0.1964
     58  CA       -29.3840  -28.4900    8.5520 C.3   104  VAL104      0.1712
     59  C        -29.7610  -29.2660    7.2960 C.2   104  VAL104      0.2458
     60  O        -30.8380  -29.8590    7.2370 O.2   104  VAL104     -0.2730
     61  CB       -29.5070  -29.4180    9.7720 C.3   104  VAL104      0.0289
     62  CG1      -28.5550  -30.6070    9.6350 C.3   104  VAL104      0.0023
     63  CG2      -29.2190  -28.6660   11.0560 C.3   104  VAL104      0.0023
     64  N        -28.8740  -29.2920    6.2880 N.am  105  PRO105     -0.2727
     65  CA       -29.1480  -30.1230    5.1080 C.3   105  PRO105      0.1402
     66  C        -29.2720  -31.5950    5.4950 C.2   105  PRO105      0.2269
     67  O        -28.3940  -32.1160    6.1750 O.2   105  PRO105     -0.2865
     68  CB       -27.9330  -29.8590    4.2030 C.3   105  PRO105      0.0296
     69  CG       -27.4400  -28.5170    4.6500 C.3   105  PRO105      0.0237
     70  CD       -27.6000  -28.5740    6.1420 C.3   105  PRO105      0.0939
     71  N        -44.1010  -21.3320    3.7930 N.3   514  HIS514     -0.1241
     72  CA       -43.2340  -21.3000    4.9730 C.3   514  HIS514      0.1621
     73  C        -43.9170  -20.8990    6.2630 C.2   514  HIS514      0.2264
     74  O        -43.2160  -20.7260    7.2680 O.2   514  HIS514     -0.2867
     75  CB       -42.0000  -20.4440    4.6930 C.3   514  HIS514      0.0745
     76  CG       -41.0600  -21.0890    3.7260 C.ar  514  HIS514      0.0817
     77  ND1      -40.1960  -22.0990    4.0950 N.ar  514  HIS514     -0.2268
     78  CD2      -40.8870  -20.9160    2.3940 C.ar  514  HIS514      0.1154
     79  CE1      -39.5070  -22.4970    3.0410 C.ar  514  HIS514      0.1986
     80  NE2      -39.9010  -21.7880    1.9980 N.ar  514  HIS514     -0.2212
@<TRIPOS>BOND
     1    11    10    2
     2    10     9    1
     3    12     9    1
     4    12    13    1
     5     9     8    1
     6     8     3   am
     7     1     2    1
     8    13    14    1
     9     3     2    1
    10     3     4    2
    11     2     5    1
    12    14    15    1
    13     6     5    1
    14     5     7    1
    15    15    16    1
    16    24    22   ar
    17    22    23   ar
    18    22    21    1
    19    21    18    1
    20    80    78   ar
    21    80    79   ar
    22    78    76   ar
    23    17    18    1
    24    18    19    1
    25    79    77   ar
    26    76    77   ar
    27    76    75    1
    28    71    72    1
    29    19    20    2
    30    68    69    1
    31    68    65    1
    32    69    70    1
    33    75    72    1
    34    33    32    1
    35    72    73    1
    36    65    66    1
    37    65    64    1
    38    66    67    2
    39    70    64    1
    40    73    74    2
    41    64    59   am
    42    32    31    1
    43    45    44    2
    44    37    36    2
    45    31    30    1
    46    60    59    2
    47    59    58    1
    48    44    43    1
    49    44    49   am
    50    41    39   am
    51    43    46    1
    52    43    42    1
    53    52    51    2
    54    36    42   am
    55    36    35    1
    56    30    29    1
    57    58    57    1
    58    58    61    1
    59    51    57   am
    60    51    50    1
    61    38    39    1
    62    38    35    1
    63    46    48    1
    64    46    47    1
    65    49    50    1
    66    50    53    1
    67    39    40    2
    68    35    34    1
    69    29    26    1
    70    62    61    1
    71    61    63    1
    72    55    54   ar
    73    53    54    1
    74    26    25    1
    75    26    27    1
    76    54    56   ar
    77    28    27    2
