@<TRIPOS>MOLECULE
tmp/5xqoB02.pdb
 111 106 0 0 0
SMALL
GASTEIGER

@<TRIPOS>ATOM
      1  N         34.0280  103.1080   75.8570 N.3   405  LEU405     -0.1245
      2  CA        35.3730  102.9470   76.4050 C.3   405  LEU405      0.1561
      3  C         35.4480  102.2850   77.7830 C.2   405  LEU405      0.2260
      4  O         36.4870  101.6980   78.1270 O.2   405  LEU405     -0.2867
      5  CB        36.0380  104.3120   76.4890 C.3   405  LEU405      0.0270
      6  CG        36.7040  104.7330   75.1910 C.3   405  LEU405      0.0019
      7  CD1       36.3180  106.1510   74.8180 C.3   405  LEU405      0.0001
      8  CD2       38.2210  104.5550   75.3270 C.3   405  LEU405      0.0001
      9  N         34.9890   98.5130   77.3010 N.3   408  LEU408     -0.1231
     10  CA        36.3430   98.0990   76.8840 C.3   408  LEU408      0.1693
     11  C         37.2340   97.6540   78.0410 C.2   408  LEU408      0.2591
     12  O         38.1160   96.8230   77.8640 O.2   408  LEU408     -0.2718
     13  CB        37.0560   99.2380   76.1350 C.3   408  LEU408      0.0284
     14  CG        37.9070   98.8340   74.9340 C.3   408  LEU408      0.0019
     15  CD1       38.1010  100.0460   74.0480 C.3   408  LEU408      0.0001
     16  CD2       39.2620   98.2620   75.3020 C.3   408  LEU408      0.0001
     17  N         37.0460   98.2250   79.2220 N.am  409  GLU409     -0.1979
     18  CA        37.8950   97.8670   80.3550 C.3   409  GLU409      0.1602
     19  C         37.5160   96.5040   80.9860 C.2   409  GLU409      0.2287
     20  O         38.3380   95.9330   81.7090 O.2   409  GLU409     -0.2864
     21  CB        37.9400   99.0270   81.3680 C.3   409  GLU409      0.0415
     22  CG        38.4690  100.3710   80.8120 C.3   409  GLU409      0.1163
     23  CD        39.9860  100.4370   80.5780 C.2   409  GLU409      0.3649
     24  OE1       40.7570   99.6730   81.2120 O.co2 409  GLU409     -0.2457
     25  OE2       40.4100  101.2790   79.7470 O.co2 409  GLU409     -0.2457
     26  N         36.7540   93.9350   76.8960 N.3   412  PHE412     -0.1241
     27  CA        37.7850   94.2350   75.9100 C.3   412  PHE412      0.1605
     28  C         37.2920   94.5380   74.4810 C.2   412  PHE412      0.2264
     29  O         38.0560   94.3450   73.5450 O.2   412  PHE412     -0.2867
     30  CB        38.8590   93.1380   75.9430 C.3   412  PHE412      0.0534
     31  CG        40.2020   93.5280   75.3430 C.ar  412  PHE412     -0.0203
     32  CD1       40.7250   94.8090   75.4590 C.ar  412  PHE412     -0.0042
     33  CD2       40.9800   92.5690   74.6950 C.ar  412  PHE412     -0.0042
     34  CE1       41.9660   95.1230   74.9270 C.ar  412  PHE412     -0.0003
     35  CE2       42.2320   92.8800   74.1680 C.ar  412  PHE412     -0.0003
     36  CZ        42.7240   94.1560   74.2820 C.ar  412  PHE412     -0.0000
     37  N         35.6880   97.6500   71.8560 N.3   414  ASP414     -0.1239
     38  CA        35.4690   99.0580   71.5790 C.3   414  ASP414      0.1674
     39  C         34.2050   99.0750   70.7250 C.2   414  ASP414      0.2266
     40  O         34.2820   98.7950   69.5400 O.2   414  ASP414     -0.2867
     41  CB        36.7030   99.5320   70.7860 C.3   414  ASP414      0.1410
     42  CG        36.8570  101.0350   70.7180 C.2   414  ASP414      0.3668
     43  OD1       35.8230  101.7460   70.6720 O.co2 414  ASP414     -0.2456
     44  OD2       38.0650  101.4750   70.6750 O.co2 414  ASP414     -0.2456
     45  N         45.8400   90.3730   65.2100 N.3   539  GLU539     -0.1231
     46  CA        46.4390   91.2800   66.1920 C.3   539  GLU539      0.1699
     47  C         47.8070   90.8110   66.7050 C.2   539  GLU539      0.2592
     48  O         47.9700   89.6600   67.1080 O.2   539  GLU539     -0.2718
     49  CB        45.5160   91.6770   67.3640 C.3   539  GLU539      0.0402
     50  CG        45.6310   93.1940   67.5810 C.3   539  GLU539      0.1161
     51  CD        45.6040   93.6980   69.0020 C.2   539  GLU539      0.3649
     52  OE1       45.5390   94.9290   69.1140 O.co2 539  GLU539     -0.2457
     53  OE2       45.6420   92.9280   69.9820 O.co2 539  GLU539     -0.2457
     54  N         48.7600   91.7430   66.6870 N.am  540  LEU540     -0.1980
     55  CA        50.1920   91.5050   66.8880 C.3   540  LEU540      0.1596
     56  C         50.7860   90.5280   65.8600 C.2   540  LEU540      0.2287
     57  O         51.6910   89.7550   66.1820 O.2   540  LEU540     -0.2864
     58  CB        50.5310   91.1260   68.3530 C.3   540  LEU540      0.0297
     59  CG        50.5590   92.2400   69.4180 C.3   540  LEU540      0.0022
     60  CD1       49.1840   92.8690   69.6760 C.3   540  LEU540      0.0001
     61  CD2       51.1530   91.6920   70.7080 C.3   540  LEU540      0.0001
     62  N         38.9840   95.2080   63.9670 N.3   586  ARG586     -0.1231
     63  CA        39.7890   94.6650   65.0730 C.3   586  ARG586      0.1694
     64  C         39.1650   93.4460   65.7260 C.2   586  ARG586      0.2592
     65  O         37.9260   93.2800   65.7750 O.2   586  ARG586     -0.2718
     66  CB        39.9720   95.7420   66.1530 C.3   586  ARG586      0.0321
     67  CG        40.8370   95.3910   67.3640 C.3   586  ARG586      0.0489
     68  CD        40.8130   96.5100   68.4000 C.3   586  ARG586      0.2205
     69  NE        39.8930   96.2560   69.5230 N.pl3 586  ARG586     -0.0865
     70  CZ        40.2560   95.9230   70.7710 C.cat 586  ARG586      0.5346
     71  NH1       41.5490   95.8070   71.1450 N.pl3 586  ARG586      0.1354
     72  NH2       39.3030   95.7370   71.6780 N.pl3 586  ARG586      0.1354
     73  N         40.0630   92.6200   66.2520 N.am  587  HIS587     -0.1976
     74  CA        39.7190   91.3670   66.9140 C.3   587  HIS587      0.1656
     75  C         38.5040   91.3850   67.8730 C.2   587  HIS587      0.2291
     76  O         38.4230   92.2050   68.7830 O.2   587  HIS587     -0.2864
     77  CB        40.9580   90.8340   67.6190 C.3   587  HIS587      0.0771
     78  CG        41.5150   91.7430   68.6640 C.ar  587  HIS587      0.0820
     79  ND1       41.1550   91.6500   69.9880 N.ar  587  HIS587     -0.2267
     80  CD2       42.4460   92.7190   68.5960 C.ar  587  HIS587      0.1154
     81  CE1       41.8220   92.5440   70.6910 C.ar  587  HIS587      0.1986
     82  NE2       42.6150   93.2050   69.8700 N.ar  587  HIS587     -0.2212
     83  N         46.3800   98.9260   60.7610 N.3   600  ARG600     -0.1245
     84  CA        47.1940   97.8730   61.4370 C.3   600  ARG600      0.1563
     85  C         46.7650   96.4200   61.1480 C.2   600  ARG600      0.2260
     86  O         47.6080   95.5280   61.0470 O.2   600  ARG600     -0.2867
     87  CB        47.2580   98.0880   62.9800 C.3   600  ARG600      0.0307
     88  CG        46.0010   98.6510   63.6600 C.3   600  ARG600      0.0489
     89  CD        45.4000   97.8030   64.7950 C.3   600  ARG600      0.2205
     90  NE        45.8420   98.0580   66.1740 N.pl3 600  ARG600     -0.0865
     91  CZ        45.7480   99.2200   66.8290 C.cat 600  ARG600      0.5346
     92  NH1       45.2760  100.3320   66.2540 N.pl3 600  ARG600      0.1354
     93  NH2       46.1680   99.2810   68.0890 N.pl3 600  ARG600      0.1354
     94  N         53.6630  101.4400   72.5780 N.3   734  HIS734     -0.1226
     95  CA        54.1830  100.0870   72.3850 C.3   734  HIS734      0.1752
     96  C         53.5410   99.3780   71.1860 C.2   734  HIS734      0.2595
     97  O         54.0890   98.3930   70.6770 O.2   734  HIS734     -0.2718
     98  CB        53.9590   99.2560   73.6570 C.3   734  HIS734      0.0759
     99  CG        52.5100   99.0880   74.0320 C.ar  734  HIS734      0.0818
    100  ND1       51.9290   99.7640   75.0850 N.ar  734  HIS734     -0.2268
    101  CD2       51.5270   98.3290   73.4900 C.ar  734  HIS734      0.1154
    102  CE1       50.6560   99.4250   75.1760 C.ar  734  HIS734      0.1986
    103  NE2       50.3850   98.5560   74.2180 N.ar  734  HIS734     -0.2212
    104  N         52.3790   99.8660   70.7560 N.am  735  LEU735     -0.1980
    105  CA        51.6910   99.2960   69.6130 C.3   735  LEU735      0.1596
    106  C         52.3320   99.5600   68.2220 C.2   735  LEU735      0.2287
    107  O         51.9190   98.9480   67.2380 O.2   735  LEU735     -0.2864
    108  CB        50.2300   99.7700   69.6100 C.3   735  LEU735      0.0297
    109  CG        49.3260   99.3810   70.7940 C.3   735  LEU735      0.0022
    110  CD1       48.0550  100.2430   70.8170 C.3   735  LEU735      0.0001
    111  CD2       48.9860   97.8930   70.7490 C.3   735  LEU735      0.0001
@<TRIPOS>BOND
     1    83    84    1
     2    86    85    2
     3    85    84    1
     4    84    87    1
     5    87    88    1
     6    88    89    1
     7    62    63    1
     8    89    90    1
     9    63    64    1
    10    63    66    1
    11    45    46    1
    12    64    65    2
    13    64    73   am
    14    56    57    2
    15    56    55    1
    16    66    67    1
    17    90    91    2
    18    46    47    1
    19    46    49    1
    20    73    74    1
    21    92    91    1
    22    54    47   am
    23    54    55    1
    24    47    48    2
    25    91    93    1
    26    55    58    1
    27    74    77    1
    28    74    75    1
    29   107   106    2
    30    49    50    1
    31    67    68    1
    32    50    51    1
    33    77    78    1
    34    75    76    2
    35   106   105    1
    36    58    59    1
    37    68    69    1
    38    80    78   ar
    39    80    82   ar
    40    78    79   ar
    41    51    52   ar
    42    51    53   ar
    43    59    60    1
    44    59    61    1
    45    69    70    2
    46    40    39    2
    47   108   105    1
    48   108   109    1
    49   105   104    1
    50    82    81   ar
    51    79    81   ar
    52    43    42   ar
    53    44    42   ar
    54    97    96    2
    55    42    41    1
    56    39    38    1
    57   111   109    1
    58   104    96   am
    59    70    71    1
    60    70    72    1
    61    41    38    1
    62   109   110    1
    63    96    95    1
    64    38    37    1
    65    95    94    1
    66    95    98    1
    67   101    99   ar
    68   101   103   ar
    69    29    28    2
    70    98    99    1
    71    99   100   ar
    72    15    14    1
    73    35    36   ar
    74    35    33   ar
    75   103   102   ar
    76    36    34   ar
    77    28    27    1
    78    33    31   ar
    79     7     6    1
    80    34    32   ar
    81    14    16    1
    82    14    13    1
    83   100   102   ar
    84     6     8    1
    85     6     5    1
    86    31    32   ar
    87    31    30    1
    88     1     2    1
    89    27    30    1
    90    27    26    1
    91    13    10    1
    92     2     5    1
    93     2     3    1
    94    10     9    1
    95    10    11    1
    96     3     4    2
    97    12    11    2
    98    11    17   am
    99    17    18    1
   100    25    23   ar
   101    18    19    1
   102    18    21    1
   103    23    22    1
   104    23    24   ar
   105    22    21    1
   106    19    20    2
