@<TRIPOS>MOLECULE
tmp/5xqoA01.pdb
 90 87 0 0 0
SMALL
GASTEIGER

@<TRIPOS>ATOM
      1  N         11.9860   42.3420   44.8960 N.3   430  PHE430     -0.1241
      2  CA        11.5340   41.6160   46.1000 C.3   430  PHE430      0.1605
      3  C         10.5130   42.3920   46.9370 C.2   430  PHE430      0.2264
      4  O         10.3650   42.1450   48.1520 O.2   430  PHE430     -0.2867
      5  CB        12.7330   41.1140   46.9370 C.3   430  PHE430      0.0534
      6  CG        12.3930   40.0270   47.9340 C.ar  430  PHE430     -0.0203
      7  CD1       11.5110   38.9730   47.6150 C.ar  430  PHE430     -0.0042
      8  CD2       12.9710   40.0440   49.2060 C.ar  430  PHE430     -0.0042
      9  CE1       11.2060   37.9840   48.5500 C.ar  430  PHE430     -0.0003
     10  CE2       12.6830   39.0480   50.1360 C.ar  430  PHE430     -0.0003
     11  CZ        11.7920   38.0250   49.8160 C.ar  430  PHE430     -0.0000
     12  N         18.2180   43.5460   55.5260 N.3   534  HIS534     -0.1241
     13  CA        17.8530   42.2170   55.0990 C.3   534  HIS534      0.1621
     14  C         18.8700   41.4930   54.2140 C.2   534  HIS534      0.2264
     15  O         18.9270   40.2770   54.2500 O.2   534  HIS534     -0.2867
     16  CB        16.5680   42.3970   54.3390 C.3   534  HIS534      0.0745
     17  CG        15.9050   41.1380   53.9190 C.ar  534  HIS534      0.0817
     18  ND1       16.3750   40.3640   52.8860 N.ar  534  HIS534     -0.2268
     19  CD2       14.7420   40.5790   54.3180 C.ar  534  HIS534      0.1154
     20  CE1       15.5510   39.3540   52.6920 C.ar  534  HIS534      0.1986
     21  NE2       14.5500   39.4630   53.5460 N.ar  534  HIS534     -0.2212
     22  N         14.7960   43.9890   50.1090 N.3   550  TYR550     -0.1241
     23  CA        16.1160   43.6680   50.6490 C.3   550  TYR550      0.1605
     24  C         16.6700   44.7090   51.6100 C.2   550  TYR550      0.2264
     25  O         17.8010   44.5540   52.0610 O.2   550  TYR550     -0.2867
     26  CB        17.1140   43.3790   49.5230 C.3   550  TYR550      0.0534
     27  CG        16.7130   42.1860   48.6690 C.ar  550  TYR550     -0.0201
     28  CD1       16.4430   40.9450   49.2450 C.ar  550  TYR550     -0.0009
     29  CD2       16.5950   42.3010   47.2870 C.ar  550  TYR550     -0.0009
     30  CE1       16.0640   39.8610   48.4680 C.ar  550  TYR550      0.0417
     31  CE2       16.2190   41.2190   46.5000 C.ar  550  TYR550      0.0417
     32  CZ        15.9480   40.0030   47.0890 C.ar  550  TYR550      0.1957
     33  OH        15.5640   38.9330   46.3070 O.3   550  TYR550     -0.2866
     34  N         11.8250   39.9770   59.7620 N.3   556  GLU556     -0.1231
     35  CA        11.7420   38.8370   58.8390 C.3   556  GLU556      0.1699
     36  C         12.5700   37.6400   59.2660 C.2   556  GLU556      0.2592
     37  O         13.8150   37.7100   59.3070 O.2   556  GLU556     -0.2718
     38  CB        12.1770   39.2000   57.4220 C.3   556  GLU556      0.0402
     39  CG        11.8380   38.1440   56.3630 C.3   556  GLU556      0.1161
     40  CD        10.3340   37.9790   56.1260 C.2   556  GLU556      0.3649
     41  OE1        9.9940   37.1390   55.2660 O.co2 556  GLU556     -0.2457
     42  OE2        9.4880   38.6970   56.7550 O.co2 556  GLU556     -0.2457
     43  N         11.8490   36.5240   59.4350 N.am  557  LEU557     -0.1980
     44  CA        12.3280   35.2560   59.9960 C.3   557  LEU557      0.1596
     45  C         12.8400   35.4220   61.4230 C.2   557  LEU557      0.2287
     46  O         13.9510   35.0120   61.7690 O.2   557  LEU557     -0.2864
     47  CB        13.3740   34.5520   59.0970 C.3   557  LEU557      0.0297
     48  CG        13.0740   34.1480   57.6420 C.3   557  LEU557      0.0022
     49  CD1       13.6540   32.7740   57.3620 C.3   557  LEU557      0.0001
     50  CD2       11.5890   34.1630   57.2840 C.3   557  LEU557      0.0001
     51  N          7.3680   27.4950   53.2840 N.3   751  HIS751     -0.1226
     52  CA         8.5690   27.5060   54.1080 C.3   751  HIS751      0.1752
     53  C          8.4790   28.5390   55.2080 C.2   751  HIS751      0.2595
     54  O          9.1980   28.4370   56.1870 O.2   751  HIS751     -0.2718
     55  CB         9.8530   27.6950   53.2700 C.3   751  HIS751      0.0759
     56  CG         9.8880   28.9420   52.4390 C.ar  751  HIS751      0.0818
     57  ND1        9.5340   28.9570   51.1070 N.ar  751  HIS751     -0.2268
     58  CD2       10.2700   30.2050   52.7410 C.ar  751  HIS751      0.1154
     59  CE1        9.6840   30.1800   50.6270 C.ar  751  HIS751      0.1986
     60  NE2       10.1260   30.9560   51.6010 N.ar  751  HIS751     -0.2212
     61  N          7.5890   29.5190   55.0540 N.am  752  LEU752     -0.1980
     62  CA         7.4140   30.5560   56.0590 C.3   752  LEU752      0.1596
     63  C          6.6830   30.0650   57.3140 C.2   752  LEU752      0.2287
     64  O          7.1120   30.3690   58.4330 O.2   752  LEU752     -0.2864
     65  CB         6.6980   31.7490   55.4490 C.3   752  LEU752      0.0297
     66  CG         7.3720   32.4040   54.2410 C.3   752  LEU752      0.0022
     67  CD1        6.4540   33.5350   53.7800 C.3   752  LEU752      0.0001
     68  CD2        8.7760   32.9150   54.5150 C.3   752  LEU752      0.0001
     69  N         11.8170   24.9370   51.4240 N.3   807  SER807     -0.1202
     70  CA        13.1880   25.4050   51.5150 C.3   807  SER807      0.2020
     71  C         13.4420   25.7560   52.9930 C.2   807  SER807      0.2618
     72  O         12.6980   25.2660   53.8540 O.2   807  SER807     -0.2717
     73  CB        13.4580   26.5460   50.5180 C.3   807  SER807      0.2103
     74  OG        12.8240   27.7400   50.9100 O.3   807  SER807     -0.2182
     75  N         14.4910   26.5310   53.2970 N.am  808  LEU808     -0.1979
     76  CA        14.8790   26.7990   54.6840 C.3   808  LEU808      0.1596
     77  C         14.9880   25.4940   55.4970 C.2   808  LEU808      0.2287
     78  O         14.2950   25.3050   56.4920 O.2   808  LEU808     -0.2864
     79  CB        13.8750   27.7580   55.3310 C.3   808  LEU808      0.0297
     80  CG        13.6300   29.0800   54.6250 C.3   808  LEU808      0.0022
     81  CD1       12.5390   29.8670   55.3340 C.3   808  LEU808      0.0001
     82  CD2       14.9300   29.8690   54.5610 C.3   808  LEU808      0.0001
     83  N         18.3120   36.7490   57.1520 N.3   871  ASN871     -0.1240
     84  CA        17.4730   35.5600   57.2690 C.3   871  ASN871      0.1653
     85  C         18.3250   34.3740   57.6390 C.2   871  ASN871      0.2266
     86  O         17.8970   33.5370   58.4260 O.2   871  ASN871     -0.2867
     87  CB        16.6800   35.2810   55.9970 C.3   871  ASN871      0.1155
     88  CG        15.6240   36.3380   55.7260 C.2   871  ASN871      0.2627
     89  OD1       15.3060   37.2010   56.5870 O.2   871  ASN871     -0.2716
     90  ND2       15.0840   36.3020   54.5150 N.am  871  ASN871     -0.0877
@<TRIPOS>BOND
     1     1     2    1
     2     2     3    1
     3     2     5    1
     4    33    32    1
     5    31    32   ar
     6    31    29   ar
     7     3     4    2
     8     5     6    1
     9    32    30   ar
    10    29    27   ar
    11     7     6   ar
    12     7     9   ar
    13     6     8   ar
    14    30    28   ar
    15     9    11   ar
    16    27    28   ar
    17    27    26    1
    18     8    10   ar
    19    26    23    1
    20    11    10   ar
    21    22    23    1
    22    73    74    1
    23    73    70    1
    24    59    57   ar
    25    59    60   ar
    26    23    24    1
    27    57    56   ar
    28    69    70    1
    29    70    71    1
    30    60    58   ar
    31    24    25    2
    32    56    58   ar
    33    56    55    1
    34    20    18   ar
    35    20    21   ar
    36    18    17   ar
    37    71    75   am
    38    71    72    2
    39    55    52    1
    40    51    52    1
    41    75    76    1
    42    21    19   ar
    43    67    66    1
    44    17    19   ar
    45    17    16    1
    46    52    53    1
    47    14    15    2
    48    14    13    1
    49    66    68    1
    50    66    65    1
    51    16    13    1
    52    90    88   am
    53    82    80    1
    54    80    79    1
    55    80    81    1
    56    76    79    1
    57    76    77    1
    58    61    53   am
    59    61    62    1
    60    13    12    1
    61    53    54    2
    62    41    40   ar
    63    65    62    1
    64    77    78    2
    65    88    87    1
    66    88    89    2
    67    87    84    1
    68    62    63    1
    69    40    39    1
    70    40    42   ar
    71    39    38    1
    72    83    84    1
    73    84    85    1
    74    50    48    1
    75    63    64    2
    76    49    48    1
    77    38    35    1
    78    85    86    2
    79    48    47    1
    80    35    36    1
    81    35    34    1
    82    47    44    1
    83    36    37    2
    84    36    43   am
    85    43    44    1
    86    44    45    1
    87    45    46    2
