@<TRIPOS>MOLECULE
tmp/5xqwB00.pdb
 119 115 0 0 0
SMALL
GASTEIGER

@<TRIPOS>ATOM
      1  N         11.5300   -9.1880   26.9380 N.3    33  ASN33      -0.1240
      2  CA        11.0990   -9.1190   25.5620 C.3    33  ASN33       0.1653
      3  C         10.6620   -7.6800   25.2220 C.2    33  ASN33       0.2266
      4  O         10.3230   -6.8800   26.1090 O.2    33  ASN33      -0.2867
      5  CB         9.9620  -10.0730   25.2690 C.3    33  ASN33       0.1155
      6  CG        10.3350  -11.5060   25.4910 C.2    33  ASN33       0.2627
      7  OD1       11.4240  -11.9510   25.0730 O.2    33  ASN33      -0.2716
      8  ND2        9.4260  -12.2590   26.1500 N.am   33  ASN33      -0.0877
      9  N          7.8290   -5.8630   22.7000 N.3    35  ASN35      -0.1240
     10  CA         6.6460   -6.1190   21.8680 C.3    35  ASN35       0.1653
     11  C          6.3490   -4.8510   21.1290 C.2    35  ASN35       0.2266
     12  O          6.7960   -3.7830   21.5480 O.2    35  ASN35      -0.2867
     13  CB         5.4100   -6.4540   22.7070 C.3    35  ASN35       0.1155
     14  CG         5.5990   -7.6750   23.5820 C.2    35  ASN35       0.2627
     15  OD1        5.2070   -8.7870   23.2150 O.2    35  ASN35      -0.2716
     16  ND2        6.2200   -7.4900   24.7130 N.am   35  ASN35      -0.0877
     17  N          2.9080   -2.8720   19.5230 N.3    37  VAL37      -0.1245
     18  CA         1.4380   -2.8630   19.5250 C.3    37  VAL37       0.1561
     19  C          0.9690   -1.7650   18.6220 C.2    37  VAL37       0.2260
     20  O          1.5440   -0.6650   18.6420 O.2    37  VAL37      -0.2867
     21  CB         0.8950   -2.6070   20.9380 C.3    37  VAL37       0.0252
     22  CG1       -0.5910   -2.3520   20.9240 C.3    37  VAL37       0.0019
     23  CG2        1.2230   -3.8190   21.8080 C.3    37  VAL37       0.0019
     24  N         -1.5270   -6.8920   18.7600 N.3    47  TRP47      -0.1241
     25  CA        -0.1380   -7.2550   19.0400 C.3    47  TRP47       0.1605
     26  C          0.4520   -7.6340   17.7030 C.2    47  TRP47       0.2264
     27  O         -0.0860   -8.5070   16.9900 O.2    47  TRP47      -0.2867
     28  CB        -0.1140   -8.3800   20.0560 C.3    47  TRP47       0.0550
     29  CG         1.1830   -8.9400   20.3680 C.ar   47  TRP47       0.0003
     30  CD1        2.0590   -8.4900   21.2740 C.ar   47  TRP47       0.0946
     31  CD2        1.7600  -10.0860   19.7740 C.ar   47  TRP47       0.0152
     32  NE1        3.1880   -9.2880   21.2950 N.ar   47  TRP47      -0.2442
     33  CE2        3.0190  -10.2890   20.3840 C.ar   47  TRP47       0.0810
     34  CE3        1.3270  -10.9880   18.7920 C.ar   47  TRP47       0.0012
     35  CZ2        3.8720  -11.3560   20.0350 C.ar   47  TRP47       0.0191
     36  CZ3        2.1790  -12.0710   18.4370 C.ar   47  TRP47       0.0001
     37  CH2        3.4360  -12.2300   19.0550 C.ar   47  TRP47       0.0015
     38  N          6.7900   -9.8530   18.9660 N.3    50  ASN50      -0.1240
     39  CA         7.8640   -9.5910   19.9080 C.3    50  ASN50       0.1653
     40  C          9.2290  -10.0530   19.3950 C.2    50  ASN50       0.2266
     41  O          9.3510  -10.8130   18.4220 O.2    50  ASN50      -0.2867
     42  CB         7.5900  -10.2480   21.2800 C.3    50  ASN50       0.1155
     43  CG         7.6800  -11.7930   21.2660 C.2    50  ASN50       0.2627
     44  OD1        8.1500  -12.4240   20.3260 O.2    50  ASN50      -0.2716
     45  ND2        7.1850  -12.3930   22.3200 N.am   50  ASN50      -0.0877
     46  N          6.7360   -2.1050   23.6670 N.3    97  VAL97      -0.1245
     47  CA         6.1830   -2.5190   24.9550 C.3    97  VAL97       0.1561
     48  C          7.1530   -3.5640   25.4910 C.2    97  VAL97       0.2260
     49  O          7.2300   -4.6490   24.9330 O.2    97  VAL97      -0.2867
     50  CB         4.7810   -3.1570   24.8740 C.3    97  VAL97       0.0252
     51  CG1        4.2420   -3.4150   26.2830 C.3    97  VAL97       0.0019
     52  CG2        3.8160   -2.3020   24.0830 C.3    97  VAL97       0.0019
     53  N          8.1060   -6.3150   28.0500 N.3    99  SER99      -0.1202
     54  CA         7.4330   -7.2820   28.9260 C.3    99  SER99       0.2020
     55  C          8.4270   -8.1610   29.6700 C.2    99  SER99       0.2619
     56  O          9.4680   -8.5830   29.1390 O.2    99  SER99      -0.2717
     57  CB         6.4750   -8.1860   28.1580 C.3    99  SER99       0.2103
     58  OG         7.1170   -8.8530   27.0970 O.3    99  SER99      -0.2182
     59  N          8.0850   -8.4300   30.9130 N.am  100  ASN100     -0.1960
     60  CA         8.7960   -9.3770   31.7360 C.3   100  ASN100      0.1819
     61  C          8.6070  -10.8010   31.1620 C.2   100  ASN100      0.2621
     62  O          7.4980  -11.2370   30.9390 O.2   100  ASN100     -0.2715
     63  CB         8.3270   -9.2430   33.2040 C.3   100  ASN100      0.1195
     64  CG         9.1290  -10.1150   34.1660 C.2   100  ASN100      0.2630
     65  OD1        9.1680  -11.3200   34.0190 O.2   100  ASN100     -0.2716
     66  ND2        9.7390   -9.5050   35.1590 N.am  100  ASN100     -0.0877
     67  N          9.7200  -11.4720   30.8570 N.am  101  LYS101     -0.1963
     68  CA         9.7060  -12.7810   30.2260 C.3   101  LYS101      0.1728
     69  C          9.0010  -13.8430   31.0710 C.2   101  LYS101      0.2616
     70  O          8.5560  -14.8150   30.5370 O.2   101  LYS101     -0.2715
     71  CB        11.1280  -13.2580   29.9140 C.3   101  LYS101      0.0311
     72  CG        11.8670  -12.4790   28.8770 C.3   101  LYS101      0.0038
     73  CD        13.3160  -12.9110   28.8370 C.3   101  LYS101      0.0206
     74  CE        13.9690  -12.5320   27.5190 C.3   101  LYS101      0.1093
     75  NZ        15.4370  -12.6960   27.6490 N.3   101  LYS101     -0.1314
     76  N          8.8830  -13.6310   32.3690 N.am  102  TYR102     -0.1960
     77  CA         8.2580  -14.6010   33.2990 C.3   102  TYR102      0.1771
     78  C          6.8840  -14.2060   33.7610 C.2   102  TYR102      0.2620
     79  O          6.0830  -15.0800   34.0010 O.2   102  TYR102     -0.2715
     80  CB         9.2090  -14.8400   34.5110 C.3   102  TYR102      0.0574
     81  CG        10.5960  -15.1280   33.9920 C.ar  102  TYR102     -0.0198
     82  CD1       10.8280  -16.2850   33.2580 C.ar  102  TYR102     -0.0009
     83  CD2       11.6490  -14.2160   34.1460 C.ar  102  TYR102     -0.0009
     84  CE1       12.0700  -16.5520   32.7050 C.ar  102  TYR102      0.0417
     85  CE2       12.9170  -14.4950   33.6250 C.ar  102  TYR102      0.0417
     86  CZ        13.0890  -15.6600   32.8830 C.ar  102  TYR102      0.1957
     87  OH        14.2640  -16.0020   32.3490 O.3   102  TYR102     -0.2866
     88  N          6.6110  -12.9020   33.9130 N.am  103  THR103     -0.1937
     89  CA         5.3230  -12.4380   34.4990 C.3   103  THR103      0.2028
     90  C          4.4100  -11.7400   33.5390 C.2   103  THR103      0.2642
     91  O          3.2400  -11.5640   33.8440 O.2   103  THR103     -0.2714
     92  CB         5.5310  -11.4960   35.7110 C.3   103  THR103      0.1808
     93  OG1        6.1590  -10.2750   35.3130 O.3   103  THR103     -0.2208
     94  CG2        6.3980  -12.1930   36.7740 C.3   103  THR103      0.0379
     95  N          4.9290  -11.2720   32.4030 N.am  104  GLY104     -0.1954
     96  CA         4.0880  -10.4680   31.4890 C.3   104  GLY104      0.1869
     97  C          3.7640   -9.0640   31.9530 C.2   104  GLY104      0.2309
     98  O          2.9330   -8.3710   31.3400 O.2   104  GLY104     -0.2863
     99  N          4.3970   -5.1950   32.2470 N.3   106  VAL106     -0.1245
    100  CA         4.6710   -4.3800   31.0620 C.3   106  VAL106      0.1561
    101  C          5.0640   -2.9500   31.3870 C.2   106  VAL106      0.2260
    102  O          4.5940   -2.3710   32.3690 O.2   106  VAL106     -0.2867
    103  CB         3.4550   -4.3400   30.0830 C.3   106  VAL106      0.0252
    104  CG1        3.2670   -5.6860   29.4050 C.3   106  VAL106      0.0019
    105  CG2        2.1630   -3.9520   30.7890 C.3   106  VAL106      0.0019
    106  N          5.3830    0.5790   28.7850 N.3   108  TRP108     -0.1241
    107  CA         5.0670    1.1040   27.4420 C.3   108  TRP108      0.1605
    108  C          5.8390    2.3980   27.0610 C.2   108  TRP108      0.2264
    109  O          6.0420    3.2820   27.8820 O.2   108  TRP108     -0.2867
    110  CB         3.5820    1.4080   27.3340 C.3   108  TRP108      0.0550
    111  CG         2.6870    0.2200   27.2510 C.ar  108  TRP108      0.0003
    112  CD1        2.4720   -0.7110   28.2240 C.ar  108  TRP108      0.0946
    113  CD2        1.7960   -0.1130   26.1740 C.ar  108  TRP108      0.0152
    114  NE1        1.5500   -1.6330   27.7970 N.ar  108  TRP108     -0.2442
    115  CE2        1.0970   -1.2690   26.5580 C.ar  108  TRP108      0.0810
    116  CE3        1.5200    0.4630   24.9270 C.ar  108  TRP108      0.0012
    117  CZ2        0.1850   -1.8780   25.7470 C.ar  108  TRP108      0.0191
    118  CZ3        0.5750   -0.1510   24.1060 C.ar  108  TRP108      0.0001
    119  CH2       -0.0790   -1.2980   24.5190 C.ar  108  TRP108      0.0015
@<TRIPOS>BOND
     1    27    26    2
     2    26    25    1
     3    41    40    2
     4    36    34   ar
     5    36    37   ar
     6    19    20    2
     7    19    18    1
     8    24    25    1
     9    34    31   ar
    10    38    39    1
    11    25    28    1
    12    37    35   ar
    13    40    39    1
    14    17    18    1
    15    18    21    1
    16    31    29   ar
    17    31    33   ar
    18    39    42    1
    19    35    33   ar
    20    28    29    1
    21    44    43    2
    22    29    30   ar
    23    33    32   ar
    24    22    21    1
    25    21    23    1
    26    11    12    2
    27    11    10    1
    28    43    42    1
    29    43    45   am
    30    30    32   ar
    31    10     9    1
    32    10    13    1
    33    13    14    1
    34    15    14    2
    35    14    16   am
    36    46    47    1
    37    52    50    1
    38   118   119   ar
    39   118   116   ar
    40   119   117   ar
    41    50    47    1
    42    50    51    1
    43   116   113   ar
    44    49    48    2
    45    47    48    1
    46     7     6    2
    47     3     2    1
    48     3     4    2
    49     5     6    1
    50     5     2    1
    51     6     8   am
    52     2     1    1
    53   117   115   ar
    54   113   115   ar
    55   113   111   ar
    56   115   114   ar
    57   108   107    1
    58   108   109    2
    59    58    57    1
    60   111   110    1
    61   111   112   ar
    62   110   107    1
    63   107   106    1
    64    74    75    1
    65    74    73    1
    66   114   112   ar
    67    53    54    1
    68    57    54    1
    69    73    72    1
    70    72    71    1
    71    54    55    1
    72    56    55    2
    73   104   103    1
    74    55    59   am
    75    71    68    1
    76   103   105    1
    77   103   100    1
    78    68    67    1
    79    68    69    1
    80    70    69    2
    81    67    61   am
    82    59    60    1
    83    62    61    2
    84   100   101    1
    85   100    99    1
    86    69    76   am
    87    61    60    1
    88    98    97    2
    89   101   102    2
    90    96    97    1
    91    96    95    1
    92    60    63    1
    93    87    86    1
    94    76    77    1
    95    95    90   am
    96    84    86   ar
    97    84    82   ar
    98    86    85   ar
    99    63    64    1
   100    82    81   ar
   101    77    78    1
   102    77    80    1
   103    90    91    2
   104    90    89    1
   105    85    83   ar
   106    78    88   am
   107    78    79    2
   108    88    89    1
   109    81    83   ar
   110    81    80    1
   111    65    64    2
   112    64    66   am
   113    89    92    1
   114    93    92    1
   115    92    94    1
