@<TRIPOS>MOLECULE
tmp/5xqxA00.pdb
 138 129 0 0 0
SMALL
GASTEIGER

@<TRIPOS>ATOM
      1  N        -10.3840  -15.4380    2.7640 N.3    30  VAL30      -0.1245
      2  CA        -9.2680  -14.5430    2.4250 C.3    30  VAL30       0.1561
      3  C         -7.9660  -15.0310    3.0540 C.2    30  VAL30       0.2260
      4  O         -6.8870  -14.5380    2.7560 O.2    30  VAL30      -0.2867
      5  CB        -9.5210  -13.0810    2.8470 C.3    30  VAL30       0.0252
      6  CG1      -10.6700  -12.4620    2.0590 C.3    30  VAL30       0.0019
      7  CG2       -9.7540  -12.9640    4.3730 C.3    30  VAL30       0.0019
      8  N         -3.5830  -21.6450   11.6460 N.3    35  TYR35      -0.1241
      9  CA        -4.6310  -21.0100   12.4700 C.3    35  TYR35       0.1605
     10  C         -6.0700  -21.4700   12.1470 C.2    35  TYR35       0.2264
     11  O         -6.9280  -21.5150   13.0420 O.2    35  TYR35      -0.2867
     12  CB        -4.5530  -19.4880   12.3580 C.3    35  TYR35       0.0534
     13  CG        -4.5810  -18.9330   10.9460 C.ar   35  TYR35      -0.0201
     14  CD1       -5.7920  -18.7350   10.2710 C.ar   35  TYR35      -0.0009
     15  CD2       -3.3950  -18.5750   10.2920 C.ar   35  TYR35      -0.0009
     16  CE1       -5.8220  -18.2110    8.9840 C.ar   35  TYR35       0.0417
     17  CE2       -3.4130  -18.0460    9.0060 C.ar   35  TYR35       0.0417
     18  CZ        -4.6310  -17.8610    8.3510 C.ar   35  TYR35       0.1957
     19  OH        -4.6620  -17.3290    7.0660 O.3    35  TYR35      -0.2866
     20  N         -9.8520  -17.7680    7.5260 N.3    38  VAL38      -0.1245
     21  CA       -10.4280  -16.4530    7.7600 C.3    38  VAL38       0.1561
     22  C        -11.3110  -16.0830    6.5560 C.2    38  VAL38       0.2260
     23  O        -10.9170  -16.3090    5.3940 O.2    38  VAL38      -0.2867
     24  CB        -9.3290  -15.3990    8.0310 C.3    38  VAL38       0.0252
     25  CG1       -9.9060  -14.0000    8.1530 C.3    38  VAL38       0.0019
     26  CG2       -8.5090  -15.7710    9.2680 C.3    38  VAL38       0.0019
     27  N        -14.5350   -9.9200    9.8920 N.3    53  ALA53      -0.1245
     28  CA       -13.7100  -11.0990    9.6610 C.3    53  ALA53       0.1562
     29  C        -14.2360  -12.2150   10.5600 C.2    53  ALA53       0.2260
     30  O        -14.5290  -11.9910   11.7560 O.2    53  ALA53      -0.2867
     31  CB       -12.2390  -10.8070    9.9900 C.3    53  ALA53       0.0290
     32  N        -13.1480  -16.0210   11.8280 N.3    55  LYS55      -0.1245
     33  CA       -12.0820  -16.9960   11.9100 C.3    55  LYS55       0.1561
     34  C        -12.6250  -18.3380   12.3800 C.2    55  LYS55       0.2260
     35  O        -13.1270  -18.4740   13.5110 O.2    55  LYS55      -0.2867
     36  CB       -10.9430  -16.4830   12.8080 C.3    55  LYS55       0.0271
     37  CG        -9.8260  -17.4980   13.0720 C.3    55  LYS55       0.0035
     38  CD        -8.6960  -16.8710   13.8880 C.3    55  LYS55       0.0206
     39  CE        -7.9330  -17.8860   14.7250 C.3    55  LYS55       0.1093
     40  NZ        -6.7110  -17.2150   15.2190 N.3    55  LYS55      -0.1314
     41  N         -7.1790  -18.1710   22.9350 N.3    69  GLU69      -0.1245
     42  CA        -7.5180  -16.9740   22.1800 C.3    69  GLU69       0.1567
     43  C         -8.8490  -16.4250   22.7290 C.2    69  GLU69       0.2260
     44  O         -8.9930  -15.2220   22.9120 O.2    69  GLU69      -0.2867
     45  CB        -7.5450  -17.2510   20.6700 C.3    69  GLU69       0.0388
     46  CG        -7.7940  -16.0010   19.8560 C.3    69  GLU69       0.1160
     47  CD        -7.1980  -16.0370   18.4570 C.2    69  GLU69       0.3649
     48  OE1       -7.2530  -17.0960   17.8060 O.co2  69  GLU69      -0.2457
     49  OE2       -6.6890  -14.9820   18.0120 O.co2  69  GLU69      -0.2457
     50  N         -6.6280   -6.6550   18.4240 N.3    82  ILE82      -0.1245
     51  CA        -7.8550   -7.0740   17.7290 C.3    82  ILE82       0.1561
     52  C         -8.9640   -7.3440   18.7790 C.2    82  ILE82       0.2260
     53  O         -8.6720   -7.9940   19.7980 O.2    82  ILE82      -0.2867
     54  CB        -7.5160   -8.3060   16.8280 C.3    82  ILE82       0.0252
     55  CG1       -8.5660   -8.5550   15.7390 C.3    82  ILE82       0.0019
     56  CG2       -7.2740   -9.5640   17.6550 C.3    82  ILE82       0.0019
     57  CD1       -8.8350   -7.3660   14.8550 C.3    82  ILE82       0.0001
     58  N        -14.5040  -10.7210   14.2510 N.3   100  PHE100     -0.1227
     59  CA       -13.7970   -9.4690   14.4420 C.3   100  PHE100      0.1736
     60  C        -14.2380   -8.4780   13.3840 C.2   100  PHE100      0.2595
     61  O        -14.7860   -8.8680   12.3480 O.2   100  PHE100     -0.2718
     62  CB       -12.2810   -9.6610   14.2820 C.3   100  PHE100      0.0547
     63  CG       -11.7090  -10.8750   14.9960 C.ar  100  PHE100     -0.0202
     64  CD1      -11.2900  -10.7820   16.3170 C.ar  100  PHE100     -0.0042
     65  CD2      -11.5370  -12.0890   14.3250 C.ar  100  PHE100     -0.0042
     66  CE1      -10.7220  -11.8750   16.9700 C.ar  100  PHE100     -0.0003
     67  CE2      -10.9740  -13.1900   14.9680 C.ar  100  PHE100     -0.0003
     68  CZ       -10.5560  -13.0770   16.3000 C.ar  100  PHE100     -0.0000
     69  N        -13.9830   -7.2050   13.6510 N.am  101  ASP101     -0.1960
     70  CA       -14.0480   -6.1600   12.6500 C.3   101  ASP101      0.1840
     71  C        -12.9490   -6.4480   11.6140 C.2   101  ASP101      0.2622
     72  O        -11.8320   -6.8390   11.9570 O.2   101  ASP101     -0.2715
     73  CB       -13.7990   -4.7830   13.2770 C.3   101  ASP101      0.1450
     74  CG       -14.9820   -4.2680   14.0410 C.2   101  ASP101      0.3671
     75  OD1      -16.0980   -4.8010   13.8560 O.co2 101  ASP101     -0.2456
     76  OD2      -14.8100   -3.3190   14.8400 O.co2 101  ASP101     -0.2456
     77  N        -13.2790   -6.2390   10.3500 N.am  102  TYR102     -0.1960
     78  CA       -12.4090   -6.6380    9.2810 C.3   102  TYR102      0.1771
     79  C        -11.2520   -5.6570    9.1170 C.2   102  TYR102      0.2619
     80  O        -11.4530   -4.4570    9.0360 O.2   102  TYR102     -0.2715
     81  CB       -13.2090   -6.7210    7.9930 C.3   102  TYR102      0.0574
     82  CG       -12.4120   -7.2150    6.8350 C.ar  102  TYR102     -0.0198
     83  CD1      -12.0300   -8.5400    6.7650 C.ar  102  TYR102     -0.0009
     84  CD2      -12.0220   -6.3460    5.8190 C.ar  102  TYR102     -0.0009
     85  CE1      -11.2920   -8.9970    5.7160 C.ar  102  TYR102      0.0417
     86  CE2      -11.2650   -6.7930    4.7530 C.ar  102  TYR102      0.0417
     87  CZ       -10.9220   -8.1180    4.7220 C.ar  102  TYR102      0.1957
     88  OH       -10.2280   -8.5960    3.6720 O.3   102  TYR102     -0.2866
     89  N        -10.0390   -6.1960    9.0860 N.am  103  ALA103     -0.1977
     90  CA        -8.8360   -5.4030    8.8020 C.3   103  ALA103      0.1597
     91  C         -8.3860   -5.6910    7.3590 C.2   103  ALA103      0.2287
     92  O         -7.9050   -6.7840    7.0540 O.2   103  ALA103     -0.2864
     93  CB        -7.7230   -5.7290    9.8000 C.3   103  ALA103      0.0319
     94  N          2.6800  -10.9820    9.5410 N.3   150  ALA150     -0.1231
     95  CA         1.3330  -11.5000    9.2140 C.3   150  ALA150      0.1694
     96  C          0.3100  -11.2620   10.3560 C.2   150  ALA150      0.2592
     97  O         -0.8800  -11.2260   10.1040 O.2   150  ALA150     -0.2718
     98  CB         1.3820  -12.9930    8.8370 C.3   150  ALA150      0.0304
     99  N          0.8000  -11.1050   11.5890 N.am  151  ASN151     -0.1974
    100  CA        -0.0200  -10.9030   12.7860 C.3   151  ASN151      0.1688
    101  C         -0.2050   -9.4450   13.1280 C.2   151  ASN151      0.2292
    102  O         -0.8380   -9.1330   14.1230 O.2   151  ASN151     -0.2864
    103  CB         0.6760  -11.5510   13.9890 C.3   151  ASN151      0.1181
    104  CG         0.6290  -13.0370   13.9110 C.2   151  ASN151      0.2629
    105  OD1       -0.2400  -13.5960   13.2280 O.2   151  ASN151     -0.2716
    106  ND2        1.5510  -13.6970   14.5830 N.am  151  ASN151     -0.0877
    107  N         -2.0210   -6.5680   11.8630 N.3   153  LEU153     -0.1245
    108  CA        -3.0450   -6.0440   10.9660 C.3   153  LEU153      0.1561
    109  C         -3.0570   -4.5390   10.9940 C.2   153  LEU153      0.2260
    110  O         -2.6860   -3.9060   12.0250 O.2   153  LEU153     -0.2867
    111  CB        -4.4150   -6.5560   11.3820 C.3   153  LEU153      0.0270
    112  CG        -4.4820   -8.0680   11.5850 C.3   153  LEU153      0.0019
    113  CD1       -5.8530   -8.5130   12.1130 C.3   153  LEU153      0.0001
    114  CD2       -4.1480   -8.7970   10.2890 C.3   153  LEU153      0.0001
    115  N         -2.9550   -9.2840   16.1950 N.3   167  ALA167     -0.1231
    116  CA        -3.8490  -10.4330   16.1460 C.3   167  ALA167      0.1694
    117  C         -3.1490  -11.7550   16.4540 C.2   167  ALA167      0.2592
    118  O         -1.9140  -11.8030   16.6140 O.2   167  ALA167     -0.2718
    119  CB        -4.5210  -10.5110   14.7780 C.3   167  ALA167      0.0304
    120  N         -3.9780  -12.8020   16.5480 N.am  168  ASP168     -0.1974
    121  CA        -3.6010  -14.1910   16.7610 C.3   168  ASP168      0.1709
    122  C         -3.0120  -14.4630   18.1380 C.2   168  ASP168      0.2293
    123  O         -1.7940  -14.4410   18.2960 O.2   168  ASP168     -0.2864
    124  CB        -2.6790  -14.7420   15.6520 C.3   168  ASP168      0.1436
    125  CG        -2.4850  -16.2740   15.7620 C.2   168  ASP168      0.3671
    126  OD1       -3.1100  -16.9090   16.6550 O.co2 168  ASP168     -0.2456
    127  OD2       -1.7210  -16.8580   14.9520 O.co2 168  ASP168     -0.2456
    128  N         -7.3750   -7.5620    0.0210 N.3   334  ARG334     -0.1245
    129  CA        -7.2170   -9.0230    0.0430 C.3   334  ARG334      0.1563
    130  C         -8.0550   -9.7010   -1.0380 C.2   334  ARG334      0.2260
    131  O         -9.2120   -9.3210   -1.3040 O.2   334  ARG334     -0.2867
    132  CB        -7.6670   -9.6040    1.3920 C.3   334  ARG334      0.0307
    133  CG        -7.0320   -8.9800    2.6220 C.3   334  ARG334      0.0489
    134  CD        -7.6420   -9.5620    3.9160 C.3   334  ARG334      0.2205
    135  NE        -7.1010   -8.8890    5.1010 N.pl3 334  ARG334     -0.0865
    136  CZ        -5.8680   -9.1230    5.4960 C.cat 334  ARG334      0.5346
    137  NH1       -5.1450  -10.0050    4.8070 N.pl3 334  ARG334      0.1354
    138  NH2       -5.3540   -8.4750    6.5240 N.pl3 334  ARG334      0.1354
@<TRIPOS>BOND
     1   131   130    2
     2   130   129    1
     3   128   129    1
     4   129   132    1
     5   132   133    1
     6     6     5    1
     7     2     1    1
     8     2     5    1
     9     2     3    1
    10   133   134    1
    11     4     3    2
    12     5     7    1
    13    88    87    1
    14   134   135    1
    15    87    86   ar
    16    87    85   ar
    17    86    84   ar
    18   137   136    1
    19   135   136    2
    20    23    22    2
    21   136   138    1
    22    85    83   ar
    23    84    82   ar
    24    22    21    1
    25    83    82   ar
    26    82    81    1
    27    92    91    2
    28    19    18    1
    29    91    90    1
    30    20    21    1
    31    21    24    1
    32    81    78    1
    33    24    25    1
    34    24    26    1
    35    18    16   ar
    36    18    17   ar
    37    90    89    1
    38    90    93    1
    39    98    95    1
    40    16    14   ar
    41    17    15   ar
    42    80    79    2
    43    89    79   am
    44    79    78    1
    45    95    94    1
    46    95    96    1
    47    78    77    1
    48    28    27    1
    49    28    31    1
    50    28    29    1
    51    97    96    2
    52    14    13   ar
    53   114   112    1
    54    15    13   ar
    55    77    71   am
    56    96    99   am
    57    29    30    2
    58    13    12    1
    59   108   109    1
    60   108   111    1
    61   108   107    1
    62   109   110    2
    63   111   112    1
    64   112   113    1
    65    99   100    1
    66    71    72    2
    67    71    70    1
    68     8     9    1
    69    32    33    1
    70    33    34    1
    71    33    36    1
    72    10     9    1
    73    10    11    2
    74    61    60    2
    75    12     9    1
    76    34    35    2
    77    70    73    1
    78    70    69    1
    79   100   101    1
    80   100   103    1
    81    36    37    1
    82    37    38    1
    83   101   102    2
    84   105   104    2
    85    73    74    1
    86    60    69   am
    87    60    59    1
    88    75    74   ar
    89    38    39    1
    90   104   103    1
    91   104   106   am
    92    74    76   ar
    93    58    59    1
    94    62    59    1
    95    62    63    1
    96    65    67   ar
    97    65    63   ar
    98    39    40    1
    99   119   116    1
   100    57    55    1
   101   127   125   ar
   102    67    68   ar
   103    63    64   ar
   104   124   125    1
   105   124   121    1
   106    55    54    1
   107   125   126   ar
   108   116   115    1
   109   116   117    1
   110    68    66   ar
   111    64    66   ar
   112   117   120   am
   113   117   118    2
   114   120   121    1
   115   121   122    1
   116    54    56    1
   117    54    51    1
   118    51    50    1
   119    51    52    1
   120    48    47   ar
   121    49    47   ar
   122   122   123    2
   123    47    46    1
   124    52    53    2
   125    46    45    1
   126    45    42    1
   127    42    43    1
   128    42    41    1
   129    43    44    2
