@<TRIPOS>MOLECULE
tmp/5xr4B00.pdb
 152 145 0 0 0
SMALL
GASTEIGER

@<TRIPOS>ATOM
      1  N         98.4200   26.9590   95.0040 N.3    13  SER13      -0.1202
      2  CA        97.1680   26.4870   95.5720 C.3    13  SER13       0.2020
      3  C         96.0220   27.3750   95.0780 C.2    13  SER13       0.2619
      4  O         96.1630   28.6020   94.9890 O.2    13  SER13      -0.2717
      5  CB        97.2780   26.5090   97.1010 C.3    13  SER13       0.2103
      6  OG        96.4360   25.5500   97.7100 O.3    13  SER13      -0.2182
      7  N         94.9120   26.7450   94.6720 N.am   14  GLY14      -0.1942
      8  CA        93.6800   27.4420   94.3530 C.3    14  GLY14       0.2014
      9  C         93.3830   27.6180   92.8730 C.2    14  GLY14       0.2639
     10  O         92.2110   27.6670   92.5010 O.2    14  GLY14      -0.2714
     11  N         94.4050   27.6880   92.0180 N.am   15  VAL15      -0.1963
     12  CA        94.2250   28.1130   90.6280 C.3    15  VAL15       0.1727
     13  C         93.4670   27.1050   89.7690 C.2    15  VAL15       0.2617
     14  O         93.2470   27.3510   88.5790 O.2    15  VAL15      -0.2715
     15  CB        95.5810   28.4390   89.9690 C.3    15  VAL15       0.0290
     16  CG1       96.2720   29.5150   90.7310 C.3    15  VAL15       0.0023
     17  CG2       96.4510   27.1920   89.8790 C.3    15  VAL15       0.0023
     18  N         93.0870   25.9610   90.3340 N.am   16  GLY16      -0.1940
     19  CA        92.3030   25.0000   89.5850 C.3    16  GLY16       0.2014
     20  C         93.0660   23.9490   88.8060 C.2    16  GLY16       0.2639
     21  O         92.6160   23.5540   87.7260 O.2    16  GLY16      -0.2714
     22  N         94.1980   23.4590   89.3180 N.am   17  LYS17      -0.1963
     23  CA        94.9470   22.4380   88.5830 C.3    17  LYS17       0.1728
     24  C         94.1980   21.1130   88.5610 C.2    17  LYS17       0.2617
     25  O         94.0680   20.4760   87.5090 O.2    17  LYS17      -0.2715
     26  CB        96.3440   22.2550   89.1860 C.3    17  LYS17       0.0311
     27  CG        97.2110   23.4900   89.0980 C.3    17  LYS17       0.0038
     28  CD        98.5740   23.2690   89.7170 C.3    17  LYS17       0.0206
     29  CE        98.4550   22.7750   91.1430 C.3    17  LYS17       0.1093
     30  NZ        97.7640   23.7260   92.0610 N.3    17  LYS17      -0.1314
     31  N         93.7010   20.6790   89.7190 N.am   18  SER18      -0.1936
     32  CA        93.0490   19.3810   89.8060 C.3    18  SER18       0.2055
     33  C         91.8210   19.2960   88.8950 C.2    18  SER18       0.2643
     34  O         91.5280   18.2280   88.3430 O.2    18  SER18      -0.2714
     35  CB        92.6780   19.1140   91.2620 C.3    18  SER18       0.2130
     36  OG        93.7290   19.5080   92.1220 O.3    18  SER18      -0.2179
     37  N         91.1090   20.4140   88.7170 N.am   19  ASN19      -0.1971
     38  CA        89.9450   20.4900   87.8400 C.3    19  ASN19       0.1688
     39  C         90.3230   20.4730   86.3660 C.2    19  ASN19       0.2292
     40  O         89.6200   19.8650   85.5530 O.2    19  ASN19      -0.2864
     41  CB        89.1530   21.7550   88.1490 C.3    19  ASN19       0.1181
     42  CG        88.1350   21.5420   89.2320 C.2    19  ASN19       0.2629
     43  OD1       87.1390   20.8580   89.0190 O.2    19  ASN19      -0.2716
     44  ND2       88.3690   22.1240   90.4010 N.am   19  ASN19      -0.0877
     45  N         84.2460   17.9070   86.3410 N.3    29  PHE29      -0.1227
     46  CA        84.5530   19.1060   87.0970 C.3    29  PHE29       0.1736
     47  C         84.0570   18.8980   88.5160 C.2    29  PHE29       0.2595
     48  O         82.9410   18.4140   88.7270 O.2    29  PHE29      -0.2718
     49  CB        83.8950   20.3340   86.4790 C.3    29  PHE29       0.0547
     50  CG        84.1830   21.5950   87.2090 C.ar   29  PHE29      -0.0202
     51  CD1       83.4400   21.9530   88.3180 C.ar   29  PHE29      -0.0042
     52  CD2       85.2000   22.4270   86.7850 C.ar   29  PHE29      -0.0042
     53  CE1       83.7110   23.1100   88.9920 C.ar   29  PHE29      -0.0003
     54  CE2       85.4730   23.5950   87.4510 C.ar   29  PHE29      -0.0003
     55  CZ        84.7280   23.9380   88.5540 C.ar   29  PHE29      -0.0000
     56  N         84.8730   19.2900   89.4850 N.am   30  ASN30      -0.1960
     57  CA        84.6310   18.9340   90.8730 C.3    30  ASN30       0.1819
     58  C         84.8390   20.1540   91.7550 C.2    30  ASN30       0.2621
     59  O         85.7850   20.9200   91.5490 O.2    30  ASN30      -0.2715
     60  CB        85.5670   17.8050   91.3070 C.3    30  ASN30       0.1195
     61  CG        85.1110   17.1270   92.5760 C.2    30  ASN30       0.2630
     62  OD1       84.6510   17.7730   93.5190 O.2    30  ASN30      -0.2716
     63  ND2       85.2520   15.8080   92.6140 N.am   30  ASN30      -0.0877
     64  N         83.9450   20.3330   92.7240 N.am   31  LEU31      -0.1977
     65  CA        84.0890   21.3300   93.7750 C.3    31  LEU31       0.1596
     66  C         84.7040   20.7540   95.0500 C.2    31  LEU31       0.2287
     67  O         84.8580   21.4950   96.0290 O.2    31  LEU31      -0.2864
     68  CB        82.7250   21.9590   94.0990 C.3    31  LEU31       0.0297
     69  CG        81.9350   22.7420   93.0400 C.3    31  LEU31       0.0022
     70  CD1       81.1290   21.8350   92.1110 C.3    31  LEU31       0.0001
     71  CD2       81.0090   23.7620   93.7200 C.3    31  LEU31       0.0001
     72  N         87.9780   18.6380   95.8790 N.3    33  SER33      -0.1202
     73  CA        89.2420   17.9270   95.7850 C.3    33  SER33       0.2020
     74  C         89.8590   17.6700   97.1470 C.2    33  SER33       0.2618
     75  O         90.8320   16.9120   97.2340 O.2    33  SER33      -0.2717
     76  CB        90.2420   18.6890   94.9020 C.3    33  SER33       0.2103
     77  OG        91.4450   18.1090   94.8100 O.3    33  SER33      -0.2182
     78  N         89.3050   18.2590   98.2040 N.am   34  LYS34      -0.1979
     79  CA        89.8730   18.0990   99.5360 C.3    34  LYS34       0.1596
     80  C         89.9130   16.6280   99.9380 C.2    34  LYS34       0.2287
     81  O         88.9510   15.8830   99.7250 O.2    34  LYS34      -0.2864
     82  CB        89.0640   18.9030  100.5590 C.3    34  LYS34       0.0298
     83  CG        88.8970   20.3740  100.2010 C.3    34  LYS34       0.0038
     84  CD        90.2090   21.1360  100.3040 C.3    34  LYS34       0.0206
     85  CE        90.0660   22.5850   99.8740 C.3    34  LYS34       0.1093
     86  NZ        90.1590   22.7550   98.3970 N.3    34  LYS34      -0.1314
     87  N         98.2620   17.7680   94.0260 N.3    61  ALA61      -0.1245
     88  CA        97.2480   17.7580   95.0870 C.3    61  ALA61       0.1562
     89  C         97.6830   18.8530   96.0590 C.2    61  ALA61       0.2260
     90  O         98.0900   19.9270   95.6050 O.2    61  ALA61      -0.2867
     91  CB        97.0780   16.3780   95.6890 C.3    61  ALA61       0.0290
     92  N        101.6950   21.5130   96.8710 N.3    64  GLU64      -0.1245
     93  CA       101.6980   22.9560   96.6250 C.3    64  GLU64       0.1567
     94  C        101.4030   23.6410   97.9490 C.2    64  GLU64       0.2260
     95  O        101.2690   22.9660   98.9750 O.2    64  GLU64      -0.2867
     96  CB       100.5980   23.2930   95.6190 C.3    64  GLU64       0.0388
     97  CG        99.3150   22.5520   96.0650 C.3    64  GLU64       0.1160
     98  CD        98.0430   22.8570   95.2730 C.2    64  GLU64       0.3649
     99  OE1       98.0230   22.6650   94.0380 O.co2  64  GLU64      -0.2457
    100  OE2       97.0400   23.2660   95.9150 O.co2  64  GLU64      -0.2457
    101  N         93.9070   30.1590   83.9330 N.3   117  ASN117     -0.1225
    102  CA        92.6720   29.4370   84.2000 C.3   117  ASN117      0.1785
    103  C         91.5730   30.3890   84.6560 C.2   117  ASN117      0.2597
    104  O         91.8320   31.5180   85.0810 O.2   117  ASN117     -0.2718
    105  CB        92.8730   28.3590   85.2620 C.3   117  ASN117      0.1169
    106  CG        91.7480   27.3360   85.2710 C.2   117  ASN117      0.2627
    107  OD1       91.2600   26.9330   84.2180 O.2   117  ASN117     -0.2716
    108  ND2       91.3300   26.9180   86.4580 N.am  117  ASN117     -0.0877
    109  N         90.3310   29.9000   84.5620 N.am  118  LYS118     -0.1980
    110  CA        89.1350   30.6260   84.9790 C.3   118  LYS118      0.1596
    111  C         88.9270   31.8710   84.1300 C.2   118  LYS118      0.2287
    112  O         88.5370   32.9250   84.6340 O.2   118  LYS118     -0.2864
    113  CB        89.1730   30.9890   86.4680 C.3   118  LYS118      0.0298
    114  CG        89.5280   29.8290   87.3890 C.3   118  LYS118      0.0038
    115  CD        89.5910   30.2600   88.8560 C.3   118  LYS118      0.0206
    116  CE        90.2050   29.1710   89.7120 C.3   118  LYS118      0.1093
    117  NZ        89.9990   29.3940   91.1580 N.3   118  LYS118     -0.1314
    118  N         86.5510   32.1440   82.3580 N.3   120  ASP120     -0.1225
    119  CA        85.1030   32.2600   82.3050 C.3   120  ASP120      0.1805
    120  C         84.5900   33.3180   83.2600 C.2   120  ASP120      0.2597
    121  O         83.4810   33.8250   83.0650 O.2   120  ASP120     -0.2718
    122  CB        84.4480   30.9050   82.6080 C.3   120  ASP120      0.1424
    123  CG        84.7350   30.3970   84.0250 C.2   120  ASP120      0.3668
    124  OD1       84.0410   30.8230   84.9660 O.co2 120  ASP120     -0.2456
    125  OD2       85.6350   29.5450   84.1990 O.co2 120  ASP120     -0.2456
    126  N         85.3680   33.6640   84.2850 N.am  121  LEU121     -0.1979
    127  CA        85.0350   34.7880   85.1560 C.3   121  LEU121      0.1596
    128  C         85.5080   36.1010   84.5220 C.2   121  LEU121      0.2287
    129  O         86.2150   36.9130   85.1200 O.2   121  LEU121     -0.2864
    130  CB        85.6320   34.5830   86.5420 C.3   121  LEU121      0.0297
    131  CG        85.1640   33.3350   87.2880 C.3   121  LEU121      0.0022
    132  CD1       85.9050   33.1930   88.6070 C.3   121  LEU121      0.0001
    133  CD2       83.6710   33.3620   87.5070 C.3   121  LEU121      0.0001
    134  N         89.1840   27.5830   80.6040 N.3   147  SER147     -0.1202
    135  CA        88.2110   27.4950   81.6800 C.3   147  SER147      0.2020
    136  C         87.9440   26.0180   81.9200 C.2   147  SER147      0.2619
    137  O         87.4820   25.3220   81.0140 O.2   147  SER147     -0.2717
    138  CB        86.9270   28.2440   81.3140 C.3   147  SER147      0.2103
    139  OG        85.8860   27.9130   82.2050 O.3   147  SER147     -0.2182
    140  N         88.2780   25.5290   83.1160 N.am  148  ALA148     -0.1965
    141  CA        87.9800   24.1430   83.4460 C.3   148  ALA148      0.1728
    142  C         86.5080   23.9570   83.7680 C.2   148  ALA148      0.2616
    143  O         86.0040   22.8320   83.7110 O.2   148  ALA148     -0.2715
    144  CB        88.8410   23.6740   84.6210 C.3   148  ALA148      0.0334
    145  N         85.8150   25.0480   84.0980 N.am  149  LEU149     -0.1977
    146  CA        84.3790   25.0040   84.3410 C.3   149  LEU149      0.1596
    147  C         83.6020   24.6450   83.0760 C.2   149  LEU149      0.2287
    148  O         82.7720   23.7260   83.0820 O.2   149  LEU149     -0.2864
    149  CB        83.9120   26.3490   84.8880 C.3   149  LEU149      0.0297
    150  CG        82.3970   26.4990   84.9000 C.3   149  LEU149      0.0022
    151  CD1       81.8280   25.5450   85.9280 C.3   149  LEU149      0.0001
    152  CD2       82.0070   27.9290   85.1830 C.3   149  LEU149      0.0001
@<TRIPOS>BOND
     1   134   135    1
     2   137   136    2
     3   138   135    1
     4   138   139    1
     5   135   136    1
     6   136   140   am
     7   119   118    1
     8   119   122    1
     9   119   120    1
    10   122   123    1
    11   121   120    2
    12   147   148    2
    13   147   146    1
    14   140   141    1
    15   120   126   am
    16   141   142    1
    17   141   144    1
    18   143   142    2
    19   142   145   am
    20   101   102    1
    21   123   125   ar
    22   123   124   ar
    23   145   146    1
    24   111   112    2
    25   111   110    1
    26   102   103    1
    27   102   105    1
    28   107   106    2
    29   126   127    1
    30   146   149    1
    31   128   129    2
    32   128   127    1
    33   109   103   am
    34   109   110    1
    35   103   104    2
    36   149   150    1
    37   150   152    1
    38   150   151    1
    39   110   113    1
    40   127   130    1
    41   105   106    1
    42   106   108   am
    43    40    39    2
    44    45    46    1
    45    39    38    1
    46   113   114    1
    47    49    46    1
    48    49    50    1
    49   130   131    1
    50    52    50   ar
    51    52    54   ar
    52    46    47    1
    53    50    51   ar
    54   131   133    1
    55   131   132    1
    56   114   115    1
    57    54    55   ar
    58    25    24    2
    59    21    20    2
    60    38    41    1
    61    38    37    1
    62    41    42    1
    63    51    53   ar
    64    34    33    2
    65    47    48    2
    66    47    56   am
    67    55    53   ar
    68    24    23    1
    69    24    31   am
    70    14    13    2
    71    23    26    1
    72    23    22    1
    73    37    33   am
    74    20    22   am
    75    20    19    1
    76   115   116    1
    77    33    32    1
    78    43    42    2
    79    27    26    1
    80    27    28    1
    81    42    44   am
    82    56    57    1
    83    19    18    1
    84   116   117    1
    85    28    29    1
    86    31    32    1
    87    13    18   am
    88    13    12    1
    89    32    35    1
    90    17    15    1
    91    15    12    1
    92    15    16    1
    93    12    11    1
    94    57    60    1
    95    57    58    1
    96    29    30    1
    97    35    36    1
    98    60    61    1
    99    59    58    2
   100    58    64   am
   101    11     9   am
   102    70    69    1
   103    10     9    2
   104    61    63   am
   105    61    62    2
   106    64    65    1
   107     9     8    1
   108    69    71    1
   109    69    68    1
   110    65    68    1
   111    65    66    1
   112    87    88    1
   113    99    98   ar
   114     8     7    1
   115     7     3   am
   116    77    76    1
   117    76    73    1
   118     4     3    2
   119     1     2    1
   120    66    67    2
   121     3     2    1
   122    88    91    1
   123    88    89    1
   124    98   100   ar
   125    98    97    1
   126     2     5    1
   127    90    89    2
   128    96    97    1
   129    96    93    1
   130    73    72    1
   131    73    74    1
   132    93    92    1
   133    93    94    1
   134     5     6    1
   135    74    75    2
   136    74    78   am
   137    94    95    2
   138    78    79    1
   139    86    85    1
   140    79    80    1
   141    79    82    1
   142    81    80    2
   143    85    84    1
   144    83    84    1
   145    83    82    1
