@<TRIPOS>MOLECULE
tmp/5xr6A00.pdb
 167 161 0 0 0
SMALL
GASTEIGER

@<TRIPOS>ATOM
      1  N       -119.1770   52.8130   11.4500 N.3    15  SER15      -0.1202
      2  CA      -120.3600   52.4810   12.2230 C.3    15  SER15       0.2020
      3  C       -121.3730   51.7020   11.3940 C.2    15  SER15       0.2619
      4  O       -121.7790   52.1280   10.3120 O.2    15  SER15      -0.2717
      5  CB      -120.9950   53.7600   12.7590 C.3    15  SER15       0.2103
      6  OG      -120.4960   54.0550   14.0550 O.3    15  SER15      -0.2182
      7  N       -121.7890   50.5570   11.9120 N.am   16  GLY16      -0.1942
      8  CA      -122.9070   49.8660   11.3260 C.3    16  GLY16       0.2014
      9  C       -122.5560   48.9190   10.2180 C.2    16  GLY16       0.2639
     10  O       -123.4640   48.3800    9.5740 O.2    16  GLY16      -0.2714
     11  N       -121.2660   48.7060    9.9600 N.am   17  VAL17      -0.1963
     12  CA      -120.8700   47.7460    8.9420 C.3    17  VAL17       0.1727
     13  C       -121.0780   46.3230    9.4130 C.2    17  VAL17       0.2617
     14  O       -120.9230   45.3920    8.6150 O.2    17  VAL17      -0.2715
     15  CB      -119.4030   47.9590    8.5280 C.3    17  VAL17       0.0290
     16  CG1     -119.2170   49.3590    7.9530 C.3    17  VAL17       0.0023
     17  CG2     -118.4900   47.7390    9.7230 C.3    17  VAL17       0.0023
     18  N       -121.4330   46.1390   10.6840 N.am   18  GLY18      -0.1940
     19  CA      -121.7170   44.8270   11.2200 C.3    18  GLY18       0.2014
     20  C       -120.6110   44.1930   12.0300 C.2    18  GLY18       0.2639
     21  O       -120.6730   42.9780   12.2700 O.2    18  GLY18      -0.2714
     22  N       -119.6140   44.9800   12.4650 N.am   19  LYS19      -0.1963
     23  CA      -118.4540   44.4500   13.1820 C.3    19  LYS19       0.1728
     24  C       -118.8720   43.6010   14.3710 C.2    19  LYS19       0.2617
     25  O       -118.3760   42.4790   14.5560 O.2    19  LYS19      -0.2715
     26  CB      -117.5590   45.5900   13.6750 C.3    19  LYS19       0.0311
     27  CG      -116.7560   46.2840   12.6180 C.3    19  LYS19       0.0038
     28  CD      -115.8130   47.2710   13.2650 C.3    19  LYS19       0.0206
     29  CE      -116.5770   48.3690   13.9680 C.3    19  LYS19       0.1093
     30  NZ      -117.2940   49.2580   13.0280 N.3    19  LYS19      -0.1314
     31  N       -119.7570   44.1390   15.2140 N.am   20  SER20      -0.1936
     32  CA      -120.0950   43.4150   16.4290 C.3    20  SER20       0.2055
     33  C       -120.8120   42.1190   16.0910 C.2    20  SER20       0.2643
     34  O       -120.5300   41.0720   16.6880 O.2    20  SER20      -0.2714
     35  CB      -120.9220   44.2980   17.3580 C.3    20  SER20       0.2130
     36  OG      -120.1260   45.3570   17.8630 O.3    20  SER20      -0.2179
     37  N       -121.6900   42.1540   15.0850 N.am   21  ASN21      -0.1971
     38  CA      -122.4160   40.9500   14.7140 C.3    21  ASN21       0.1688
     39  C       -121.4920   39.9040   14.1000 C.2    21  ASN21       0.2292
     40  O       -121.6450   38.7090   14.3750 O.2    21  ASN21      -0.2864
     41  CB      -123.5760   41.3050   13.7800 C.3    21  ASN21       0.1181
     42  CG      -124.7120   42.0320   14.5120 C.2    21  ASN21       0.2629
     43  OD1     -124.4830   42.7600   15.4740 O.2    21  ASN21      -0.2716
     44  ND2     -125.9310   41.8320   14.0560 N.am   21  ASN21      -0.0877
     45  N       -126.7530   35.6000   15.6140 N.3    31  PHE31      -0.1227
     46  CA      -126.9880   36.8640   14.9160 C.3    31  PHE31       0.1736
     47  C       -127.8690   37.7370   15.8060 C.2    31  PHE31       0.2595
     48  O       -129.0770   37.5110   15.9330 O.2    31  PHE31      -0.2718
     49  CB      -127.6140   36.6810   13.5370 C.3    31  PHE31       0.0547
     50  CG      -127.8340   37.9870   12.8230 C.ar   31  PHE31      -0.0202
     51  CD1     -126.7530   38.7730   12.4530 C.ar   31  PHE31      -0.0042
     52  CD2     -129.1120   38.4550   12.5580 C.ar   31  PHE31      -0.0042
     53  CE1     -126.9320   39.9880   11.8130 C.ar   31  PHE31      -0.0003
     54  CE2     -129.2980   39.6760   11.9140 C.ar   31  PHE31      -0.0003
     55  CZ      -128.2000   40.4420   11.5460 C.ar   31  PHE31      -0.0000
     56  N       -127.2490   38.7350   16.4230 N.am   32  ASN32      -0.1960
     57  CA      -127.9570   39.7040   17.2400 C.3    32  ASN32       0.1819
     58  C       -128.8720   40.5500   16.3670 C.2    32  ASN32       0.2621
     59  O       -128.4370   41.5470   15.7810 O.2    32  ASN32      -0.2715
     60  CB      -126.9600   40.5900   17.9930 C.3    32  ASN32       0.1195
     61  CG      -127.5980   41.3320   19.1440 C.2    32  ASN32       0.2630
     62  OD1     -128.8190   41.5160   19.1760 O.2    32  ASN32      -0.2716
     63  ND2     -126.7790   41.7690   20.0980 N.am   32  ASN32      -0.0877
     64  N       -130.1410   40.1550   16.2680 N.am   33  LEU33      -0.1977
     65  CA      -131.1160   40.9580   15.5410 C.3    33  LEU33       0.1596
     66  C       -131.3870   42.2880   16.2360 C.2    33  LEU33       0.2287
     67  O       -132.0000   43.1760   15.6410 O.2    33  LEU33      -0.2864
     68  CB      -132.4050   40.1410   15.3760 C.3    33  LEU33       0.0297
     69  CG      -133.2940   40.3010   14.1390 C.3    33  LEU33       0.0022
     70  CD1     -134.1910   39.0660   13.9970 C.3    33  LEU33       0.0001
     71  CD2     -134.1520   41.5670   14.1840 C.3    33  LEU33       0.0001
     72  N       -129.1660   44.5780   17.7160 N.3    35  SER35      -0.1202
     73  CA      -127.8610   45.1490   18.0040 C.3    35  SER35       0.2020
     74  C       -127.9440   46.6640   18.1490 C.2    35  SER35       0.2619
     75  O       -128.9150   47.3100   17.7490 O.2    35  SER35      -0.2717
     76  CB      -126.8520   44.7770   16.9160 C.3    35  SER35       0.2103
     77  OG      -125.5240   44.9860   17.3670 O.3    35  SER35      -0.2182
     78  N       -126.8960   47.2190   18.7440 N.am   36  LYS36      -0.1965
     79  CA      -126.8090   48.6300   19.0690 C.3    36  LYS36       0.1728
     80  C       -125.3410   49.0390   19.0090 C.2    36  LYS36       0.2617
     81  O       -124.4410   48.2230   19.2370 O.2    36  LYS36      -0.2715
     82  CB      -127.3960   48.9290   20.4610 C.3    36  LYS36       0.0311
     83  CG      -127.9630   50.3440   20.6080 C.3    36  LYS36       0.0038
     84  CD      -128.5270   50.6090   22.0180 C.3    36  LYS36       0.0206
     85  CE      -129.4610   51.8330   22.0410 C.3    36  LYS36       0.1093
     86  NZ      -128.7920   53.1120   21.6230 N.3    36  LYS36      -0.1314
     87  N       -125.1140   50.3080   18.6970 N.am   37  SER37      -0.1936
     88  CA      -123.7650   50.8140   18.5810 C.3    37  SER37       0.2055
     89  C       -122.9780   50.5290   19.8590 C.2    37  SER37       0.2643
     90  O       -123.5110   50.5650   20.9780 O.2    37  SER37      -0.2714
     91  CB      -123.7910   52.3070   18.2890 C.3    37  SER37       0.2130
     92  OG      -122.4660   52.8160   18.2960 O.3    37  SER37      -0.2179
     93  N       -121.6960   50.2270   19.6850 N.am   38  THR38      -0.1950
     94  CA      -120.8900   49.7290   20.7820 C.3    38  THR38       0.1897
     95  C       -120.3700   50.8870   21.6350 C.2    38  THR38       0.2313
     96  O       -120.0620   51.9690   21.1240 O.2    38  THR38      -0.2863
     97  CB      -119.7530   48.8800   20.2170 C.3    38  THR38       0.1794
     98  OG1     -120.2920   47.6090   19.8300 O.3    38  THR38      -0.2208
     99  CG2     -118.6100   48.6840   21.2450 C.3    38  THR38       0.0378
    100  N       -114.5750   47.6920   18.8100 N.3    62  THR62      -0.1203
    101  CA      -114.8250   49.0590   19.2290 C.3    62  THR62       0.1994
    102  C       -115.8040   49.6800   18.2530 C.2    62  THR62       0.2618
    103  O       -116.0490   49.1450   17.1740 O.2    62  THR62      -0.2717
    104  CB      -113.5260   49.8800   19.2740 C.3    62  THR62       0.1784
    105  OG1     -113.7920   51.1910   19.7890 O.3    62  THR62      -0.2211
    106  CG2     -112.9290   50.0100   17.8860 C.3    62  THR62       0.0376
    107  N       -116.3520   50.8290   18.6260 N.am   63  ALA63      -0.1965
    108  CA      -117.2730   51.5070   17.7300 C.3    63  ALA63       0.1728
    109  C       -116.5070   52.2460   16.6450 C.2    63  ALA63       0.2616
    110  O       -115.2950   52.4440   16.7330 O.2    63  ALA63      -0.2715
    111  CB      -118.1660   52.4900   18.4810 C.3    63  ALA63       0.0334
    112  N       -117.2440   52.6660   15.6190 N.am   64  GLY64      -0.1955
    113  CA      -116.6680   53.2990   14.4500 C.3    64  GLY64       0.1869
    114  C       -116.5040   54.8070   14.5070 C.2    64  GLY64       0.2309
    115  O       -115.6050   55.3490   13.8540 O.2    64  GLY64      -0.2863
    116  N       -118.9010   42.9310    4.2800 N.3   117  ASN117     -0.1225
    117  CA      -119.9640   42.3050    5.0510 C.3   117  ASN117      0.1785
    118  C       -121.3480   42.5940    4.4450 C.2   117  ASN117      0.2597
    119  O       -121.5350   43.5430    3.6800 O.2   117  ASN117     -0.2718
    120  CB      -119.9000   42.7910    6.5010 C.3   117  ASN117      0.1169
    121  CG      -120.8010   41.9890    7.4330 C.2   117  ASN117      0.2627
    122  OD1     -121.0790   40.8100    7.2020 O.2   117  ASN117     -0.2716
    123  ND2     -121.2650   42.6340    8.4930 N.am  117  ASN117     -0.0877
    124  N       -122.3180   41.7470    4.8190 N.am  118  LYS118     -0.1980
    125  CA      -123.7330   41.8490    4.4150 C.3   118  LYS118      0.1596
    126  C       -123.9320   41.4050    2.9710 C.2   118  LYS118      0.2287
    127  O       -124.6920   42.0170    2.2250 O.2   118  LYS118     -0.2864
    128  CB      -124.3150   43.2560    4.6190 C.3   118  LYS118      0.0298
    129  CG      -124.2740   43.7810    6.0520 C.3   118  LYS118      0.0038
    130  CD      -124.7240   45.2380    6.1460 C.3   118  LYS118      0.0206
    131  CE      -124.7180   45.7280    7.5970 C.3   118  LYS118      0.1093
    132  NZ      -125.0980   47.1630    7.7770 N.3   118  LYS118     -0.1314
    133  N       -125.5300   39.0830    1.9360 N.3   120  ASP120     -0.1225
    134  CA      -126.8820   38.5730    1.7710 C.3   120  ASP120      0.1805
    135  C       -127.8270   39.6350    1.2190 C.2   120  ASP120      0.2597
    136  O       -128.7530   39.3010    0.4690 O.2   120  ASP120     -0.2718
    137  CB      -127.3880   38.0460    3.1080 C.3   120  ASP120      0.1424
    138  CG      -127.3810   39.1180    4.1940 C.2   120  ASP120      0.3668
    139  OD1     -126.3370   39.3120    4.8510 O.co2 120  ASP120     -0.2456
    140  OD2     -128.4200   39.7860    4.3850 O.co2 120  ASP120     -0.2456
    141  N       -127.6150   40.9120    1.5570 N.am  121  LEU121     -0.1979
    142  CA      -128.4250   41.9920    0.9990 C.3   121  LEU121      0.1596
    143  C       -128.1200   42.1760   -0.4810 C.2   121  LEU121      0.2287
    144  O       -127.7210   43.2670   -0.9080 O.2   121  LEU121     -0.2864
    145  CB      -128.1780   43.3000    1.7510 C.3   121  LEU121      0.0297
    146  CG      -128.6800   43.3590    3.1880 C.3   121  LEU121      0.0022
    147  CD1     -128.2710   44.6680    3.8290 C.3   121  LEU121      0.0001
    148  CD2     -130.1830   43.1810    3.2250 C.3   121  LEU121      0.0001
    149  N       -121.3820   37.2770    5.3190 N.3   147  SER147     -0.1202
    150  CA      -122.6570   37.6640    5.8990 C.3   147  SER147      0.2020
    151  C       -122.6770   37.1850    7.3380 C.2   147  SER147      0.2619
    152  O       -122.5930   35.9790    7.5930 O.2   147  SER147     -0.2717
    153  CB      -123.8380   37.0890    5.1130 C.3   147  SER147      0.2103
    154  OG      -125.0500   37.5460    5.6740 O.3   147  SER147     -0.2182
    155  N       -122.7450   38.1310    8.2750 N.am  148  ALA148     -0.1965
    156  CA      -122.9860   37.7620    9.6640 C.3   148  ALA148      0.1728
    157  C       -124.3770   37.1710    9.8360 C.2   148  ALA148      0.2616
    158  O       -124.5720   36.2560   10.6470 O.2   148  ALA148     -0.2715
    159  CB      -122.8080   38.9810   10.5720 C.3   148  ALA148      0.0334
    160  N       -125.3420   37.6620    9.0570 N.am  149  LEU149     -0.1977
    161  CA      -126.7180   37.2250    9.2140 C.3   149  LEU149      0.1596
    162  C       -126.8900   35.7590    8.8300 C.2   149  LEU149      0.2287
    163  O       -127.6260   35.0270    9.4980 O.2   149  LEU149     -0.2864
    164  CB      -127.6370   38.1380    8.3980 C.3   149  LEU149      0.0297
    165  CG      -129.1270   37.8000    8.3350 C.3   149  LEU149      0.0022
    166  CD1     -129.9420   39.0690    8.3200 C.3   149  LEU149      0.0001
    167  CD2     -129.4390   37.0030    7.0920 C.3   149  LEU149      0.0001
@<TRIPOS>BOND
     1   144   143    2
     2   143   142    1
     3   136   135    2
     4   142   141    1
     5   142   145    1
     6   135   141   am
     7   135   134    1
     8   145   146    1
     9   134   133    1
    10   134   137    1
    11   127   126    2
    12   126   125    1
    13   137   138    1
    14   146   148    1
    15   146   147    1
    16   119   118    2
    17   138   140   ar
    18   138   139   ar
    19   116   117    1
    20   125   128    1
    21   125   124    1
    22   118   124   am
    23   118   117    1
    24   128   129    1
    25   117   120    1
    26   153   154    1
    27   153   150    1
    28   149   150    1
    29   150   151    1
    30   129   130    1
    31   130   131    1
    32   120   121    1
    33   167   165    1
    34   122   121    2
    35   151   152    2
    36   151   155   am
    37   121   123   am
    38   131   132    1
    39    16    15    1
    40   155   156    1
    41   166   165    1
    42   165   164    1
    43   164   161    1
    44    15    12    1
    45    15    17    1
    46    14    13    2
    47   162   161    1
    48   162   163    2
    49    12    13    1
    50    12    11    1
    51   160   161    1
    52   160   157   am
    53    13    18   am
    54    10     9    2
    55   156   157    1
    56   156   159    1
    57   157   158    2
    58    11     9   am
    59     9     8    1
    60     4     3    2
    61    18    19    1
    62    19    20    1
    63     8     7    1
    64     3     7   am
    65     3     2    1
    66     1     2    1
    67    55    53   ar
    68    55    54   ar
    69    53    51   ar
    70    54    52   ar
    71    20    21    2
    72    20    22   am
    73     2     5    1
    74    51    50   ar
    75    22    23    1
    76    52    50   ar
    77    27    28    1
    78    27    26    1
    79     5     6    1
    80    50    49    1
    81    30    29    1
    82    23    26    1
    83    23    24    1
    84    28    29    1
    85    49    46    1
    86    41    42    1
    87    41    38    1
    88   115   114    2
    89    70    69    1
    90    44    42   am
    91    39    40    2
    92    39    38    1
    93    69    71    1
    94    69    68    1
    95    24    25    2
    96    24    31   am
    97   113   114    1
    98   113   112    1
    99    42    43    2
   100    38    37    1
   101    46    45    1
   102    46    47    1
   103    37    33   am
   104    31    32    1
   105    68    65    1
   106    65    66    1
   107    65    64    1
   108   112   109   am
   109    67    66    2
   110    59    58    2
   111    47    48    2
   112    47    56   am
   113    33    32    1
   114    33    34    2
   115    64    58   am
   116    58    57    1
   117    56    57    1
   118    32    35    1
   119   109   110    2
   120   109   108    1
   121    76    77    1
   122    76    73    1
   123   103   102    2
   124    57    60    1
   125    35    36    1
   126    72    73    1
   127   108   111    1
   128   108   107    1
   129    75    74    2
   130   106   104    1
   131    60    61    1
   132    73    74    1
   133    74    78   am
   134   102   107   am
   135   102   101    1
   136    91    92    1
   137    91    88    1
   138    88    87    1
   139    88    89    1
   140    87    80   am
   141    78    79    1
   142   100   101    1
   143    80    79    1
   144    80    81    2
   145    79    82    1
   146    61    62    2
   147    61    63   am
   148   101   104    1
   149   104   105    1
   150    93    89   am
   151    93    94    1
   152    98    97    1
   153    89    90    2
   154    97    94    1
   155    97    99    1
   156    82    83    1
   157    83    84    1
   158    94    95    1
   159    96    95    2
   160    86    85    1
   161    84    85    1
