@<TRIPOS>MOLECULE
tmp/5xr7B00.pdb
 176 170 0 0 0
SMALL
GASTEIGER

@<TRIPOS>ATOM
      1  N       -118.7880  -54.5490  -13.2940 N.3    12  SER12      -0.1202
      2  CA      -119.8880  -54.1050  -14.1390 C.3    12  SER12       0.2020
      3  C       -120.9210  -53.2980  -13.3550 C.2    12  SER12       0.2619
      4  O       -121.2460  -53.6080  -12.2070 O.2    12  SER12      -0.2717
      5  CB      -120.5570  -55.3080  -14.7880 C.3    12  SER12       0.2103
      6  OG      -121.3870  -54.8740  -15.8350 O.3    12  SER12      -0.2182
      7  N       -121.4320  -52.2500  -13.9890 N.am   13  GLY13      -0.1942
      8  CA      -122.4680  -51.4450  -13.3750 C.3    13  GLY13       0.2014
      9  C       -122.0630  -50.7040  -12.1180 C.2    13  GLY13       0.2639
     10  O       -122.9150  -50.4610  -11.2470 O.2    13  GLY13      -0.2714
     11  N       -120.7920  -50.3310  -11.9870 N.am   14  VAL14      -0.1963
     12  CA      -120.4210  -49.4440  -10.8890 C.3    14  VAL14       0.1727
     13  C       -120.5620  -47.9730  -11.2520 C.2    14  VAL14       0.2617
     14  O       -120.6100  -47.1270  -10.3430 O.2    14  VAL14      -0.2715
     15  CB      -118.9850  -49.6890  -10.4060 C.3    14  VAL14       0.0290
     16  CG1     -118.8530  -51.1010   -9.8460 C.3    14  VAL14       0.0023
     17  CG2     -118.0110  -49.4470  -11.5480 C.3    14  VAL14       0.0023
     18  N       -120.6110  -47.6400  -12.5480 N.am   15  GLY15      -0.1940
     19  CA      -120.8060  -46.2640  -12.9440 C.3    15  GLY15       0.2014
     20  C       -119.7540  -45.7470  -13.8960 C.2    15  GLY15       0.2639
     21  O       -119.7800  -44.5710  -14.2790 O.2    15  GLY15      -0.2714
     22  N       -118.8290  -46.6190  -14.3020 N.am   16  LYS16      -0.1963
     23  CA      -117.7060  -46.1800  -15.1300 C.3    16  LYS16       0.1728
     24  C       -118.1780  -45.3270  -16.2980 C.2    16  LYS16       0.2617
     25  O       -117.7680  -44.1690  -16.4390 O.2    16  LYS16      -0.2715
     26  CB      -116.8990  -47.3870  -15.6160 C.3    16  LYS16       0.0311
     27  CG      -116.0970  -48.0400  -14.5020 C.3    16  LYS16       0.0038
     28  CD      -115.4800  -49.3620  -14.9050 C.3    16  LYS16       0.0206
     29  CE      -116.4700  -50.2240  -15.6560 C.3    16  LYS16       0.1093
     30  NZ      -117.6650  -50.6250  -14.8730 N.3    16  LYS16      -0.1314
     31  N       -119.0880  -45.8670  -17.1130 N.am   17  SER17      -0.1936
     32  CA      -119.5240  -45.1480  -18.3080 C.3    17  SER17       0.2055
     33  C       -120.2270  -43.8510  -17.9420 C.2    17  SER17       0.2643
     34  O       -119.9890  -42.8070  -18.5660 O.2    17  SER17      -0.2714
     35  CB      -120.4340  -46.0370  -19.1390 C.3    17  SER17       0.2130
     36  OG      -119.7660  -47.2330  -19.4720 O.3    17  SER17      -0.2179
     37  N       -121.0680  -43.8910  -16.9040 N.am   18  ASN18      -0.1971
     38  CA      -121.7750  -42.6930  -16.4720 C.3    18  ASN18       0.1688
     39  C       -120.8340  -41.6790  -15.8310 C.2    18  ASN18       0.2292
     40  O       -121.0240  -40.4650  -15.9890 O.2    18  ASN18      -0.2864
     41  CB      -122.9010  -43.0830  -15.5270 C.3    18  ASN18       0.1181
     42  CG      -124.2190  -43.2540  -16.2560 C.2    18  ASN18       0.2629
     43  OD1     -124.6730  -42.3510  -16.9620 O.2    18  ASN18      -0.2716
     44  ND2     -124.8210  -44.4260  -16.1230 N.am   18  ASN18      -0.0877
     45  N       -125.9560  -37.5590  -17.7970 N.3    28  PHE28      -0.1227
     46  CA      -126.0040  -38.8650  -17.1400 C.3    28  PHE28       0.1736
     47  C       -126.9850  -39.7540  -17.8960 C.2    28  PHE28       0.2595
     48  O       -128.1040  -39.3230  -18.1990 O.2    28  PHE28      -0.2718
     49  CB      -126.4510  -38.6750  -15.6710 C.3    28  PHE28       0.0547
     50  CG      -126.8160  -39.9500  -14.9300 C.ar   28  PHE28      -0.0202
     51  CD1     -125.8690  -40.6160  -14.1630 C.ar   28  PHE28      -0.0042
     52  CD2     -128.1130  -40.4480  -14.9520 C.ar   28  PHE28      -0.0042
     53  CE1     -126.1940  -41.7750  -13.4670 C.ar   28  PHE28      -0.0003
     54  CE2     -128.4420  -41.6050  -14.2610 C.ar   28  PHE28      -0.0003
     55  CZ      -127.4800  -42.2660  -13.5190 C.ar   28  PHE28      -0.0000
     56  N       -126.5850  -40.9970  -18.1680 N.am   29  ASN29      -0.1960
     57  CA      -127.3910  -41.9200  -18.9710 C.3    29  ASN29       0.1819
     58  C       -128.2040  -42.8610  -18.0820 C.2    29  ASN29       0.2621
     59  O       -127.6430  -43.7410  -17.4200 O.2    29  ASN29      -0.2715
     60  CB      -126.5070  -42.7270  -19.9200 C.3    29  ASN29       0.1195
     61  CG      -127.0390  -42.7400  -21.3440 C.2    29  ASN29       0.2630
     62  OD1     -127.6860  -41.7880  -21.7840 O.2    29  ASN29      -0.2716
     63  ND2     -126.7790  -43.8270  -22.0690 N.am   29  ASN29      -0.0877
     64  N       -129.5330  -42.6990  -18.1020 N.am   30  LEU30      -0.1977
     65  CA      -130.4340  -43.6530  -17.4480 C.3    30  LEU30       0.1596
     66  C       -130.4240  -45.0020  -18.1640 C.2    30  LEU30       0.2287
     67  O       -130.3540  -46.0630  -17.5340 O.2    30  LEU30      -0.2864
     68  CB      -131.8650  -43.1000  -17.4210 C.3    30  LEU30       0.0297
     69  CG      -132.2560  -41.9520  -16.4920 C.3    30  LEU30       0.0022
     70  CD1     -131.7910  -42.2550  -15.0910 C.3    30  LEU30       0.0001
     71  CD2     -131.6900  -40.6370  -16.9800 C.3    30  LEU30       0.0001
     72  N       -128.2260  -46.4820  -19.7860 N.3    32  SER32      -0.1202
     73  CA      -126.8840  -47.0680  -19.7460 C.3    32  SER32       0.2020
     74  C       -126.8070  -48.5890  -19.8700 C.2    32  SER32       0.2619
     75  O       -127.1750  -49.3170  -18.9440 O.2    32  SER32      -0.2717
     76  CB      -126.1880  -46.6360  -18.4570 C.3    32  SER32       0.2103
     77  OG      -124.8310  -47.0450  -18.4690 O.3    32  SER32      -0.2182
     78  N       -126.3290  -49.0730  -21.0130 N.am   33  LYS33      -0.1965
     79  CA      -126.1590  -50.4970  -21.2590 C.3    33  LYS33       0.1728
     80  C       -124.7000  -50.8740  -21.0530 C.2    33  LYS33       0.2617
     81  O       -123.8180  -50.0140  -21.0260 O.2    33  LYS33      -0.2715
     82  CB      -126.5960  -50.8680  -22.6760 C.3    33  LYS33       0.0311
     83  CG      -125.5970  -50.4890  -23.7640 C.3    33  LYS33       0.0038
     84  CD      -125.5070  -48.9810  -24.0040 C.3    33  LYS33       0.0206
     85  CE      -126.7330  -48.4680  -24.7580 C.3    33  LYS33       0.1093
     86  NZ      -126.8260  -46.9680  -24.8060 N.3    33  LYS33      -0.1314
     87  N       -124.4490  -52.1770  -20.9080 N.am   34  SER34      -0.1936
     88  CA      -123.1050  -52.6300  -20.5590 C.3    34  SER34       0.2055
     89  C       -122.1370  -52.4020  -21.7240 C.2    34  SER34       0.2643
     90  O       -122.4360  -52.7120  -22.8800 O.2    34  SER34      -0.2714
     91  CB      -123.1280  -54.1050  -20.1450 C.3    34  SER34       0.2130
     92  OG      -121.9230  -54.6110  -19.8520 O.3    34  SER34      -0.2179
     93  N       -120.9670  -51.8580  -21.4090 N.am   35  THR35      -0.1950
     94  CA      -120.0470  -51.4170  -22.4420 C.3    35  THR35       0.1897
     95  C       -119.3750  -52.6100  -23.1090 C.2    35  THR35       0.2313
     96  O       -118.7160  -53.4170  -22.4500 O.2    35  THR35      -0.2863
     97  CB      -119.0060  -50.4830  -21.8480 C.3    35  THR35       0.1794
     98  OG1     -119.6730  -49.3840  -21.2100 O.3    35  THR35      -0.2208
     99  CG2     -118.0590  -49.9860  -22.9510 C.3    35  THR35       0.0378
    100  N       -114.3950  -49.5910  -20.5770 N.3    59  THR59      -0.1203
    101  CA      -114.7010  -50.9280  -21.0750 C.3    59  THR59       0.1994
    102  C       -115.4800  -51.6900  -20.0120 C.2    59  THR59       0.2618
    103  O       -115.6840  -51.2120  -18.8920 O.2    59  THR59      -0.2717
    104  CB      -113.4350  -51.6910  -21.4490 C.3    59  THR59       0.1784
    105  OG1     -113.7830  -52.8770  -22.1770 O.3    59  THR59      -0.2211
    106  CG2     -112.6750  -52.0770  -20.1950 C.3    59  THR59       0.0376
    107  N       -115.8800  -52.9060  -20.3720 N.am   60  ALA60      -0.1965
    108  CA      -116.7690  -53.6950  -19.5300 C.3    60  ALA60       0.1728
    109  C       -116.0860  -54.1050  -18.2420 C.2    60  ALA60       0.2617
    110  O       -114.8980  -54.4310  -18.2300 O.2    60  ALA60      -0.2715
    111  CB      -117.2280  -54.9540  -20.2600 C.3    60  ALA60       0.0334
    112  N       -116.8510  -54.0920  -17.1500 N.am   61  GLY61      -0.1940
    113  CA      -116.4260  -54.8020  -15.9590 C.3    61  GLY61       0.2014
    114  C       -116.5940  -56.3010  -16.0930 C.2    61  GLY61       0.2638
    115  O       -115.8090  -57.0660  -15.5250 O.2    61  GLY61      -0.2714
    116  N       -117.6020  -56.7400  -16.8510 N.am   62  LYS62      -0.1977
    117  CA      -117.7910  -58.1530  -17.1700 C.3    62  LYS62       0.1596
    118  C       -116.6400  -58.6550  -18.0350 C.2    62  LYS62       0.2287
    119  O       -116.5110  -58.2460  -19.1870 O.2    62  LYS62      -0.2864
    120  CB      -119.1150  -58.3670  -17.9020 C.3    62  LYS62       0.0298
    121  CG      -120.2030  -57.3950  -17.5150 C.3    62  LYS62       0.0038
    122  CD      -121.5520  -57.8280  -18.0510 C.3    62  LYS62       0.0206
    123  CE      -122.6640  -57.4310  -17.0920 C.3    62  LYS62       0.1093
    124  NZ      -124.0070  -57.3790  -17.7460 N.3    62  LYS62      -0.1314
    125  N       -118.3720  -44.5510   -6.1920 N.3   113  ASN113     -0.1225
    126  CA      -119.4230  -43.9070   -6.9670 C.3   113  ASN113      0.1785
    127  C       -120.8010  -44.1990   -6.3650 C.2   113  ASN113      0.2597
    128  O       -120.9950  -45.1670   -5.6290 O.2   113  ASN113     -0.2718
    129  CB      -119.3820  -44.3710   -8.4260 C.3   113  ASN113      0.1169
    130  CG      -120.2940  -43.5450   -9.3440 C.2   113  ASN113      0.2627
    131  OD1     -120.5200  -42.3560   -9.1170 O.2   113  ASN113     -0.2716
    132  ND2     -120.8200  -44.1870  -10.3850 N.am  113  ASN113     -0.0877
    133  N       -121.7660  -43.3510   -6.7270 N.am  114  LYS114     -0.1980
    134  CA      -123.1740  -43.4470   -6.3690 C.3   114  LYS114      0.1596
    135  C       -123.4380  -42.9480   -4.9650 C.2   114  LYS114      0.2287
    136  O       -124.4690  -43.2860   -4.3820 O.2   114  LYS114     -0.2864
    137  CB      -123.7400  -44.8660   -6.5100 C.3   114  LYS114      0.0298
    138  CG      -123.5300  -45.4940   -7.8710 C.3   114  LYS114      0.0038
    139  CD      -124.4480  -46.6840   -8.0880 C.3   114  LYS114      0.0206
    140  CE      -124.1730  -47.3150   -9.4370 C.3   114  LYS114      0.1093
    141  NZ      -124.8180  -48.6380   -9.5990 N.3   114  LYS114     -0.1314
    142  N       -124.7970  -40.6830   -3.9370 N.3   116  ASP116     -0.1225
    143  CA      -126.1260  -40.0800   -3.8800 C.3   116  ASP116      0.1805
    144  C       -127.1620  -41.0280   -3.2830 C.2   116  ASP116      0.2597
    145  O       -128.1950  -40.5750   -2.7830 O.2   116  ASP116     -0.2718
    146  CB      -126.5510  -39.6800   -5.2860 C.3   116  ASP116      0.1424
    147  CG      -126.6960  -40.8870   -6.2020 C.2   116  ASP116      0.3668
    148  OD1     -125.6780  -41.3760   -6.7500 O.co2 116  ASP116     -0.2456
    149  OD2     -127.8400  -41.3640   -6.3570 O.co2 116  ASP116     -0.2456
    150  N       -126.9140  -42.3390   -3.3380 N.am  117  LEU117     -0.1979
    151  CA      -127.8090  -43.3480   -2.7690 C.3   117  LEU117      0.1596
    152  C       -127.5570  -43.5250   -1.2610 C.2   117  LEU117      0.2287
    153  O       -127.1880  -44.5990   -0.7770 O.2   117  LEU117     -0.2864
    154  CB      -127.6300  -44.6610   -3.5230 C.3   117  LEU117      0.0297
    155  CG      -127.9790  -44.6910   -5.0140 C.3   117  LEU117      0.0022
    156  CD1     -127.7010  -46.0570   -5.6310 C.3   117  LEU117      0.0001
    157  CD2     -129.4310  -44.3190   -5.2050 C.3   117  LEU117      0.0001
    158  N       -120.7390  -38.9700   -7.1360 N.3   143  SER143     -0.1202
    159  CA      -121.9940  -39.4210   -7.7100 C.3   143  SER143      0.2020
    160  C       -122.0630  -38.9770   -9.1630 C.2   143  SER143      0.2619
    161  O       -122.0210  -37.7770   -9.4530 O.2   143  SER143     -0.2717
    162  CB      -123.1850  -38.8950   -6.9240 C.3   143  SER143      0.2103
    163  OG      -124.3760  -39.3730   -7.5070 O.3   143  SER143     -0.2182
    164  N       -122.1490  -39.9510  -10.0740 N.am  144  ALA144     -0.1965
    165  CA      -122.3830  -39.6470  -11.4810 C.3   144  ALA144      0.1728
    166  C       -123.7250  -38.9630  -11.6910 C.2   144  ALA144      0.2616
    167  O       -123.8910  -38.1850  -12.6390 O.2   144  ALA144     -0.2715
    168  CB      -122.3210  -40.9310  -12.3110 C.3   144  ALA144      0.0334
    169  N       -124.6930  -39.2380  -10.8240 N.am  145  LEU145     -0.1977
    170  CA      -126.0520  -38.7960  -11.0850 C.3   145  LEU145      0.1596
    171  C       -126.2160  -37.2980  -10.8310 C.2   145  LEU145      0.2287
    172  O       -126.6830  -36.5630  -11.7070 O.2   145  LEU145     -0.2864
    173  CB      -127.0230  -39.6250  -10.2490 C.3   145  LEU145      0.0297
    174  CG      -128.4830  -39.2320  -10.4200 C.3   145  LEU145      0.0022
    175  CD1     -129.3260  -40.4450  -10.7660 C.3   145  LEU145      0.0001
    176  CD2     -128.9460  -38.5960   -9.1370 C.3   145  LEU145      0.0001
@<TRIPOS>BOND
     1    86    85    1
     2    85    84    1
     3    84    83    1
     4    83    82    1
     5    95    96    2
     6    95    94    1
     7    99    97    1
     8    90    89    2
     9    82    79    1
    10    94    97    1
    11    94    93    1
    12   105   104    1
    13    63    61   am
    14    97    98    1
    15    62    61    2
    16    89    93   am
    17    89    88    1
    18   104   101    1
    19   104   106    1
    20    61    60    1
    21    79    80    1
    22    79    78    1
    23   101   100    1
    24   101   102    1
    25    80    81    2
    26    80    87   am
    27    78    74   am
    28    87    88    1
    29    88    91    1
    30   107   102   am
    31   107   108    1
    32   111   108    1
    33    91    92    1
    34   102   103    2
    35    60    57    1
    36    74    73    1
    37    74    75    2
    38    72    73    1
    39    73    76    1
    40   108   109    1
    41    36    35    1
    42   119   118    2
    43    35    32    1
    44    57    56    1
    45    57    58    1
    46    34    33    2
    47    77    76    1
    48    32    33    1
    49    32    31    1
    50   109   110    2
    51   109   112   am
    52    48    47    2
    53    56    47   am
    54    66    67    2
    55    66    65    1
    56    64    58   am
    57    64    65    1
    58    58    59    2
    59   122   121    1
    60   122   123    1
    61   118   117    1
    62    33    37   am
    63   120   121    1
    64   120   117    1
    65    47    46    1
    66    45    46    1
    67   124   123    1
    68    65    68    1
    69    68    69    1
    70   117   116    1
    71   112   113    1
    72    46    49    1
    73    31    24   am
    74    71    69    1
    75    43    42    2
    76    37    38    1
    77   116   114   am
    78    69    70    1
    79    38    39    1
    80    38    41    1
    81    25    24    2
    82    24    23    1
    83    42    44   am
    84    42    41    1
    85   114   113    1
    86   114   115    2
    87    40    39    2
    88     6     5    1
    89    49    50    1
    90    29    28    1
    91    29    30    1
    92    26    23    1
    93    26    27    1
    94    23    22    1
    95    52    50   ar
    96    52    54   ar
    97    50    51   ar
    98    28    27    1
    99     5     2    1
   100    22    20   am
   101    21    20    2
   102    54    55   ar
   103    51    53   ar
   104     2     3    1
   105     2     1    1
   106     7     8    1
   107     7     3   am
   108    20    19    1
   109    55    53   ar
   110     8     9    1
   111     3     4    2
   112    19    18    1
   113   167   166    2
   114    18    13   am
   115   168   165    1
   116     9    11   am
   117     9    10    2
   118    11    12    1
   119   172   171    2
   120   166   165    1
   121   166   169   am
   122    17    15    1
   123   165   164    1
   124    13    12    1
   125    13    14    2
   126   170   171    1
   127   170   169    1
   128   170   173    1
   129    12    15    1
   130   175   174    1
   131   174   173    1
   132   174   176    1
   133    15    16    1
   134   132   130   am
   135   164   160   am
   136   141   140    1
   137   161   160    2
   138   140   139    1
   139   130   131    2
   140   130   129    1
   141   160   159    1
   142   129   126    1
   143   139   138    1
   144   138   137    1
   145   159   158    1
   146   159   162    1
   147   163   162    1
   148   126   127    1
   149   126   125    1
   150   148   147   ar
   151   133   134    1
   152   133   127   am
   153   137   134    1
   154   134   135    1
   155   127   128    2
   156   149   147   ar
   157   147   146    1
   158   156   155    1
   159   146   143    1
   160   157   155    1
   161   155   154    1
   162   135   136    2
   163   142   143    1
   164   143   144    1
   165   154   151    1
   166   150   144   am
   167   150   151    1
   168   144   145    2
   169   151   152    1
   170   152   153    2
