@<TRIPOS>MOLECULE
tmp/5xr8A01.pdb
 246 243 0 0 0
SMALL
GASTEIGER

@<TRIPOS>ATOM
      1  N        -39.1220 -171.5310  309.4520 N.3     7  PHE7       -0.1241
      2  CA       -39.0260 -170.1660  308.9500 C.3     7  PHE7        0.1605
      3  C        -37.7780 -169.4430  309.4370 C.2     7  PHE7        0.2264
      4  O        -37.5800 -168.2760  309.0820 O.2     7  PHE7       -0.2867
      5  CB       -40.2650 -169.3650  309.3610 C.3     7  PHE7        0.0534
      6  CG       -41.5360 -169.8410  308.7250 C.ar    7  PHE7       -0.0203
      7  CD1      -42.3210 -170.8010  309.3420 C.ar    7  PHE7       -0.0042
      8  CD2      -41.9510 -169.3240  307.5110 C.ar    7  PHE7       -0.0042
      9  CE1      -43.4950 -171.2380  308.7570 C.ar    7  PHE7       -0.0003
     10  CE2      -43.1220 -169.7550  306.9230 C.ar    7  PHE7       -0.0003
     11  CZ       -43.8960 -170.7140  307.5450 C.ar    7  PHE7       -0.0000
     12  N        -40.9780 -153.5710  314.4230 N.3    69  PHE69      -0.1241
     13  CA       -40.3030 -154.4360  313.4580 C.3    69  PHE69       0.1605
     14  C        -38.9560 -154.9070  313.9900 C.2    69  PHE69       0.2264
     15  O        -38.7220 -156.1100  314.1460 O.2    69  PHE69      -0.2867
     16  CB       -40.1240 -153.7070  312.1240 C.3    69  PHE69       0.0534
     17  CG       -39.3390 -154.4890  311.1070 C.ar   69  PHE69      -0.0203
     18  CD1      -39.9680 -155.4160  310.2890 C.ar   69  PHE69      -0.0042
     19  CD2      -37.9720 -154.2970  310.9650 C.ar   69  PHE69      -0.0042
     20  CE1      -39.2510 -156.1370  309.3490 C.ar   69  PHE69      -0.0003
     21  CE2      -37.2470 -155.0170  310.0300 C.ar   69  PHE69      -0.0003
     22  CZ       -37.8880 -155.9370  309.2200 C.ar   69  PHE69      -0.0000
     23  N        -39.2640 -157.2380  317.0010 N.3    72  SER72      -0.1202
     24  CA       -39.7700 -158.5570  316.6340 C.3    72  SER72       0.2020
     25  C        -38.8110 -159.2770  315.6950 C.2    72  SER72       0.2618
     26  O        -38.6220 -160.4930  315.8090 O.2    72  SER72      -0.2717
     27  CB       -41.1530 -158.4330  315.9950 C.3    72  SER72       0.2103
     28  OG       -42.0990 -157.9320  316.9230 O.3    72  SER72      -0.2182
     29  N        -38.1920 -158.5430  314.7680 N.am   73  PHE73      -0.1975
     30  CA       -37.2780 -159.1680  313.8180 C.3    73  PHE73       0.1639
     31  C        -36.0610 -159.7520  314.5260 C.2    73  PHE73       0.2290
     32  O        -35.6400 -160.8760  314.2310 O.2    73  PHE73      -0.2864
     33  CB       -36.8490 -158.1490  312.7630 C.3    73  PHE73       0.0560
     34  CG       -36.4480 -158.7610  311.4550 C.ar   73  PHE73      -0.0200
     35  CD1      -37.4100 -159.1950  310.5570 C.ar   73  PHE73      -0.0042
     36  CD2      -35.1100 -158.8900  311.1160 C.ar   73  PHE73      -0.0042
     37  CE1      -37.0470 -159.7550  309.3470 C.ar   73  PHE73      -0.0003
     38  CE2      -34.7370 -159.4490  309.9060 C.ar   73  PHE73      -0.0003
     39  CZ       -35.7080 -159.8820  309.0200 C.ar   73  PHE73      -0.0000
     40  N        -37.2690 -162.6250  316.8350 N.3    76  PHE76      -0.1227
     41  CA       -37.6010 -163.8250  316.0740 C.3    76  PHE76       0.1736
     42  C        -36.3500 -164.4830  315.5010 C.2    76  PHE76       0.2595
     43  O        -36.2320 -165.7140  315.5080 O.2    76  PHE76      -0.2718
     44  CB       -38.5860 -163.4810  314.9560 C.3    76  PHE76       0.0547
     45  CG       -38.9690 -164.6560  314.1010 C.ar   76  PHE76      -0.0202
     46  CD1      -40.0290 -165.4730  314.4570 C.ar   76  PHE76      -0.0042
     47  CD2      -38.2720 -164.9400  312.9380 C.ar   76  PHE76      -0.0042
     48  CE1      -40.3840 -166.5510  313.6700 C.ar   76  PHE76      -0.0003
     49  CE2      -38.6190 -166.0180  312.1500 C.ar   76  PHE76      -0.0003
     50  CZ       -39.6770 -166.8240  312.5150 C.ar   76  PHE76      -0.0000
     51  N        -35.4090 -163.6840  314.9990 N.am   77  HIS77      -0.1975
     52  CA       -34.2240 -164.2270  314.3410 C.3    77  HIS77       0.1656
     53  C        -33.1020 -164.5230  315.3330 C.2    77  HIS77       0.2291
     54  O        -32.6520 -165.6650  315.4450 O.2    77  HIS77      -0.2864
     55  CB       -33.7400 -163.2650  313.2500 C.3    77  HIS77       0.0771
     56  CG       -34.5390 -163.3380  311.9840 C.ar   77  HIS77       0.0820
     57  ND1      -35.8990 -163.1170  311.9490 N.ar   77  HIS77      -0.2267
     58  CD2      -34.1690 -163.6080  310.7100 C.ar   77  HIS77       0.1154
     59  CE1      -36.3330 -163.2500  310.7080 C.ar   77  HIS77       0.1986
     60  NE2      -35.3030 -163.5480  309.9360 N.ar   77  HIS77      -0.2212
     61  N        -48.4670 -164.0020  317.5440 N.3    88  PHE88      -0.1241
     62  CA       -47.6240 -163.6170  316.4170 C.3    88  PHE88       0.1605
     63  C        -48.4040 -162.7760  315.4150 C.2    88  PHE88       0.2264
     64  O        -47.9280 -161.7250  314.9700 O.2    88  PHE88      -0.2867
     65  CB       -47.0430 -164.8580  315.7420 C.3    88  PHE88       0.0534
     66  CG       -46.2490 -164.5540  314.5050 C.ar   88  PHE88      -0.0203
     67  CD1      -44.9330 -164.1280  314.5960 C.ar   88  PHE88      -0.0042
     68  CD2      -46.8200 -164.6890  313.2490 C.ar   88  PHE88      -0.0042
     69  CE1      -44.2010 -163.8440  313.4570 C.ar   88  PHE88      -0.0003
     70  CE2      -46.0970 -164.4070  312.1080 C.ar   88  PHE88      -0.0003
     71  CZ       -44.7850 -163.9840  312.2100 C.ar   88  PHE88      -0.0000
     72  N        -48.4990 -159.3560  316.5400 N.3    91  LYS91      -0.1231
     73  CA       -47.2830 -158.6120  316.2290 C.3    91  LYS91       0.1693
     74  C        -47.1610 -158.3650  314.7300 C.2    91  LYS91       0.2591
     75  O        -46.8810 -157.2400  314.2970 O.2    91  LYS91      -0.2718
     76  CB       -46.0600 -159.3600  316.7580 C.3    91  LYS91       0.0285
     77  CG       -46.0660 -159.5500  318.2650 C.3    91  LYS91       0.0035
     78  CD       -44.8410 -160.3160  318.7380 C.3    91  LYS91       0.0206
     79  CE       -44.8960 -160.5600  320.2390 C.3    91  LYS91       0.1093
     80  NZ       -43.7310 -161.3510  320.7200 N.3    91  LYS91      -0.1314
     81  N        -47.3740 -159.4090  313.9210 N.am   92  LEU92      -0.1980
     82  CA       -47.3010 -159.2450  312.4730 C.3    92  LEU92       0.1596
     83  C        -48.3500 -158.2580  311.9810 C.2    92  LEU92       0.2287
     84  O        -48.0910 -157.4740  311.0600 O.2    92  LEU92      -0.2864
     85  CB       -47.4650 -160.5990  311.7780 C.3    92  LEU92       0.0297
     86  CG       -47.0940 -160.6830  310.2910 C.3    92  LEU92       0.0022
     87  CD1      -48.2390 -160.2410  309.3820 C.3    92  LEU92       0.0001
     88  CD2      -45.8420 -159.8610  310.0090 C.3    92  LEU92       0.0001
     89  N        -46.9790 -154.5310  312.6920 N.3    95  VAL95      -0.1231
     90  CA       -45.9940 -154.0020  311.7550 C.3    95  VAL95       0.1692
     91  C        -46.6110 -153.8150  310.3730 C.2    95  VAL95       0.2592
     92  O        -46.3450 -152.8170  309.6920 O.2    95  VAL95      -0.2718
     93  CB       -44.7520 -154.9130  311.7070 C.3    95  VAL95       0.0266
     94  CG1      -43.9460 -154.7720  312.9850 C.3    95  VAL95       0.0020
     95  CG2      -45.1540 -156.3620  311.4980 C.3    95  VAL95       0.0020
     96  N        -47.4530 -154.7580  309.9420 N.am   96  THR96      -0.1953
     97  CA       -48.0480 -154.6740  308.6110 C.3    96  THR96       0.1897
     98  C        -48.9040 -153.4210  308.4690 C.2    96  THR96       0.2313
     99  O        -48.8080 -152.6990  307.4700 O.2    96  THR96      -0.2863
    100  CB       -48.8770 -155.9270  308.3270 C.3    96  THR96       0.1794
    101  OG1      -48.0310 -157.0840  308.3820 O.3    96  THR96      -0.2208
    102  CG2      -49.5180 -155.8420  306.9530 C.3    96  THR96       0.0378
    103  N        -46.5800 -150.2470  308.2930 N.3    99  PHE99      -0.1241
    104  CA       -45.9640 -150.0970  306.9800 C.3    99  PHE99       0.1605
    105  C        -47.0080 -149.8670  305.8950 C.2    99  PHE99       0.2264
    106  O        -46.7410 -149.1470  304.9250 O.2    99  PHE99      -0.2867
    107  CB       -45.1080 -151.3220  306.6560 C.3    99  PHE99       0.0534
    108  CG       -43.7850 -151.3440  307.3740 C.ar   99  PHE99      -0.0203
    109  CD1      -43.7190 -151.6160  308.7320 C.ar   99  PHE99      -0.0042
    110  CD2      -42.6060 -151.0960  306.6890 C.ar   99  PHE99      -0.0042
    111  CE1      -42.5060 -151.6380  309.3950 C.ar   99  PHE99      -0.0003
    112  CE2      -41.3880 -151.1170  307.3460 C.ar   99  PHE99      -0.0003
    113  CZ       -41.3380 -151.3890  308.7010 C.ar   99  PHE99      -0.0000
    114  N        -56.0630 -161.1320  309.7760 N.3   150  PRO150     -0.2116
    115  CA       -55.4730 -162.4450  310.1020 C.3   150  PRO150      0.1372
    116  C        -55.6810 -162.8570  311.5480 C.2   150  PRO150      0.2244
    117  O        -55.8760 -164.0460  311.8280 O.2   150  PRO150     -0.2868
    118  CB       -53.9870 -162.2520  309.7730 C.3   150  PRO150      0.0268
    119  CG       -53.9610 -161.1650  308.7770 C.3   150  PRO150      0.0207
    120  CD       -55.0610 -160.2310  309.1750 C.3   150  PRO150      0.0892
    121  N        -42.8390 -167.4820  303.8320 N.3   166  ILE166     -0.1231
    122  CA       -42.1120 -166.3660  304.4120 C.3   166  ILE166      0.1692
    123  C        -42.8380 -165.7410  305.5920 C.2   166  ILE166      0.2592
    124  O        -42.1830 -165.1020  306.4320 O.2   166  ILE166     -0.2718
    125  CB       -41.8070 -165.2960  303.3460 C.3   166  ILE166      0.0266
    126  CG1      -43.0590 -165.0030  302.5200 C.3   166  ILE166      0.0019
    127  CG2      -40.6740 -165.7600  302.4480 C.3   166  ILE166      0.0020
    128  CD1      -42.8620 -163.9500  301.4580 C.3   166  ILE166      0.0001
    129  N        -44.1520 -165.9040  305.7070 N.am  167  PHE167     -0.1963
    130  CA       -44.9200 -165.3710  306.8330 C.3   167  PHE167      0.1756
    131  C        -45.7240 -166.5020  307.4580 C.2   167  PHE167      0.2461
    132  O        -46.6340 -167.0500  306.8000 O.2   167  PHE167     -0.2730
    133  CB       -45.8390 -164.2340  306.3940 C.3   167  PHE167      0.0574
    134  CG       -45.1070 -163.0010  305.9520 C.ar  167  PHE167     -0.0200
    135  CD1      -44.6450 -162.0820  306.8810 C.ar  167  PHE167     -0.0042
    136  CD2      -44.8850 -162.7580  304.6060 C.ar  167  PHE167     -0.0042
    137  CE1      -43.9700 -160.9490  306.4760 C.ar  167  PHE167     -0.0003
    138  CE2      -44.2120 -161.6280  304.1970 C.ar  167  PHE167     -0.0003
    139  CZ       -43.7550 -160.7220  305.1340 C.ar  167  PHE167     -0.0000
    140  N        -45.4390 -166.8830  308.6990 N.am  168  PRO168     -0.2727
    141  CA       -46.1810 -167.9860  309.3180 C.3   168  PRO168      0.1402
    142  C        -47.6070 -167.5840  309.6610 C.2   168  PRO168      0.2269
    143  O        -47.8930 -166.4290  309.9890 O.2   168  PRO168     -0.2865
    144  CB       -45.3730 -168.2970  310.5860 C.3   168  PRO168      0.0296
    145  CG       -44.0440 -167.5920  310.3950 C.3   168  PRO168      0.0237
    146  CD       -44.3540 -166.3940  309.5630 C.3   168  PRO168      0.0939
    147  N        -50.2840 -167.3000  307.8080 N.3   170  ILE170     -0.1245
    148  CA       -50.9270 -166.3570  306.8980 C.3   170  ILE170      0.1561
    149  C        -51.3970 -167.1000  305.6550 C.2   170  ILE170      0.2260
    150  O        -50.6390 -167.8760  305.0630 O.2   170  ILE170     -0.2867
    151  CB       -49.9910 -165.1920  306.5190 C.3   170  ILE170      0.0252
    152  CG1      -49.9960 -164.1310  307.6230 C.3   170  ILE170      0.0019
    153  CG2      -50.4010 -164.5700  305.1890 C.3   170  ILE170      0.0019
    154  CD1      -49.3110 -162.8430  307.2310 C.3   170  ILE170      0.0001
    155  N        -55.0750 -164.0210  301.4540 N.3   174  TYR174     -0.1227
    156  CA       -54.9870 -162.7460  302.1570 C.3   174  TYR174      0.1736
    157  C        -53.7680 -161.9560  301.7020 C.2   174  TYR174      0.2595
    158  O        -53.8390 -160.7320  301.5370 O.2   174  TYR174     -0.2718
    159  CB       -54.9410 -162.9710  303.6680 C.3   174  TYR174      0.0548
    160  CG       -54.5740 -161.7230  304.4400 C.ar  174  TYR174     -0.0200
    161  CD1      -55.5330 -160.7680  304.7500 C.ar  174  TYR174     -0.0009
    162  CD2      -53.2660 -161.4930  304.8470 C.ar  174  TYR174     -0.0009
    163  CE1      -55.2010 -159.6210  305.4480 C.ar  174  TYR174      0.0417
    164  CE2      -52.9250 -160.3510  305.5420 C.ar  174  TYR174      0.0417
    165  CZ       -53.8950 -159.4180  305.8410 C.ar  174  TYR174      0.1957
    166  OH       -53.5550 -158.2810  306.5390 O.3   174  TYR174     -0.2866
    167  N        -52.6400 -162.6380  301.4990 N.am  175  LEU175     -0.1980
    168  CA       -51.4310 -161.9550  301.0510 C.3   175  LEU175      0.1596
    169  C        -51.6220 -161.3630  299.6600 C.2   175  LEU175      0.2287
    170  O        -51.2520 -160.2120  299.4080 O.2   175  LEU175     -0.2864
    171  CB       -50.2440 -162.9180  301.0750 C.3   175  LEU175      0.0297
    172  CG       -48.8810 -162.3190  300.7240 C.3   175  LEU175      0.0022
    173  CD1      -48.5840 -161.1160  301.6050 C.3   175  LEU175      0.0001
    174  CD2      -47.7830 -163.3640  300.8540 C.3   175  LEU175      0.0001
    175  N        -53.5680 -158.4060  300.1620 N.3   178  TRP178     -0.1241
    176  CA       -52.7260 -157.3670  300.7440 C.3   178  TRP178      0.1605
    177  C        -51.7120 -156.8510  299.7320 C.2   178  TRP178      0.2264
    178  O        -51.4620 -155.6430  299.6580 O.2   178  TRP178     -0.2867
    179  CB       -52.0170 -157.8960  301.9880 C.3   178  TRP178      0.0550
    180  CG       -51.0910 -156.8970  302.5960 C.ar  178  TRP178      0.0003
    181  CD1      -51.3810 -156.0130  303.5900 C.ar  178  TRP178      0.0946
    182  CD2      -49.7200 -156.6680  302.2400 C.ar  178  TRP178      0.0152
    183  NE1      -50.2770 -155.2490  303.8810 N.ar  178  TRP178     -0.2442
    184  CE2      -49.2440 -155.6320  303.0670 C.ar  178  TRP178      0.0810
    185  CE3      -48.8500 -157.2400  301.3060 C.ar  178  TRP178      0.0012
    186  CZ2      -47.9360 -155.1540  302.9880 C.ar  178  TRP178      0.0191
    187  CZ3      -47.5520 -156.7650  301.2290 C.ar  178  TRP178      0.0001
    188  CH2      -47.1070 -155.7330  302.0650 C.ar  178  TRP178      0.0015
    189  N        -39.3930 -151.5420  297.5930 N.3   373  TRP373     -0.1241
    190  CA       -40.6110 -152.3370  297.5120 C.3   373  TRP373      0.1605
    191  C        -40.6550 -153.2850  296.3240 C.2   373  TRP373      0.2264
    192  O        -41.5030 -154.1830  296.3070 O.2   373  TRP373     -0.2867
    193  CB       -41.8450 -151.4240  297.4610 C.3   373  TRP373      0.0550
    194  CG       -42.0220 -150.6190  298.7030 C.ar  373  TRP373      0.0003
    195  CD1      -41.7240 -149.3000  298.8730 C.ar  373  TRP373      0.0946
    196  CD2      -42.5250 -151.0830  299.9610 C.ar  373  TRP373      0.0152
    197  NE1      -42.0180 -148.9090  300.1570 N.ar  373  TRP373     -0.2442
    198  CE2      -42.5100 -149.9860  300.8460 C.ar  373  TRP373      0.0810
    199  CE3      -42.9900 -152.3170  300.4250 C.ar  373  TRP373      0.0012
    200  CZ2      -42.9420 -150.0870  302.1670 C.ar  373  TRP373      0.0191
    201  CZ3      -43.4180 -152.4150  301.7360 C.ar  373  TRP373      0.0001
    202  CH2      -43.3910 -151.3070  302.5920 C.ar  373  TRP373      0.0015
    203  N        -38.9930 -156.6620  297.5860 N.3   376  LEU376     -0.1245
    204  CA       -39.7680 -157.1460  298.7250 C.3   376  LEU376      0.1561
    205  C        -41.0780 -157.7740  298.2680 C.2   376  LEU376      0.2260
    206  O        -41.4020 -158.9070  298.6430 O.2   376  LEU376     -0.2867
    207  CB       -40.0330 -156.0050  299.7060 C.3   376  LEU376      0.0270
    208  CG       -40.6640 -156.4390  301.0320 C.3   376  LEU376      0.0019
    209  CD1      -39.6330 -157.1200  301.9190 C.3   376  LEU376      0.0001
    210  CD2      -41.3030 -155.2610  301.7480 C.3   376  LEU376      0.0001
    211  N        -42.5740 -161.9290  297.7600 N.3   380  MET380     -0.1245
    212  CA       -43.9020 -162.3060  298.2280 C.3   380  MET380      0.1570
    213  C        -44.7570 -162.8700  297.1000 C.2   380  MET380      0.2261
    214  O        -45.6000 -163.7410  297.3410 O.2   380  MET380     -0.2867
    215  CB       -44.5880 -161.1050  298.8770 C.3   380  MET380      0.0387
    216  CG       -43.8340 -160.5360  300.0660 C.3   380  MET380      0.0595
    217  SD       -44.7010 -159.1580  300.8380 S.3   380  MET380     -0.1393
    218  CE       -43.5300 -158.6900  302.1100 C.3   380  MET380      0.0692
    219  N        -34.9640 -162.8400  301.3070 N.3   396  PHE396     -0.1227
    220  CA       -36.0950 -162.0760  301.8230 C.3   396  PHE396      0.1736
    221  C        -35.8090 -161.5440  303.2210 C.2   396  PHE396      0.2595
    222  O        -36.2260 -160.4310  303.5650 O.2   396  PHE396     -0.2718
    223  CB       -37.3590 -162.9320  301.8280 C.3   396  PHE396      0.0547
    224  CG       -38.5450 -162.2400  302.4240 C.ar  396  PHE396     -0.0202
    225  CD1      -39.2210 -161.2610  301.7130 C.ar  396  PHE396     -0.0042
    226  CD2      -38.9810 -162.5590  303.7000 C.ar  396  PHE396     -0.0042
    227  CE1      -40.3120 -160.6150  302.2620 C.ar  396  PHE396     -0.0003
    228  CE2      -40.0740 -161.9180  304.2540 C.ar  396  PHE396     -0.0003
    229  CZ       -40.7390 -160.9430  303.5350 C.ar  396  PHE396     -0.0000
    230  N        -35.1050 -162.3270  304.0430 N.am  397  ALA397     -0.1980
    231  CA       -34.6950 -161.8340  305.3550 C.3   397  ALA397      0.1597
    232  C        -33.8340 -160.5850  305.2200 C.2   397  ALA397      0.2287
    233  O        -34.0300 -159.6030  305.9460 O.2   397  ALA397     -0.2864
    234  CB       -33.9470 -162.9260  306.1190 C.3   397  ALA397      0.0319
    235  N        -36.2110 -158.0250  303.9530 N.3   400  SER400     -0.1217
    236  CA       -37.0300 -157.4540  305.0160 C.3   400  SER400      0.1889
    237  C        -36.3350 -156.2610  305.6550 C.2   400  SER400      0.2288
    238  O        -36.9990 -155.3210  306.1070 O.2   400  SER400     -0.2866
    239  CB       -37.3520 -158.5150  306.0690 C.3   400  SER400      0.2089
    240  OG       -38.2240 -159.5050  305.5480 O.3   400  SER400     -0.2183
    241  N        -36.9180 -152.7060  303.4350 N.3   403  CYS403     -0.1235
    242  CA       -38.0140 -151.7760  303.6820 C.3   403  CYS403      0.1677
    243  C        -37.7530 -150.9230  304.9160 C.2   403  CYS403      0.2270
    244  O        -38.2030 -149.7730  304.9800 O.2   403  CYS403     -0.2867
    245  CB       -39.3280 -152.5360  303.8390 C.3   403  CYS403      0.0956
    246  SG       -39.4800 -153.3780  305.4240 S.3   403  CYS403     -0.0801
@<TRIPOS>BOND
     1   192   191    2
     2   191   190    1
     3   213   214    2
     4   213   212    1
     5   193   190    1
     6   193   194    1
     7   190   189    1
     8   203   204    1
     9   211   212    1
    10   212   215    1
    11   205   206    2
    12   205   204    1
    13   194   195   ar
    14   194   196   ar
    15   204   207    1
    16   195   197   ar
    17   215   216    1
    18   170   169    2
    19   178   177    2
    20   169   168    1
    21   207   208    1
    22   177   176    1
    23   196   199   ar
    24   196   198   ar
    25   216   217    1
    26   197   198   ar
    27   175   176    1
    28   199   201   ar
    29   172   174    1
    30   172   171    1
    31   172   173    1
    32   176   179    1
    33   217   218    1
    34   198   200   ar
    35   208   210    1
    36   208   209    1
    37   168   171    1
    38   168   167    1
    39   187   185   ar
    40   187   188   ar
    41   185   182   ar
    42   219   220    1
    43   155   156    1
    44   128   126    1
    45   167   157   am
    46   158   157    2
    47   157   156    1
    48   225   227   ar
    49   225   224   ar
    50   201   202   ar
    51   220   223    1
    52   220   221    1
    53   223   224    1
    54   179   180    1
    55   188   186   ar
    56   156   159    1
    57   200   202   ar
    58   182   180   ar
    59   182   184   ar
    60   227   229   ar
    61   224   226   ar
    62   127   125    1
    63   126   125    1
    64   180   181   ar
    65   186   184   ar
    66   184   183   ar
    67   221   222    2
    68   221   230   am
    69   125   122    1
    70   241   242    1
    71   229   228   ar
    72   181   183   ar
    73   159   160    1
    74   242   245    1
    75   242   243    1
    76   226   228   ar
    77   121   122    1
    78   245   246    1
    79   235   236    1
    80   230   231    1
    81   138   136   ar
    82   138   139   ar
    83   122   123    1
    84   160   161   ar
    85   160   162   ar
    86   136   134   ar
    87   161   163   ar
    88   162   164   ar
    89   243   244    2
    90   106   105    2
    91   236   237    1
    92   236   239    1
    93   150   149    2
    94   139   137   ar
    95   153   151    1
    96   232   231    1
    97   232   233    2
    98   231   234    1
    99   163   165   ar
   100   164   165   ar
   101   240   239    1
   102   123   129   am
   103   123   124    2
   104   237   238    2
   105   149   148    1
   106   129   130    1
   107   165   166    1
   108   105   104    1
   109   134   133    1
   110   134   135   ar
   111   133   130    1
   112   137   135   ar
   113   151   148    1
   114   151   152    1
   115   107   104    1
   116   107   108    1
   117   110   112   ar
   118   110   108   ar
   119   132   131    2
   120   130   131    1
   121   148   147    1
   122    10     8   ar
   123    10    11   ar
   124   102   100    1
   125   104   103    1
   126   154   152    1
   127   112   113   ar
   128   108   109   ar
   129   131   140   am
   130    99    98    2
   131     8     6   ar
   132    11     9   ar
   133   100   101    1
   134   100    97    1
   135    98    97    1
   136    97    96    1
   137   140   141    1
   138   140   146    1
   139   113   111   ar
   140     6     7   ar
   141     6     5    1
   142   109   111   ar
   143     9     7   ar
   144   119   120    1
   145   119   118    1
   146     2     5    1
   147     2     3    1
   148     2     1    1
   149    39    37   ar
   150    39    38   ar
   151     4     3    2
   152   120   114    1
   153    22    20   ar
   154    22    21   ar
   155   141   142    1
   156   141   144    1
   157    37    35   ar
   158    20    18   ar
   159    87    86    1
   160   146   145    1
   161   142   143    2
   162    92    91    2
   163   118   115    1
   164   114   115    1
   165    38    36   ar
   166    60    59   ar
   167    60    58   ar
   168    96    91   am
   169    88    86    1
   170    21    19   ar
   171   115   116    1
   172    18    17   ar
   173    86    85    1
   174    91    90    1
   175   145   144    1
   176    35    34   ar
   177    59    57   ar
   178    58    56   ar
   179    19    17   ar
   180    84    83    2
   181    17    16    1
   182    36    34   ar
   183    34    33    1
   184    95    93    1
   185   116   117    2
   186    93    90    1
   187    93    94    1
   188    90    89    1
   189    85    82    1
   190    57    56   ar
   191    83    82    1
   192    56    55    1
   193    70    71   ar
   194    70    68   ar
   195    16    13    1
   196    49    50   ar
   197    49    47   ar
   198    71    69   ar
   199    82    81    1
   200    50    48   ar
   201    33    30    1
   202    47    45   ar
   203    68    66   ar
   204    55    52    1
   205    69    67   ar
   206    13    14    1
   207    13    12    1
   208    48    46   ar
   209    30    31    1
   210    30    29    1
   211    81    74   am
   212    14    15    2
   213    45    46   ar
   214    45    44    1
   215    32    31    2
   216    75    74    2
   217    52    51    1
   218    52    53    1
   219    66    67   ar
   220    66    65    1
   221    74    73    1
   222    29    25   am
   223    44    41    1
   224    64    63    2
   225    51    42   am
   226    53    54    2
   227    63    62    1
   228    42    43    2
   229    42    41    1
   230    25    26    2
   231    25    24    1
   232    65    62    1
   233    27    24    1
   234    27    28    1
   235    41    40    1
   236    73    72    1
   237    73    76    1
   238    62    61    1
   239    24    23    1
   240    76    77    1
   241    77    78    1
   242    78    79    1
   243    79    80    1
