@<TRIPOS>MOLECULE
tmp/5xr8A02.pdb
 134 128 0 0 0
SMALL
GASTEIGER

@<TRIPOS>ATOM
      1  N        -48.9060 -130.2450  307.9840 N.3    52  TYR52      -0.1227
      2  CA       -48.1040 -131.3420  308.5270 C.3    52  TYR52       0.1736
      3  C        -48.9020 -132.6350  308.6650 C.2    52  TYR52       0.2595
      4  O        -48.5480 -133.5020  309.4720 O.2    52  TYR52      -0.2718
      5  CB       -47.4790 -130.9680  309.8770 C.3    52  TYR52       0.0548
      6  CG       -46.3640 -129.9510  309.7890 C.ar   52  TYR52      -0.0200
      7  CD1      -45.5530 -129.8740  308.6630 C.ar   52  TYR52      -0.0009
      8  CD2      -46.1210 -129.0670  310.8330 C.ar   52  TYR52      -0.0009
      9  CE1      -44.5320 -128.9450  308.5820 C.ar   52  TYR52       0.0417
     10  CE2      -45.1040 -128.1360  310.7600 C.ar   52  TYR52       0.0417
     11  CZ       -44.3130 -128.0780  309.6330 C.ar   52  TYR52       0.1957
     12  OH       -43.2990 -127.1520  309.5600 O.3    52  TYR52      -0.2866
     13  N        -49.9800 -132.7860  307.8920 N.am   53  HIS53      -0.1975
     14  CA       -50.7700 -134.0100  307.9640 C.3    53  HIS53       0.1656
     15  C        -50.0290 -135.1820  307.3340 C.2    53  HIS53       0.2291
     16  O        -50.0980 -136.3100  307.8360 O.2    53  HIS53      -0.2864
     17  CB       -52.1240 -133.8030  307.2880 C.3    53  HIS53       0.0771
     18  CG       -53.0590 -132.9320  308.0660 C.ar   53  HIS53       0.0820
     19  ND1      -53.8350 -131.9580  307.4760 N.ar   53  HIS53      -0.2267
     20  CD2      -53.3470 -132.8910  309.3890 C.ar   53  HIS53       0.1154
     21  CE1      -54.5570 -131.3510  308.4010 C.ar   53  HIS53       0.1986
     22  NE2      -54.2800 -131.8990  309.5710 N.ar   53  HIS53      -0.2212
     23  N        -46.5150 -135.8830  309.4530 N.3    56  GLY56      -0.1210
     24  CA       -46.7780 -136.4760  310.7520 C.3    56  GLY56       0.1956
     25  C        -47.2140 -137.9240  310.6480 C.2    56  GLY56       0.2612
     26  O        -46.7660 -138.7730  311.4240 O.2    56  GLY56      -0.2717
     27  N        -48.0890 -138.2270  309.6860 N.am   57  SER57      -0.1952
     28  CA       -48.5250 -139.6050  309.4890 C.3    57  SER57       0.1924
     29  C        -47.3620 -140.4960  309.0730 C.2    57  SER57       0.2314
     30  O        -47.2170 -141.6170  309.5760 O.2    57  SER57      -0.2863
     31  CB       -49.6400 -139.6570  308.4440 C.3    57  SER57       0.2116
     32  OG       -49.9760 -140.9960  308.1210 O.3    57  SER57      -0.2180
     33  N        -45.1060 -141.0170  312.2080 N.3    60  VAL60      -0.1245
     34  CA       -45.7190 -141.9060  313.1930 C.3    60  VAL60       0.1561
     35  C        -45.6630 -143.3510  312.7150 C.2    60  VAL60       0.2260
     36  O        -45.3420 -144.2650  313.4850 O.2    60  VAL60      -0.2867
     37  CB       -47.1660 -141.4650  313.4870 C.3    60  VAL60       0.0252
     38  CG1      -47.9090 -142.5560  314.2410 C.3    60  VAL60       0.0019
     39  CG2      -47.1770 -140.1720  314.2820 C.3    60  VAL60       0.0019
     40  N        -43.5200 -146.0890  314.7980 N.3    64  LEU64      -0.1245
     41  CA       -44.2010 -147.2730  315.3120 C.3    64  LEU64       0.1561
     42  C        -43.7870 -148.5230  314.5490 C.2    64  LEU64       0.2260
     43  O        -43.5310 -149.5710  315.1530 O.2    64  LEU64      -0.2867
     44  CB       -45.7170 -147.0870  315.2400 C.3    64  LEU64       0.0270
     45  CG       -46.3350 -145.9830  316.0980 C.3    64  LEU64       0.0019
     46  CD1      -47.8540 -146.0050  315.9750 C.3    64  LEU64       0.0001
     47  CD2      -45.9050 -146.1200  317.5520 C.3    64  LEU64       0.0001
     48  N        -41.5550 -151.7520  316.4410 N.3    68  ILE68      -0.1245
     49  CA       -42.1110 -153.0970  316.5390 C.3    68  ILE68       0.1561
     50  C        -41.3750 -154.0510  315.6050 C.2    68  ILE68       0.2260
     51  O        -41.1490 -155.2190  315.9450 O.2    68  ILE68      -0.2867
     52  CB       -43.6230 -153.0730  316.2520 C.3    68  ILE68       0.0252
     53  CG1      -44.3030 -151.9790  317.0750 C.3    68  ILE68       0.0019
     54  CG2      -44.2460 -154.4200  316.5740 C.3    68  ILE68       0.0019
     55  CD1      -45.7800 -151.8210  316.7780 C.3    68  ILE68       0.0001
     56  N        -50.7960 -160.9720  316.0640 N.3    90  PHE90      -0.1241
     57  CA       -50.9130 -159.6620  316.6930 C.3    90  PHE90       0.1605
     58  C        -49.7000 -158.8010  316.3620 C.2    90  PHE90       0.2264
     59  O        -49.8370 -157.6450  315.9440 O.2    90  PHE90      -0.2867
     60  CB       -51.0690 -159.8190  318.2060 C.3    90  PHE90       0.0534
     61  CG       -51.4550 -158.5510  318.9150 C.ar   90  PHE90      -0.0203
     62  CD1      -50.4890 -157.6470  319.3300 C.ar   90  PHE90      -0.0042
     63  CD2      -52.7870 -158.2670  319.1730 C.ar   90  PHE90      -0.0042
     64  CE1      -50.8440 -156.4810  319.9820 C.ar   90  PHE90      -0.0003
     65  CE2      -53.1480 -157.1040  319.8270 C.ar   90  PHE90      -0.0003
     66  CZ       -52.1750 -156.2090  320.2320 C.ar   90  PHE90      -0.0000
     67  N        -49.4030 -155.7240  313.6720 N.3    94  GLY94      -0.1225
     68  CA       -48.9740 -154.3930  314.0730 C.3    94  GLY94       0.1811
     69  C        -48.0020 -153.7730  313.0890 C.2    94  GLY94       0.2280
     70  O        -48.1640 -152.6210  312.6770 O.2    94  GLY94      -0.2866
     71  N        -49.7470 -153.1430  309.4680 N.3    97  ALA97      -0.1231
     72  CA       -50.5840 -151.9480  309.4210 C.3    97  ALA97       0.1694
     73  C        -49.7370 -150.6830  309.3760 C.2    97  ALA97       0.2592
     74  O        -50.0260 -149.7600  308.6030 O.2    97  ALA97      -0.2718
     75  CB       -51.5240 -151.9170  310.6260 C.3    97  ALA97       0.0304
     76  N        -48.6820 -150.6250  310.1950 N.am   98  SER98      -0.1952
     77  CA       -47.8270 -149.4420  310.2290 C.3    98  SER98       0.1924
     78  C        -47.1680 -149.2010  308.8780 C.2    98  SER98       0.2314
     79  O        -47.1860 -148.0800  308.3560 O.2    98  SER98      -0.2863
     80  CB       -46.7730 -149.5920  311.3250 C.3    98  SER98       0.2116
     81  OG       -47.3780 -149.7060  312.6010 O.3    98  SER98      -0.2180
     82  N        -57.9680 -134.3530  306.8420 N.3   133  VAL133     -0.1245
     83  CA       -58.0530 -134.8740  308.2040 C.3   133  VAL133      0.1561
     84  C        -58.8500 -136.1730  308.2200 C.2   133  VAL133      0.2260
     85  O        -58.4360 -137.1710  308.8220 O.2   133  VAL133     -0.2867
     86  CB       -58.6640 -133.8210  309.1470 C.3   133  VAL133      0.0252
     87  CG1      -59.2670 -134.4860  310.3760 C.3   133  VAL133      0.0019
     88  CG2      -57.6090 -132.8070  309.5620 C.3   133  VAL133      0.0019
     89  N        -56.9220 -139.1780  306.1590 N.3   136  PHE136     -0.1227
     90  CA       -55.8460 -139.8450  306.8860 C.3   136  PHE136      0.1736
     91  C        -56.3950 -140.7400  307.9900 C.2   136  PHE136      0.2595
     92  O        -55.8880 -141.8470  308.2090 O.2   136  PHE136     -0.2718
     93  CB       -54.8750 -138.8150  307.4620 C.3   136  PHE136      0.0547
     94  CG       -53.7690 -138.4310  306.5210 C.ar  136  PHE136     -0.0202
     95  CD1      -52.6700 -139.2580  306.3520 C.ar  136  PHE136     -0.0042
     96  CD2      -53.8250 -137.2430  305.8110 C.ar  136  PHE136     -0.0042
     97  CE1      -51.6480 -138.9090  305.4870 C.ar  136  PHE136     -0.0003
     98  CE2      -52.8070 -136.8870  304.9450 C.ar  136  PHE136     -0.0003
     99  CZ       -51.7170 -137.7210  304.7830 C.ar  136  PHE136     -0.0000
    100  N        -57.4310 -140.2790  308.6970 N.am  137  CYS137     -0.1970
    101  CA       -58.0500 -141.1090  309.7250 C.3   137  CYS137      0.1712
    102  C        -58.5970 -142.3990  309.1270 C.2   137  CYS137      0.2296
    103  O        -58.3510 -143.4920  309.6500 O.2   137  CYS137     -0.2864
    104  CB       -59.1600 -140.3320  310.4340 C.3   137  CYS137      0.0983
    105  SG       -58.6100 -138.9430  311.4500 S.3   137  CYS137     -0.0798
    106  N        -55.8640 -144.7210  308.1360 N.3   140  TRP140     -0.1227
    107  CA       -55.2920 -145.4530  309.2610 C.3   140  TRP140      0.1737
    108  C        -56.2040 -146.5890  309.7100 C.2   140  TRP140      0.2596
    109  O        -55.7290 -147.6960  309.9880 O.2   140  TRP140     -0.2718
    110  CB       -55.0110 -144.5010  310.4240 C.3   140  TRP140      0.0564
    111  CG       -53.6740 -143.8380  310.3320 C.ar  140  TRP140      0.0003
    112  CD1      -53.3750 -142.6800  309.6760 C.ar  140  TRP140      0.0946
    113  CD2      -52.4470 -144.2960  310.9150 C.ar  140  TRP140      0.0152
    114  NE1      -52.0400 -142.3880  309.8140 N.ar  140  TRP140     -0.2442
    115  CE2      -51.4480 -143.3650  310.5700 C.ar  140  TRP140      0.0810
    116  CE3      -52.0980 -145.4030  311.6950 C.ar  140  TRP140      0.0012
    117  CZ2      -50.1230 -143.5060  310.9790 C.ar  140  TRP140      0.0191
    118  CZ3      -50.7820 -145.5420  312.1000 C.ar  140  TRP140      0.0001
    119  CH2      -49.8110 -144.5980  311.7410 C.ar  140  TRP140      0.0015
    120  N        -57.5130 -146.3360  309.7920 N.am  141  THR141     -0.1953
    121  CA       -58.4390 -147.3800  310.2220 C.3   141  THR141      0.1897
    122  C        -58.4470 -148.5430  309.2380 C.2   141  THR141      0.2313
    123  O        -58.3860 -149.7110  309.6400 O.2   141  THR141     -0.2863
    124  CB       -59.8480 -146.8070  310.3870 C.3   141  THR141      0.1794
    125  OG1      -60.2850 -146.2410  309.1450 O.3   141  THR141     -0.2208
    126  CG2      -59.8660 -145.7330  311.4640 C.3   141  THR141      0.0378
    127  N        -55.4040 -150.5120  309.6920 N.3   144  ILE144     -0.1245
    128  CA       -55.5120 -151.3780  310.8610 C.3   144  ILE144      0.1561
    129  C        -56.4770 -152.5250  310.5860 C.2   144  ILE144      0.2260
    130  O        -56.1950 -153.6810  310.9210 O.2   144  ILE144     -0.2867
    131  CB       -55.9360 -150.5650  312.0980 C.3   144  ILE144      0.0252
    132  CG1      -54.8560 -149.5440  312.4600 C.3   144  ILE144      0.0019
    133  CG2      -56.2130 -151.4910  313.2750 C.3   144  ILE144      0.0019
    134  CD1      -55.2090 -148.6820  313.6510 C.3   144  ILE144      0.0001
@<TRIPOS>BOND
     1    99    98   ar
     2    99    97   ar
     3    98    96   ar
     4    97    95   ar
     5    96    94   ar
     6    89    90    1
     7    95    94   ar
     8    94    93    1
     9    82    83    1
    10    90    93    1
    11    90    91    1
    12    17    14    1
    13    17    18    1
    14    15    16    2
    15    15    14    1
    16    19    18   ar
    17    19    21   ar
    18    13    14    1
    19    13     3   am
    20     1     2    1
    21    91    92    2
    22    91   100   am
    23    18    20   ar
    24    32    31    1
    25   106   107    1
    26    83    84    1
    27    83    86    1
    28    84    85    2
    29    79    78    2
    30    21    22   ar
    31    31    28    1
    32     2     3    1
    33     2     5    1
    34     9     7   ar
    35     9    11   ar
    36    74    73    2
    37     7     6   ar
    38     3     4    2
    39   100   101    1
    40    78    77    1
    41    29    28    1
    42    29    30    2
    43   102   103    2
    44   102   101    1
    45   125   124    1
    46    86    88    1
    47    86    87    1
    48   122   123    2
    49   122   121    1
    50   107   108    1
    51   107   110    1
    52    73    72    1
    53    73    76   am
    54    20    22   ar
    55    72    71    1
    56    72    75    1
    57    23    24    1
    58    28    27    1
    59    12    11    1
    60    11    10   ar
    61   112   114   ar
    62   112   111   ar
    63    27    25   am
    64   127   128    1
    65   108   120   am
    66   108   109    2
    67   101   104    1
    68     6     5    1
    69     6     8   ar
    70   120   121    1
    71   114   115   ar
    72    76    77    1
    73   121   124    1
    74    77    80    1
    75   111   110    1
    76   111   113   ar
    77   124   126    1
    78   104   105    1
    79   115   113   ar
    80   115   117   ar
    81   129   128    1
    82   129   130    2
    83    25    24    1
    84    25    26    2
    85    10     8   ar
    86   128   131    1
    87   113   116   ar
    88   117   119   ar
    89    80    81    1
    90   116   118   ar
    91   119   118   ar
    92   131   132    1
    93   131   133    1
    94    33    34    1
    95   132   134    1
    96    70    69    2
    97    35    34    1
    98    35    36    2
    99    69    68    1
   100    34    37    1
   101    37    38    1
   102    37    39    1
   103    67    68    1
   104    42    43    2
   105    42    41    1
   106    40    41    1
   107    44    41    1
   108    44    45    1
   109    50    51    2
   110    50    49    1
   111    59    58    2
   112    46    45    1
   113    56    57    1
   114    45    47    1
   115    52    49    1
   116    52    54    1
   117    52    53    1
   118    58    57    1
   119    48    49    1
   120    57    60    1
   121    55    53    1
   122    60    61    1
   123    61    63   ar
   124    61    62   ar
   125    63    65   ar
   126    62    64   ar
   127    65    66   ar
   128    64    66   ar
