@<TRIPOS>MOLECULE
tmp/5xr8A03.pdb
 84 81 0 0 0
SMALL
GASTEIGER

@<TRIPOS>ATOM
      1  N        -42.6040 -131.0650  314.9110 N.3    40  ILE40      -0.1231
      2  CA       -43.9520 -130.6870  314.4910 C.3    40  ILE40       0.1692
      3  C        -44.7470 -130.1420  315.6710 C.2    40  ILE40       0.2591
      4  O        -45.3750 -129.0800  315.5810 O.2    40  ILE40      -0.2718
      5  CB       -44.6670 -131.8840  313.8390 C.3    40  ILE40       0.0266
      6  CG1      -43.8970 -132.3590  312.6050 C.3    40  ILE40       0.0019
      7  CG2      -46.0920 -131.5130  313.4680 C.3    40  ILE40       0.0020
      8  CD1      -44.4190 -133.6590  312.0240 C.3    40  ILE40       0.0001
      9  N        -44.7340 -130.8630  316.7950 N.am   41  LEU41      -0.1980
     10  CA       -45.4610 -130.4020  317.9750 C.3    41  LEU41       0.1596
     11  C        -44.8890 -129.0890  318.4920 C.2    41  LEU41       0.2287
     12  O        -45.6360 -128.2100  318.9380 O.2    41  LEU41      -0.2864
     13  CB       -45.4320 -131.4700  319.0680 C.3    41  LEU41       0.0297
     14  CG       -46.6100 -132.4470  319.1020 C.3    41  LEU41       0.0022
     15  CD1      -46.7100 -133.2420  317.8070 C.3    41  LEU41       0.0001
     16  CD2      -46.4920 -133.3770  320.2990 C.3    41  LEU41       0.0001
     17  N        -46.1880 -126.8610  315.9380 N.3    44  ARG44      -0.1245
     18  CA       -47.6180 -126.6690  316.1590 C.3    44  ARG44       0.1563
     19  C        -47.8780 -125.5960  317.2100 C.2    44  ARG44       0.2260
     20  O        -48.8560 -124.8470  317.1060 O.2    44  ARG44      -0.2867
     21  CB       -48.2710 -127.9880  316.5760 C.3    44  ARG44       0.0307
     22  CG       -49.7740 -127.8890  316.7880 C.3    44  ARG44       0.0489
     23  CD       -50.3270 -129.0280  317.6340 C.3    44  ARG44       0.2205
     24  NE       -49.9500 -128.9020  319.0390 N.pl3  44  ARG44      -0.0865
     25  CZ       -50.4320 -129.6670  320.0130 C.cat  44  ARG44       0.5346
     26  NH1      -50.0310 -129.4820  321.2630 N.pl3  44  ARG44       0.1354
     27  NH2      -51.3180 -130.6150  319.7390 N.pl3  44  ARG44       0.1354
     28  N        -48.7650 -124.4660  308.5920 N.3    50  PRO50      -0.2102
     29  CA       -48.4020 -125.7300  307.9320 C.3    50  PRO50       0.1504
     30  C        -49.2820 -126.8740  308.4160 C.2    50  PRO50       0.2576
     31  O        -49.4270 -127.0990  309.6200 O.2    50  PRO50      -0.2718
     32  CB       -46.9350 -125.9350  308.3310 C.3    50  PRO50       0.0282
     33  CG       -46.7870 -125.1780  309.5960 C.3    50  PRO50       0.0208
     34  CD       -47.6540 -123.9700  309.4280 C.3    50  PRO50       0.0893
     35  N        -49.8700 -127.5990  307.4610 N.am   51  SER51      -0.1938
     36  CA       -50.7760 -128.6890  307.8100 C.3    51  SER51       0.2055
     37  C        -50.0380 -129.8060  308.5370 C.2    51  SER51       0.2643
     38  O        -50.4830 -130.2750  309.5910 O.2    51  SER51      -0.2714
     39  CB       -51.4620 -129.2260  306.5510 C.3    51  SER51       0.2130
     40  OG       -50.5390 -129.8930  305.7070 O.3    51  SER51      -0.2179
     41  N        -48.9060 -130.2450  307.9840 N.am   52  TYR52      -0.1959
     42  CA       -48.1040 -131.3420  308.5270 C.3    52  TYR52       0.1771
     43  C        -48.9020 -132.6350  308.6650 C.2    52  TYR52       0.2619
     44  O        -48.5480 -133.5020  309.4720 O.2    52  TYR52      -0.2715
     45  CB       -47.4790 -130.9680  309.8770 C.3    52  TYR52       0.0574
     46  CG       -46.3640 -129.9510  309.7890 C.ar   52  TYR52      -0.0198
     47  CD1      -45.5530 -129.8740  308.6630 C.ar   52  TYR52      -0.0009
     48  CD2      -46.1210 -129.0670  310.8330 C.ar   52  TYR52      -0.0009
     49  CE1      -44.5320 -128.9450  308.5820 C.ar   52  TYR52       0.0417
     50  CE2      -45.1040 -128.1360  310.7600 C.ar   52  TYR52       0.0417
     51  CZ       -44.3130 -128.0780  309.6330 C.ar   52  TYR52       0.1957
     52  OH       -43.2990 -127.1520  309.5600 O.3    52  TYR52      -0.2866
     53  N        -49.9800 -132.7860  307.8920 N.am   53  HIS53      -0.1973
     54  CA       -50.7700 -134.0100  307.9640 C.3    53  HIS53       0.1656
     55  C        -50.0290 -135.1820  307.3340 C.2    53  HIS53       0.2291
     56  O        -50.0980 -136.3100  307.8360 O.2    53  HIS53      -0.2864
     57  CB       -52.1240 -133.8030  307.2880 C.3    53  HIS53       0.0771
     58  CG       -53.0590 -132.9320  308.0660 C.ar   53  HIS53       0.0820
     59  ND1      -53.8350 -131.9580  307.4760 N.ar   53  HIS53      -0.2267
     60  CD2      -53.3470 -132.8910  309.3890 C.ar   53  HIS53       0.1154
     61  CE1      -54.5570 -131.3510  308.4010 C.ar   53  HIS53       0.1986
     62  NE2      -54.2800 -131.8990  309.5710 N.ar   53  HIS53      -0.2212
     63  N        -46.5150 -135.8830  309.4530 N.3    56  GLY56      -0.1225
     64  CA       -46.7780 -136.4760  310.7520 C.3    56  GLY56       0.1811
     65  C        -47.2140 -137.9240  310.6480 C.2    56  GLY56       0.2280
     66  O        -46.7660 -138.7730  311.4240 O.2    56  GLY56      -0.2866
     67  N        -58.4600 -128.9990  304.4330 N.3   129  ARG129     -0.1245
     68  CA       -58.0110 -129.4670  305.7440 C.3   129  ARG129      0.1563
     69  C        -58.9520 -130.5160  306.3250 C.2   129  ARG129      0.2260
     70  O        -58.4640 -131.5730  306.7610 O.2   129  ARG129     -0.2867
     71  CB       -57.8190 -128.2720  306.6860 C.3   129  ARG129      0.0307
     72  CG       -57.2020 -128.6120  308.0400 C.3   129  ARG129      0.0489
     73  CD       -58.2660 -128.7960  309.1130 C.3   129  ARG129      0.2205
     74  NE       -59.1510 -127.6390  309.2070 N.pl3 129  ARG129     -0.0865
     75  CZ       -60.2050 -127.5670  310.0140 C.cat 129  ARG129      0.5346
     76  NH1      -60.5080 -128.5900  310.8010 N.pl3 129  ARG129      0.1354
     77  NH2      -60.9560 -126.4750  310.0340 N.pl3 129  ARG129      0.1354
     78  N        -57.9680 -134.3530  306.8420 N.3   133  VAL133     -0.1245
     79  CA       -58.0530 -134.8740  308.2040 C.3   133  VAL133      0.1561
     80  C        -58.8500 -136.1730  308.2200 C.2   133  VAL133      0.2260
     81  O        -58.4360 -137.1710  308.8220 O.2   133  VAL133     -0.2867
     82  CB       -58.6640 -133.8210  309.1470 C.3   133  VAL133      0.0252
     83  CG1      -59.2670 -134.4860  310.3760 C.3   133  VAL133      0.0019
     84  CG2      -57.6090 -132.8070  309.5620 C.3   133  VAL133      0.0019
@<TRIPOS>BOND
     1    67    68    1
     2    40    39    1
     3    68    69    1
     4    68    71    1
     5    69    70    2
     6    39    36    1
     7    71    72    1
     8    78    79    1
     9    57    54    1
    10    57    58    1
    11    55    56    2
    12    55    54    1
    13    35    36    1
    14    35    30   am
    15    59    58   ar
    16    59    61   ar
    17    36    37    1
    18    53    54    1
    19    53    43   am
    20    29    32    1
    21    29    30    1
    22    29    28    1
    23    41    42    1
    24    41    37   am
    25    72    73    1
    26    58    60   ar
    27    79    80    1
    28    79    82    1
    29    80    81    2
    30    32    33    1
    31    61    62   ar
    32    30    31    2
    33    42    43    1
    34    42    45    1
    35    37    38    2
    36    49    47   ar
    37    49    51   ar
    38    28    34    1
    39    47    46   ar
    40    43    44    2
    41    73    74    1
    42    82    84    1
    43    82    83    1
    44    74    75    2
    45    60    62   ar
    46    34    33    1
    47    63    64    1
    48    52    51    1
    49    51    50   ar
    50    46    45    1
    51    46    48   ar
    52    75    77    1
    53    75    76    1
    54    65    64    1
    55    65    66    2
    56    50    48   ar
    57     8     6    1
    58     6     5    1
    59     7     5    1
    60     5     2    1
    61     2     1    1
    62     2     3    1
    63     4     3    2
    64     3     9   am
    65    17    18    1
    66    18    21    1
    67    18    19    1
    68    21    22    1
    69    22    23    1
    70     9    10    1
    71    20    19    2
    72    23    24    1
    73    15    14    1
    74    10    11    1
    75    10    13    1
    76    11    12    2
    77    24    25    2
    78    13    14    1
    79    14    16    1
    80    27    25    1
    81    25    26    1
