@<TRIPOS>MOLECULE
tmp/5xraA05.pdb
 121 118 0 0 0
SMALL
GASTEIGER

@<TRIPOS>ATOM
      1  N        -48.7900 -131.6710  306.6020 N.3    49  SER49      -0.1202
      2  CA       -49.6020 -132.7260  307.2030 C.3    49  SER49       0.2020
      3  C        -48.7790 -133.9510  307.5930 C.2    49  SER49       0.2619
      4  O        -48.9710 -134.5010  308.6840 O.2    49  SER49      -0.2717
      5  CB       -50.7200 -133.1290  306.2420 C.3    49  SER49       0.2103
      6  OG       -51.6240 -132.0560  306.0400 O.3    49  SER49      -0.2182
      7  N        -47.8810 -134.4000  306.7080 N.am   50  TYR50      -0.1961
      8  CA       -47.0280 -135.5720  306.9290 C.3    50  TYR50       0.1771
      9  C        -47.8220 -136.8730  306.9850 C.2    50  TYR50       0.2620
     10  O        -47.4260 -137.8140  307.6760 O.2    50  TYR50      -0.2715
     11  CB       -46.1860 -135.4310  308.2000 C.3    50  TYR50       0.0574
     12  CG       -45.2660 -134.2410  308.2030 C.ar   50  TYR50      -0.0198
     13  CD1      -44.5360 -133.9010  307.0740 C.ar   50  TYR50      -0.0009
     14  CD2      -45.1320 -133.4520  309.3350 C.ar   50  TYR50      -0.0009
     15  CE1      -43.6930 -132.8120  307.0740 C.ar   50  TYR50       0.0417
     16  CE2      -44.2950 -132.3640  309.3450 C.ar   50  TYR50       0.0417
     17  CZ       -43.5780 -132.0470  308.2140 C.ar   50  TYR50       0.1957
     18  OH       -42.7440 -130.9580  308.2390 O.3    50  TYR50      -0.2866
     19  N        -48.9360 -136.9520  306.2540 N.am   51  HIS51      -0.1959
     20  CA       -49.7540 -138.1610  306.2920 C.3    51  HIS51       0.1787
     21  C        -49.0130 -139.3500  305.6930 C.2    51  HIS51       0.2620
     22  O        -48.9640 -140.4300  306.2930 O.2    51  HIS51      -0.2715
     23  CB       -51.0740 -137.9250  305.5610 C.3    51  HIS51       0.0785
     24  CG       -51.9980 -136.9980  306.2830 C.ar   51  HIS51       0.0821
     25  ND1      -52.3870 -137.2090  307.5890 N.ar   51  HIS51      -0.2267
     26  CD2      -52.6070 -135.8560  305.8880 C.ar   51  HIS51       0.1154
     27  CE1      -53.1960 -136.2360  307.9660 C.ar   51  HIS51       0.1986
     28  NE2      -53.3460 -135.4020  306.9530 N.ar   51  HIS51      -0.2212
     29  N        -48.4340 -139.1700  304.5060 N.am   52  PHE52      -0.1974
     30  CA       -47.6850 -140.2530  303.8790 C.3    52  PHE52       0.1639
     31  C        -46.4040 -140.5530  304.6470 C.2    52  PHE52       0.2290
     32  O        -46.1250 -141.7110  304.9780 O.2    52  PHE52      -0.2864
     33  CB       -47.3800 -139.8990  302.4240 C.3    52  PHE52       0.0560
     34  CG       -46.1830 -140.6110  301.8650 C.ar   52  PHE52      -0.0200
     35  CD1      -46.2020 -141.9820  301.6690 C.ar   52  PHE52      -0.0042
     36  CD2      -45.0400 -139.9060  301.5280 C.ar   52  PHE52      -0.0042
     37  CE1      -45.1010 -142.6360  301.1500 C.ar   52  PHE52      -0.0003
     38  CE2      -43.9380 -140.5550  301.0110 C.ar   52  PHE52      -0.0003
     39  CZ       -43.9680 -141.9220  300.8220 C.ar   52  PHE52      -0.0000
     40  N        -50.5510 -145.2110  298.1780 N.3   106  LEU106     -0.1231
     41  CA       -51.3890 -144.0200  298.2760 C.3   106  LEU106      0.1693
     42  C        -50.6290 -142.7680  297.8560 C.2   106  LEU106      0.2591
     43  O        -51.1890 -141.8950  297.1820 O.2   106  LEU106     -0.2718
     44  CB       -51.9320 -143.8710  299.6980 C.3   106  LEU106      0.0284
     45  CG       -53.0960 -144.7900  300.0730 C.3   106  LEU106      0.0019
     46  CD1      -53.6180 -144.4760  301.4700 C.3   106  LEU106      0.0001
     47  CD2      -54.2080 -144.6790  299.0420 C.3   106  LEU106      0.0001
     48  N        -49.3560 -142.6590  298.2460 N.am  107  ALA107     -0.1980
     49  CA       -48.5430 -141.5340  297.7950 C.3   107  ALA107      0.1597
     50  C        -48.4480 -141.5050  296.2760 C.2   107  ALA107      0.2287
     51  O        -48.5360 -140.4360  295.6610 O.2   107  ALA107     -0.2864
     52  CB       -47.1500 -141.6030  298.4150 C.3   107  ALA107      0.0319
     53  N        -50.6670 -142.5620  294.1870 N.3   109  ILE109     -0.1231
     54  CA       -51.9490 -142.0590  293.6970 C.3   109  ILE109      0.1692
     55  C        -51.9910 -140.5410  293.7820 C.2   109  ILE109      0.2592
     56  O        -52.4320 -139.8610  292.8460 O.2   109  ILE109     -0.2718
     57  CB       -53.1130 -142.6940  294.4810 C.3   109  ILE109      0.0266
     58  CG1      -53.1840 -144.1980  294.2250 C.3   109  ILE109      0.0019
     59  CG2      -54.4310 -142.0280  294.1120 C.3   109  ILE109      0.0020
     60  CD1      -54.4440 -144.8410  294.7450 C.3   109  ILE109      0.0001
     61  N        -51.5380 -139.9880  294.9090 N.am  110  ASP110     -0.1974
     62  CA       -51.5140 -138.5410  295.0880 C.3   110  ASP110      0.1709
     63  C        -50.7310 -137.8620  293.9700 C.2   110  ASP110      0.2293
     64  O        -51.2170 -136.9150  293.3420 O.2   110  ASP110     -0.2864
     65  CB       -50.9210 -138.2100  296.4600 C.3   110  ASP110      0.1436
     66  CG       -50.8580 -136.7200  296.7340 C.2   110  ASP110      0.3671
     67  OD1      -51.5100 -135.9470  296.0090 O.co2 110  ASP110     -0.2456
     68  OD2      -50.1600 -136.3190  297.6890 O.co2 110  ASP110     -0.2456
     69  N        -52.4120 -138.2770  290.3890 N.3   113  ILE113     -0.1245
     70  CA       -53.5540 -137.3880  290.2000 C.3   113  ILE113      0.1561
     71  C        -53.0850 -135.9570  289.9720 C.2   113  ILE113      0.2260
     72  O        -53.6710 -135.2170  289.1710 O.2   113  ILE113     -0.2867
     73  CB       -54.5130 -137.4950  291.3990 C.3   113  ILE113      0.0252
     74  CG1      -55.1630 -138.8800  291.4300 C.3   113  ILE113      0.0019
     75  CG2      -55.5730 -136.4060  291.3480 C.3   113  ILE113      0.0019
     76  CD1      -56.2360 -139.0280  292.4840 C.3   113  ILE113      0.0001
     77  N        -60.0930 -133.6060  294.3710 N.3   124  ILE124     -0.1231
     78  CA       -60.0930 -135.0510  294.5870 C.3   124  ILE124      0.1692
     79  C        -59.2130 -135.4440  295.7710 C.2   124  ILE124      0.2591
     80  O        -59.5230 -136.4050  296.4850 O.2   124  ILE124     -0.2718
     81  CB       -59.6620 -135.7790  293.3020 C.3   124  ILE124      0.0266
     82  CG1      -60.5100 -135.3110  292.1180 C.3   124  ILE124      0.0019
     83  CG2      -59.7880 -137.2880  293.4720 C.3   124  ILE124      0.0020
     84  CD1      -60.1860 -136.0140  290.8180 C.3   124  ILE124      0.0001
     85  N        -58.1140 -134.7330  296.0020 N.am  125  VAL125     -0.1980
     86  CA       -57.2190 -135.0090  297.1200 C.3   125  VAL125      0.1595
     87  C        -57.4190 -133.9110  298.1540 C.2   125  VAL125      0.2287
     88  O        -57.0220 -132.7590  297.9370 O.2   125  VAL125     -0.2864
     89  CB       -55.7510 -135.0930  296.6800 C.3   125  VAL125      0.0276
     90  CG1      -54.8510 -135.3010  297.8900 C.3   125  VAL125      0.0022
     91  CG2      -55.5620 -136.2150  295.6740 C.3   125  VAL125      0.0022
     92  N        -60.1670 -136.4220  303.0350 N.3   129  LYS129     -0.1231
     93  CA       -60.1650 -137.6600  302.2600 C.3   129  LYS129      0.1693
     94  C        -58.9260 -138.4970  302.5540 C.2   129  LYS129      0.2591
     95  O        -59.0070 -139.7280  302.6470 O.2   129  LYS129     -0.2718
     96  CB       -60.2530 -137.3530  300.7650 C.3   129  LYS129      0.0285
     97  CG       -61.6570 -136.9940  300.3010 C.3   129  LYS129      0.0035
     98  CD       -61.6700 -136.7850  298.7910 C.3   129  LYS129      0.0206
     99  CE       -63.0380 -136.3840  298.2630 C.3   129  LYS129      0.1093
    100  NZ       -63.4680 -135.0670  298.7970 N.3   129  LYS129     -0.1314
    101  N        -57.7680 -137.8480  302.6990 N.am  130  ALA130     -0.1980
    102  CA       -56.5290 -138.5870  302.9210 C.3   130  ALA130      0.1597
    103  C        -56.5360 -139.2930  304.2710 C.2   130  ALA130      0.2287
    104  O        -56.0560 -140.4270  304.3850 O.2   130  ALA130     -0.2864
    105  CB       -55.3290 -137.6460  302.8120 C.3   130  ALA130      0.0319
    106  N        -58.6500 -142.3830  303.8890 N.3   133  ALA133     -0.1231
    107  CA       -58.0020 -143.3930  303.0570 C.3   133  ALA133      0.1694
    108  C        -56.9230 -144.1440  303.8290 C.2   133  ALA133      0.2592
    109  O        -56.8950 -145.3800  303.8330 O.2   133  ALA133     -0.2718
    110  CB       -57.4170 -142.7450  301.8020 C.3   133  ALA133      0.0304
    111  N        -56.0190 -143.4100  304.4870 N.am  134  PHE134     -0.1976
    112  CA       -54.9500 -144.0610  305.2430 C.3   134  PHE134      0.1639
    113  C        -55.5120 -144.9360  306.3540 C.2   134  PHE134      0.2290
    114  O        -55.0170 -146.0440  306.5910 O.2   134  PHE134     -0.2864
    115  CB       -53.9980 -143.0180  305.8260 C.3   134  PHE134      0.0560
    116  CG       -52.9570 -142.5370  304.8590 C.ar  134  PHE134     -0.0200
    117  CD1      -51.7160 -143.1520  304.7910 C.ar  134  PHE134     -0.0042
    118  CD2      -53.2150 -141.4670  304.0220 C.ar  134  PHE134     -0.0042
    119  CE1      -50.7550 -142.7060  303.9030 C.ar  134  PHE134     -0.0003
    120  CE2      -52.2590 -141.0160  303.1320 C.ar  134  PHE134     -0.0003
    121  CZ       -51.0270 -141.6360  303.0730 C.ar  134  PHE134     -0.0000
@<TRIPOS>BOND
     1    72    71    2
     2    71    70    1
     3    70    69    1
     4    70    73    1
     5    84    82    1
     6    75    73    1
     7    73    74    1
     8    74    76    1
     9    82    81    1
    10    56    55    2
    11    81    83    1
    12    81    78    1
    13    64    63    2
    14    54    55    1
    15    54    53    1
    16    54    57    1
    17    55    61   am
    18    63    62    1
    19    59    57    1
    20    58    57    1
    21    58    60    1
    22    77    78    1
    23    78    79    1
    24    61    62    1
    25    62    65    1
    26    51    50    2
    27    91    89    1
    28    79    85   am
    29    79    80    2
    30    85    86    1
    31    67    66   ar
    32    50    49    1
    33    65    66    1
    34    89    86    1
    35    89    90    1
    36    66    68   ar
    37    86    87    1
    38    43    42    2
    39    49    48    1
    40    49    52    1
    41    42    48   am
    42    42    41    1
    43    88    87    2
    44    40    41    1
    45    99    98    1
    46    99   100    1
    47    41    44    1
    48    98    97    1
    49    47    45    1
    50    44    45    1
    51    45    46    1
    52    97    96    1
    53    96    93    1
    54    39    38   ar
    55    39    37   ar
    56    38    36   ar
    57    37    35   ar
    58    36    34   ar
    59    35    34   ar
    60   110   107    1
    61    34    33    1
    62    93    94    1
    63    93    92    1
    64    33    30    1
    65    94    95    2
    66    94   101   am
    67   101   102    1
    68   105   102    1
    69   102   103    1
    70   107   108    1
    71   107   106    1
    72   121   120   ar
    73   121   119   ar
    74   120   118   ar
    75   108   109    2
    76   108   111   am
    77    30    29    1
    78    30    31    1
    79   119   117   ar
    80   118   116   ar
    81   103   104    2
    82   111   112    1
    83    29    21   am
    84    31    32    2
    85   117   116   ar
    86   116   115    1
    87   112   115    1
    88   112   113    1
    89    23    24    1
    90    23    20    1
    91    21    20    1
    92    21    22    2
    93    26    24   ar
    94    26    28   ar
    95     6     5    1
    96     5     2    1
    97    19    20    1
    98    19     9   am
    99    24    25   ar
   100   113   114    2
   101     1     2    1
   102     7     8    1
   103     7     3   am
   104     8     9    1
   105     8    11    1
   106    28    27   ar
   107     9    10    2
   108    13    15   ar
   109    13    12   ar
   110    15    17   ar
   111     2     3    1
   112    25    27   ar
   113     3     4    2
   114    11    12    1
   115    12    14   ar
   116    17    18    1
   117    17    16   ar
   118    14    16   ar
