@<TRIPOS>MOLECULE
tmp/5xraA04.pdb
 90 84 0 0 0
SMALL
GASTEIGER

@<TRIPOS>ATOM
      1  N        -29.7450 -157.7280  312.6580 N.3    21  LEU21      -0.1245
      2  CA       -29.6040 -156.8390  313.8050 C.3    21  LEU21       0.1561
      3  C        -29.0410 -155.4850  313.3970 C.2    21  LEU21       0.2260
      4  O        -29.4920 -154.4460  313.8940 O.2    21  LEU21      -0.2867
      5  CB       -28.7300 -157.4970  314.8720 C.3    21  LEU21       0.0270
      6  CG       -29.5080 -158.5360  315.6780 C.3    21  LEU21       0.0019
      7  CD1      -28.6730 -159.1300  316.7930 C.3    21  LEU21       0.0001
      8  CD2      -30.7710 -157.9000  316.2370 C.3    21  LEU21       0.0001
      9  N        -31.9370 -153.8430  311.2270 N.3    24  GLY24      -0.1210
     10  CA       -33.1100 -153.6080  312.0510 C.3    24  GLY24       0.1956
     11  C        -32.9260 -152.4580  313.0250 C.2    24  GLY24       0.2612
     12  O        -33.8140 -151.6200  313.1830 O.2    24  GLY24      -0.2717
     13  N        -31.7650 -152.3960  313.6770 N.am   25  THR25      -0.1952
     14  CA       -31.5380 -151.3350  314.6530 C.3    25  THR25       0.1897
     15  C        -31.4270 -149.9760  313.9740 C.2    25  THR25       0.2313
     16  O        -32.0120 -148.9930  314.4440 O.2    25  THR25      -0.2863
     17  CB       -30.2840 -151.6270  315.4700 C.3    25  THR25       0.1794
     18  OG1      -30.3490 -152.9610  315.9860 O.3    25  THR25      -0.2208
     19  CG2      -30.1810 -150.6470  316.6280 C.3    25  THR25       0.0378
     20  N        -34.9410 -149.0920  313.0980 N.3    28  VAL28      -0.1245
     21  CA       -35.7260 -148.6760  314.2570 C.3    28  VAL28       0.1561
     22  C        -35.3600 -147.2550  314.6620 C.2    28  VAL28       0.2260
     23  O        -36.2350 -146.4140  314.8970 O.2    28  VAL28      -0.2867
     24  CB       -35.5320 -149.6640  315.4210 C.3    28  VAL28       0.0252
     25  CG1      -36.0780 -149.0750  316.7130 C.3    28  VAL28       0.0019
     26  CG2      -36.2210 -150.9750  315.1070 C.3    28  VAL28       0.0019
     27  N        -39.3080 -154.3460  313.8080 N.3    65  VAL65      -0.1245
     28  CA       -39.1920 -154.8890  315.1570 C.3    65  VAL65       0.1561
     29  C        -39.7840 -156.2910  315.2230 C.2    65  VAL65       0.2260
     30  O        -39.1470 -157.2260  315.7220 O.2    65  VAL65      -0.2867
     31  CB       -39.8540 -153.9490  316.1810 C.3    65  VAL65       0.0252
     32  CG1      -40.0850 -154.6800  317.4950 C.3    65  VAL65       0.0019
     33  CG2      -38.9860 -152.7320  316.4120 C.3    65  VAL65       0.0019
     34  N        -37.5030 -158.7440  312.7410 N.3    68  VAL68      -0.1231
     35  CA       -36.1690 -159.0860  313.2330 C.3    68  VAL68       0.1692
     36  C        -36.2540 -159.9860  314.4580 C.2    68  VAL68       0.2592
     37  O        -35.5030 -160.9610  314.5780 O.2    68  VAL68      -0.2718
     38  CB       -35.3580 -157.8080  313.5200 C.3    68  VAL68       0.0266
     39  CG1      -34.0540 -158.1500  314.2320 C.3    68  VAL68       0.0020
     40  CG2      -35.0720 -157.0660  312.2250 C.3    68  VAL68       0.0020
     41  N        -37.1840 -159.6980  315.3730 N.am   69  TYR69      -0.1976
     42  CA       -37.3080 -160.5410  316.5580 C.3    69  TYR69       0.1639
     43  C        -37.7410 -161.9530  316.1790 C.2    69  TYR69       0.2290
     44  O        -37.0730 -162.9350  316.5240 O.2    69  TYR69      -0.2864
     45  CB       -38.2870 -159.9350  317.5680 C.3    69  TYR69       0.0560
     46  CG       -38.2070 -160.6310  318.9140 C.ar   69  TYR69      -0.0198
     47  CD1      -38.7560 -161.8950  319.1010 C.ar   69  TYR69      -0.0009
     48  CD2      -37.5610 -160.0370  319.9890 C.ar   69  TYR69      -0.0009
     49  CE1      -38.6670 -162.5430  320.3150 C.ar   69  TYR69       0.0417
     50  CE2      -37.4710 -160.6800  321.2130 C.ar   69  TYR69       0.0417
     51  CZ       -38.0280 -161.9320  321.3680 C.ar   69  TYR69       0.1957
     52  OH       -37.9450 -162.5800  322.5790 O.3    69  TYR69      -0.2866
     53  N        -34.9550 -163.7670  313.9470 N.3    72  ILE72      -0.1231
     54  CA       -33.8210 -164.2580  314.7260 C.3    72  ILE72       0.1692
     55  C        -34.2450 -165.4370  315.5910 C.2    72  ILE72       0.2592
     56  O        -33.5290 -166.4400  315.7020 O.2    72  ILE72      -0.2718
     57  CB       -33.2280 -163.1200  315.5800 C.3    72  ILE72       0.0266
     58  CG1      -32.5810 -162.0510  314.6970 C.3    72  ILE72       0.0019
     59  CG2      -32.2170 -163.6640  316.5770 C.3    72  ILE72       0.0020
     60  CD1      -31.3150 -162.5050  314.0270 C.3    72  ILE72       0.0001
     61  N        -35.4250 -165.3370  316.2080 N.am   73  ASP73      -0.1974
     62  CA       -35.8970 -166.3770  317.1140 C.3    73  ASP73       0.1709
     63  C        -36.1150 -167.6950  316.3810 C.2    73  ASP73       0.2293
     64  O        -35.8060 -168.7690  316.9080 O.2    73  ASP73      -0.2864
     65  CB       -37.1890 -165.9140  317.7870 C.3    73  ASP73       0.1436
     66  CG       -37.3730 -166.4950  319.1680 C.2    73  ASP73       0.3671
     67  OD1      -36.4020 -167.0580  319.7150 O.co2  73  ASP73      -0.2456
     68  OD2      -38.4910 -166.3820  319.7150 O.co2  73  ASP73      -0.2456
     69  N        -32.5770 -169.4350  316.9590 N.3    77  PHE77      -0.1241
     70  CA       -32.9410 -170.1050  318.2010 C.3    77  PHE77       0.1605
     71  C        -33.8150 -171.3320  317.9870 C.2    77  PHE77       0.2264
     72  O        -33.9570 -172.1350  318.9130 O.2    77  PHE77      -0.2867
     73  CB       -33.6510 -169.1270  319.1420 C.3    77  PHE77       0.0534
     74  CG       -32.7620 -168.0350  319.6550 C.ar   77  PHE77      -0.0203
     75  CD1      -32.4020 -166.9760  318.8410 C.ar   77  PHE77      -0.0042
     76  CD2      -32.2740 -168.0760  320.9500 C.ar   77  PHE77      -0.0042
     77  CE1      -31.5740 -165.9740  319.3080 C.ar   77  PHE77      -0.0003
     78  CE2      -31.4490 -167.0770  321.4240 C.ar   77  PHE77      -0.0003
     79  CZ       -31.0970 -166.0250  320.6030 C.ar   77  PHE77      -0.0000
     80  N        -37.0860 -171.7140  317.6230 N.3    79  ARG79      -0.1245
     81  CA       -38.3310 -171.7770  318.3760 C.3    79  ARG79       0.1563
     82  C        -39.3290 -172.6630  317.6480 C.2    79  ARG79       0.2260
     83  O        -39.6610 -172.4190  316.4840 O.2    79  ARG79      -0.2867
     84  CB       -38.9100 -170.3760  318.5760 C.3    79  ARG79       0.0307
     85  CG       -38.2820 -169.5850  319.7110 C.3    79  ARG79       0.0489
     86  CD       -38.8140 -170.0040  321.0760 C.3    79  ARG79       0.2205
     87  NE       -40.2520 -169.7800  321.2090 N.pl3  79  ARG79      -0.0865
     88  CZ       -40.8060 -168.9000  322.0380 C.cat  79  ARG79       0.5346
     89  NH1      -40.0480 -168.1520  322.8300 N.pl3  79  ARG79       0.1354
     90  NH2      -42.1250 -168.7740  322.0820 N.pl3  79  ARG79       0.1354
@<TRIPOS>BOND
     1     9    10    1
     2    10    11    1
     3    40    38    1
     4     1     2    1
     5    34    35    1
     6    11    12    2
     7    11    13   am
     8    20    21    1
     9    35    38    1
    10    35    36    1
    11     3     2    1
    12     3     4    2
    13    38    39    1
    14    13    14    1
    15     2     5    1
    16    27    28    1
    17    53    54    1
    18    15    16    2
    19    15    14    1
    20    60    58    1
    21    21    22    1
    22    21    24    1
    23    36    37    2
    24    36    41   am
    25    14    17    1
    26    22    23    2
    27    58    57    1
    28    54    57    1
    29    54    55    1
    30     5     6    1
    31    26    24    1
    32    28    29    1
    33    28    31    1
    34    29    30    2
    35    41    42    1
    36    24    25    1
    37    17    18    1
    38    17    19    1
    39    57    59    1
    40    55    56    2
    41    55    61   am
    42     6     8    1
    43     6     7    1
    44    43    44    2
    45    43    42    1
    46    31    33    1
    47    31    32    1
    48    61    62    1
    49    63    64    2
    50    63    62    1
    51    83    82    2
    52    42    45    1
    53    69    70    1
    54    62    65    1
    55    45    46    1
    56    80    81    1
    57    82    81    1
    58    65    66    1
    59    71    70    1
    60    71    72    2
    61    70    73    1
    62    81    84    1
    63    84    85    1
    64    75    77   ar
    65    75    74   ar
    66    46    47   ar
    67    46    48   ar
    68    47    49   ar
    69    73    74    1
    70    66    68   ar
    71    66    67   ar
    72    77    79   ar
    73    74    76   ar
    74    85    86    1
    75    48    50   ar
    76    49    51   ar
    77    79    78   ar
    78    76    78   ar
    79    86    87    1
    80    87    88    2
    81    50    51   ar
    82    51    52    1
    83    88    90    1
    84    88    89    1
