@<TRIPOS>MOLECULE
tmp/5xraA03.pdb
 88 83 0 0 0
SMALL
GASTEIGER

@<TRIPOS>ATOM
      1  N        -40.4490 -139.9430  313.3770 N.3    35  LEU35      -0.1245
      2  CA       -41.6270 -139.6720  314.1950 C.3    35  LEU35       0.1561
      3  C        -41.3630 -138.5760  315.2170 C.2    35  LEU35       0.2260
      4  O        -42.2740 -137.8100  315.5510 O.2    35  LEU35      -0.2867
      5  CB       -42.0850 -140.9490  314.8970 C.3    35  LEU35       0.0270
      6  CG       -42.5840 -142.0540  313.9680 C.3    35  LEU35       0.0019
      7  CD1      -42.7740 -143.3510  314.7340 C.3    35  LEU35       0.0001
      8  CD2      -43.8770 -141.6300  313.2880 C.3    35  LEU35       0.0001
      9  N        -41.5120 -135.3090  313.2160 N.3    38  ILE38      -0.1231
     10  CA       -42.8980 -135.0440  312.8300 C.3    38  ILE38       0.1692
     11  C        -43.6260 -134.3240  313.9570 C.2    38  ILE38       0.2591
     12  O        -44.2490 -133.2750  313.7530 O.2    38  ILE38      -0.2718
     13  CB       -43.6280 -136.3460  312.4520 C.3    38  ILE38       0.0266
     14  CG1      -42.9470 -137.0510  311.2810 C.3    38  ILE38       0.0019
     15  CG2      -45.0760 -136.0460  312.0920 C.3    38  ILE38       0.0020
     16  CD1      -42.8080 -136.2080  310.0490 C.3    38  ILE38       0.0001
     17  N        -43.5530 -134.8810  315.1680 N.am   39  LEU39      -0.1980
     18  CA       -44.3030 -134.3310  316.2900 C.3    39  LEU39       0.1596
     19  C        -43.7620 -132.9760  316.7260 C.2    39  LEU39       0.2287
     20  O        -44.5240 -132.1450  317.2310 O.2    39  LEU39      -0.2864
     21  CB       -44.2950 -135.3150  317.4600 C.3    39  LEU39       0.0297
     22  CG       -45.4470 -136.3240  317.5260 C.3    39  LEU39       0.0022
     23  CD1      -45.6640 -137.0450  316.2000 C.3    39  LEU39       0.0001
     24  CD2      -45.2010 -137.3280  318.6400 C.3    39  LEU39       0.0001
     25  N        -45.1600 -130.4430  314.0270 N.3    42  ARG42      -0.1245
     26  CA       -46.5500 -130.0980  314.2900 C.3    42  ARG42       0.1563
     27  C        -46.6940 -129.1560  315.4790 C.2    42  ARG42       0.2260
     28  O        -47.7140 -128.4690  315.5840 O.2    42  ARG42      -0.2867
     29  CB       -47.3820 -131.3620  314.5130 C.3    42  ARG42       0.0307
     30  CG       -48.0560 -131.8800  313.2500 C.3    42  ARG42       0.0489
     31  CD       -49.2100 -132.8190  313.5740 C.3    42  ARG42       0.2205
     32  NE       -50.2500 -132.7700  312.5500 N.pl3  42  ARG42      -0.0865
     33  CZ       -51.3210 -133.5570  312.5310 C.cat  42  ARG42       0.5346
     34  NH1      -52.2150 -133.4360  311.5610 N.pl3  42  ARG42       0.1354
     35  NH2      -51.4970 -134.4670  313.4780 N.pl3  42  ARG42       0.1354
     36  N        -48.7900 -131.6710  306.6020 N.3    49  SER49      -0.1202
     37  CA       -49.6020 -132.7260  307.2030 C.3    49  SER49       0.2020
     38  C        -48.7790 -133.9510  307.5930 C.2    49  SER49       0.2619
     39  O        -48.9710 -134.5010  308.6840 O.2    49  SER49      -0.2717
     40  CB       -50.7200 -133.1290  306.2420 C.3    49  SER49       0.2103
     41  OG       -51.6240 -132.0560  306.0400 O.3    49  SER49      -0.2182
     42  N        -47.8810 -134.4000  306.7080 N.am   50  TYR50      -0.1961
     43  CA       -47.0280 -135.5720  306.9290 C.3    50  TYR50       0.1771
     44  C        -47.8220 -136.8730  306.9850 C.2    50  TYR50       0.2619
     45  O        -47.4260 -137.8140  307.6760 O.2    50  TYR50      -0.2715
     46  CB       -46.1860 -135.4310  308.2000 C.3    50  TYR50       0.0574
     47  CG       -45.2660 -134.2410  308.2030 C.ar   50  TYR50      -0.0198
     48  CD1      -44.5360 -133.9010  307.0740 C.ar   50  TYR50      -0.0009
     49  CD2      -45.1320 -133.4520  309.3350 C.ar   50  TYR50      -0.0009
     50  CE1      -43.6930 -132.8120  307.0740 C.ar   50  TYR50       0.0417
     51  CE2      -44.2950 -132.3640  309.3450 C.ar   50  TYR50       0.0417
     52  CZ       -43.5780 -132.0470  308.2140 C.ar   50  TYR50       0.1957
     53  OH       -42.7440 -130.9580  308.2390 O.3    50  TYR50      -0.2866
     54  N        -48.9360 -136.9520  306.2540 N.am   51  HIS51      -0.1973
     55  CA       -49.7540 -138.1610  306.2920 C.3    51  HIS51       0.1656
     56  C        -49.0130 -139.3500  305.6930 C.2    51  HIS51       0.2291
     57  O        -48.9640 -140.4300  306.2930 O.2    51  HIS51      -0.2864
     58  CB       -51.0740 -137.9250  305.5610 C.3    51  HIS51       0.0771
     59  CG       -51.9980 -136.9980  306.2830 C.ar   51  HIS51       0.0820
     60  ND1      -52.3870 -137.2090  307.5890 N.ar   51  HIS51      -0.2267
     61  CD2      -52.6070 -135.8560  305.8880 C.ar   51  HIS51       0.1154
     62  CE1      -53.1960 -136.2360  307.9660 C.ar   51  HIS51       0.1986
     63  NE2      -53.3460 -135.4020  306.9530 N.ar   51  HIS51      -0.2212
     64  N        -45.5620 -139.9170  307.7200 N.3    54  GLY54      -0.1210
     65  CA       -45.8040 -140.4790  309.0400 C.3    54  GLY54       0.1956
     66  C        -46.2400 -141.9320  308.9860 C.2    54  GLY54       0.2612
     67  O        -45.7200 -142.7760  309.7200 O.2    54  GLY54      -0.2717
     68  N        -47.2030 -142.2400  308.1120 N.am   55  SER55      -0.1952
     69  CA       -47.7040 -143.6080  307.9920 C.3    55  SER55       0.1924
     70  C        -46.5820 -144.5790  307.6480 C.2    55  SER55       0.2314
     71  O        -46.4690 -145.6560  308.2460 O.2    55  SER55      -0.2863
     72  CB       -48.8070 -143.6640  306.9330 C.3    55  SER55       0.2116
     73  OG       -49.0720 -144.9980  306.5340 O.3    55  SER55      -0.2180
     74  N        -44.3970 -145.4120  310.7290 N.3    58  VAL58      -0.1245
     75  CA       -45.0080 -146.3450  311.6710 C.3    58  VAL58       0.1561
     76  C        -44.9510 -147.7650  311.1230 C.2    58  VAL58       0.2260
     77  O        -44.6030 -148.7100  311.8410 O.2    58  VAL58      -0.2867
     78  CB       -46.4530 -145.9200  311.9910 C.3    58  VAL58       0.0252
     79  CG1      -47.0930 -146.8980  312.9670 C.3    58  VAL58       0.0019
     80  CG2      -46.4770 -144.5080  312.5500 C.3    58  VAL58       0.0019
     81  N        -42.7460 -150.6840  313.1370 N.3    62  LEU62      -0.1245
     82  CA       -43.4000 -151.8800  313.6600 C.3    62  LEU62       0.1561
     83  C        -42.9170 -153.1310  312.9400 C.2    62  LEU62       0.2260
     84  O        -42.5630 -154.1300  313.5770 O.2    62  LEU62      -0.2867
     85  CB       -44.9170 -151.7470  313.5330 C.3    62  LEU62       0.0270
     86  CG       -45.6060 -150.7780  314.4880 C.3    62  LEU62       0.0019
     87  CD1      -47.1110 -150.8770  314.3170 C.3    62  LEU62       0.0001
     88  CD2      -45.2090 -151.0820  315.9230 C.3    62  LEU62       0.0001
@<TRIPOS>BOND
     1    58    59    1
     2    58    55    1
     3    56    55    1
     4    56    57    2
     5    61    59   ar
     6    61    63   ar
     7    41    40    1
     8    40    37    1
     9    54    55    1
    10    54    44   am
    11    59    60   ar
    12    73    72    1
    13    36    37    1
    14    42    43    1
    15    42    38   am
    16    43    44    1
    17    43    46    1
    18    72    69    1
    19    63    62   ar
    20    44    45    2
    21    50    48   ar
    22    50    52   ar
    23    48    47   ar
    24    37    38    1
    25    60    62   ar
    26    38    39    2
    27    70    69    1
    28    70    71    2
    29    64    65    1
    30    69    68    1
    31    68    66   am
    32    46    47    1
    33    47    49   ar
    34    52    53    1
    35    52    51   ar
    36    66    65    1
    37    66    67    2
    38    49    51   ar
    39    16    14    1
    40    74    75    1
    41    76    75    1
    42    76    77    2
    43    14    13    1
    44    34    33    1
    45    75    78    1
    46    78    80    1
    47    78    79    1
    48    15    13    1
    49    13    10    1
    50    33    32    2
    51    33    35    1
    52    32    31    1
    53    10     9    1
    54    10    11    1
    55    83    84    2
    56    83    82    1
    57    81    82    1
    58    30    31    1
    59    30    29    1
    60     8     6    1
    61     1     2    1
    62    85    82    1
    63    85    86    1
    64    12    11    2
    65    11    17   am
    66     6     7    1
    67     6     5    1
    68    25    26    1
    69     2     5    1
    70     2     3    1
    71    26    29    1
    72    26    27    1
    73    87    86    1
    74    86    88    1
    75    17    18    1
    76     3     4    2
    77    27    28    2
    78    23    22    1
    79    18    19    1
    80    18    21    1
    81    19    20    2
    82    21    22    1
    83    22    24    1
