@<TRIPOS>MOLECULE
tmp/5xreA00.pdb
 174 164 0 0 0
SMALL
GASTEIGER

@<TRIPOS>ATOM
      1  N        -34.1120   11.6130   16.2770 N.3    32  LEU32      -0.1245
      2  CA       -34.6290   12.1560   17.5250 C.3    32  LEU32       0.1561
      3  C        -35.8800   11.3990   17.9760 C.2    32  LEU32       0.2260
      4  O        -36.0580   11.1220   19.1680 O.2    32  LEU32      -0.2867
      5  CB       -34.9030   13.6600   17.3930 C.3    32  LEU32       0.0270
      6  CG       -33.6230   14.4840   17.1750 C.3    32  LEU32       0.0019
      7  CD1      -33.9650   15.9460   16.9530 C.3    32  LEU32       0.0001
      8  CD2      -32.6580   14.3550   18.3470 C.3    32  LEU32       0.0001
      9  N        -34.7950    8.1870   19.4950 N.3    35  ASN35      -0.1225
     10  CA       -34.3840    8.3580   20.8850 C.3    35  ASN35       0.1785
     11  C        -35.5970    8.4540   21.8260 C.2    35  ASN35       0.2597
     12  O        -35.6100    7.8640   22.9130 O.2    35  ASN35      -0.2718
     13  CB       -33.4870    9.5900   21.0450 C.3    35  ASN35       0.1169
     14  CG       -32.0730    9.3680   20.5300 C.2    35  ASN35       0.2627
     15  OD1      -31.7210    8.2810   20.0800 O.2    35  ASN35      -0.2716
     16  ND2      -31.2510   10.4110   20.6040 N.am   35  ASN35      -0.0877
     17  N        -36.6060    9.2190   21.4170 N.am   36  SER36      -0.1952
     18  CA       -37.8300    9.3250   22.2130 C.3    36  SER36       0.1924
     19  C        -38.4890    7.9630   22.3980 C.2    36  SER36       0.2314
     20  O        -38.9060    7.6140   23.5050 O.2    36  SER36      -0.2863
     21  CB       -38.8080   10.2730   21.5330 C.3    36  SER36       0.2116
     22  OG       -38.3070   11.6000   21.5400 O.3    36  SER36      -0.2180
     23  N        -37.0700    5.0370   22.3460 N.3    38  ASP38      -0.1225
     24  CA       -36.2680    4.2490   23.2800 C.3    38  ASP38       0.1805
     25  C        -36.5860    4.6220   24.7290 C.2    38  ASP38       0.2597
     26  O        -36.7180    3.7610   25.5940 O.2    38  ASP38      -0.2718
     27  CB       -34.7700    4.4340   23.0070 C.3    38  ASP38       0.1424
     28  CG       -34.3150    3.7860   21.7010 C.2    38  ASP38       0.3668
     29  OD1      -35.1040    3.0610   21.0580 O.co2  38  ASP38      -0.2456
     30  OD2      -33.1430    3.9970   21.3370 O.co2  38  ASP38      -0.2456
     31  N        -36.7190    5.9190   24.9830 N.am   39  ALA39      -0.1979
     32  CA       -37.0110    6.4050   26.3300 C.3    39  ALA39       0.1597
     33  C        -38.4170    6.0220   26.7760 C.2    39  ALA39       0.2287
     34  O        -38.6530    5.7440   27.9550 O.2    39  ALA39      -0.2864
     35  CB       -36.8380    7.9040   26.3770 C.3    39  ALA39       0.0319
     36  N        -38.5060    2.4300   27.7460 N.3    42  LYS42      -0.1245
     37  CA       -37.9480    2.1800   29.0700 C.3    42  LYS42       0.1561
     38  C        -38.9200    2.4740   30.2050 C.2    42  LYS42       0.2260
     39  O        -39.0740    1.6540   31.1040 O.2    42  LYS42      -0.2867
     40  CB       -36.6320    2.9240   29.2940 C.3    42  LYS42       0.0271
     41  CG       -35.8930    2.3950   30.5070 C.3    42  LYS42       0.0035
     42  CD       -34.4650    2.8800   30.5580 C.3    42  LYS42       0.0206
     43  CE       -33.7490    2.2710   31.7470 C.3    42  LYS42       0.1093
     44  NZ       -32.3410    2.7400   31.8250 N.3    42  LYS42      -0.1314
     45  N        -41.2080   14.2220   24.3460 N.3    77  ASP77      -0.1239
     46  CA       -41.6480   12.8720   24.6820 C.3    77  ASP77       0.1674
     47  C        -41.8890   12.7550   26.1780 C.2    77  ASP77       0.2266
     48  O        -41.3610   13.5400   26.9810 O.2    77  ASP77      -0.2867
     49  CB       -40.6730   11.7890   24.1830 C.3    77  ASP77       0.1410
     50  CG       -39.3470   11.7860   24.9240 C.2    77  ASP77       0.3668
     51  OD1      -39.3430   11.4600   26.1320 O.co2  77  ASP77      -0.2456
     52  OD2      -38.3020   12.0880   24.2900 O.co2  77  ASP77      -0.2456
     53  N        -38.6800    8.1190   29.8710 N.3    80  ILE80      -0.1231
     54  CA       -38.1490    7.9700   31.2180 C.3    80  ILE80       0.1692
     55  C        -37.4210    9.2260   31.7170 C.2    80  ILE80       0.2593
     56  O        -37.3130    9.4530   32.9290 O.2    80  ILE80      -0.2718
     57  CB       -37.2530    6.7150   31.3040 C.3    80  ILE80       0.0266
     58  CG1      -36.9650    6.3450   32.7630 C.3    80  ILE80       0.0019
     59  CG2      -35.9550    6.9250   30.5130 C.3    80  ILE80       0.0020
     60  CD1      -36.5610    4.8920   32.9650 C.3    80  ILE80       0.0001
     61  N        -36.9340   10.0480   30.7930 N.am   81  GLY81      -0.1942
     62  CA       -36.1810   11.2270   31.1850 C.3    81  GLY81       0.2014
     63  C        -34.7410   10.9270   31.5570 C.2    81  GLY81       0.2638
     64  O        -34.3770    9.7760   31.8430 O.2    81  GLY81      -0.2714
     65  N        -33.9210   11.9740   31.5560 N.am   82  MET82      -0.1976
     66  CA       -32.4950   11.8470   31.8500 C.3    82  MET82       0.1605
     67  C        -32.0980   12.4960   33.1700 C.2    82  MET82       0.2287
     68  O        -32.6330   13.5420   33.5530 O.2    82  MET82      -0.2864
     69  CB       -31.6530   12.4260   30.7120 C.3    82  MET82       0.0413
     70  CG       -31.6800   11.5700   29.4520 C.3    82  MET82       0.0598
     71  SD       -30.8590   12.3610   28.0670 S.3    82  MET82      -0.1393
     72  CE       -32.0680   13.6100   27.6510 C.3    82  MET82       0.0692
     73  N        -26.6250   11.2750   33.4640 N.3    86  ASP86      -0.1225
     74  CA       -26.8180   10.9620   32.0520 C.3    86  ASP86       0.1805
     75  C        -26.2370   12.0840   31.2030 C.2    86  ASP86       0.2597
     76  O        -25.4830   11.8460   30.2620 O.2    86  ASP86      -0.2718
     77  CB       -28.3080   10.8580   31.7140 C.3    86  ASP86       0.1424
     78  CG       -28.9290    9.5240   32.1090 C.2    86  ASP86       0.3668
     79  OD1      -28.2150    8.5010   32.2090 O.co2  86  ASP86      -0.2456
     80  OD2      -30.1620    9.5060   32.2950 O.co2  86  ASP86      -0.2456
     81  N        -26.6180   13.3130   31.5370 N.am   87  LEU87      -0.1979
     82  CA       -26.2780   14.4770   30.7240 C.3    87  LEU87       0.1596
     83  C        -24.7960   14.8340   30.7390 C.2    87  LEU87       0.2287
     84  O        -24.2400   15.2320   29.7190 O.2    87  LEU87      -0.2864
     85  CB       -27.0850   15.6940   31.1830 C.3    87  LEU87       0.0297
     86  CG       -28.5950   15.6360   30.9900 C.3    87  LEU87       0.0022
     87  CD1      -29.2520   16.8360   31.6560 C.3    87  LEU87       0.0001
     88  CD2      -28.9600   15.5700   29.5120 C.3    87  LEU87       0.0001
     89  N        -24.1330    9.2350   29.1560 N.3    91  LEU91      -0.1245
     90  CA       -24.4540    9.1270   27.7390 C.3    91  LEU91       0.1561
     91  C        -23.2440    9.4430   26.8600 C.2    91  LEU91       0.2260
     92  O        -23.0820    8.8640   25.7910 O.2    91  LEU91      -0.2867
     93  CB       -25.6610    9.9940   27.3910 C.3    91  LEU91       0.0270
     94  CG       -26.9190    9.5500   28.1480 C.3    91  LEU91       0.0019
     95  CD1      -28.1050   10.3530   27.6660 C.3    91  LEU91       0.0001
     96  CD2      -27.1860    8.0530   27.9880 C.3    91  LEU91       0.0001
     97  N        -21.5320    7.1250   24.0810 N.3    95  ALA95      -0.1245
     98  CA       -21.3860    7.6730   22.7370 C.3    95  ALA95       0.1562
     99  C        -19.9620    7.5460   22.1690 C.2    95  ALA95       0.2260
    100  O        -19.7780    7.5430   20.9550 O.2    95  ALA95      -0.2867
    101  CB       -21.8550    9.1240   22.6960 C.3    95  ALA95       0.0290
    102  N        -25.6240    4.3760   17.3040 N.3   119  GLY119     -0.1210
    103  CA       -26.1190    4.7650   18.6090 C.3   119  GLY119      0.1956
    104  C        -25.8540    6.2070   18.9870 C.2   119  GLY119      0.2612
    105  O        -25.9690    6.5740   20.1560 O.2   119  GLY119     -0.2717
    106  N        -25.5130    7.0350   18.0010 N.am  120  VAL120     -0.1965
    107  CA       -25.1860    8.4350   18.2670 C.3   120  VAL120      0.1727
    108  C        -26.0090    9.3890   17.3990 C.2   120  VAL120      0.2617
    109  O        -25.5790   10.4940   17.0490 O.2   120  VAL120     -0.2715
    110  CB       -23.6710    8.7180   18.1250 C.3   120  VAL120      0.0290
    111  CG1      -22.9150    7.9890   19.2170 C.3   120  VAL120      0.0023
    112  CG2      -23.1530    8.3120   16.7520 C.3   120  VAL120      0.0023
    113  N        -27.2210    8.9540   17.0820 N.am  121  GLY121     -0.1940
    114  CA       -28.1150    9.7270   16.2410 C.3   121  GLY121      0.2014
    115  C        -28.4950   11.1000   16.7630 C.2   121  GLY121      0.2639
    116  O        -28.8100   11.9690   15.9590 O.2   121  GLY121     -0.2714
    117  N        -28.4570   11.3140   18.0780 N.am  122  PHE122     -0.1959
    118  CA       -28.8230   12.6290   18.5950 C.3   122  PHE122      0.1771
    119  C        -28.0620   13.7330   17.8670 C.2   122  PHE122      0.2619
    120  O        -28.6160   14.7910   17.5710 O.2   122  PHE122     -0.2715
    121  CB       -28.5290   12.7580   20.0860 C.3   122  PHE122      0.0574
    122  CG       -28.6150   14.1770   20.5720 C.ar  122  PHE122     -0.0200
    123  CD1      -29.8500   14.7770   20.7740 C.ar  122  PHE122     -0.0042
    124  CD2      -27.4600   14.9130   20.7960 C.ar  122  PHE122     -0.0042
    125  CE1      -29.9370   16.0920   21.1990 C.ar  122  PHE122     -0.0003
    126  CE2      -27.5370   16.2350   21.2190 C.ar  122  PHE122     -0.0003
    127  CZ       -28.7760   16.8220   21.4230 C.ar  122  PHE122     -0.0000
    128  N        -26.7820   13.4980   17.5940 N.am  123  TYR123     -0.1974
    129  CA       -25.9240   14.5720   17.0860 C.3   123  TYR123      0.1639
    130  C        -26.2650   15.0030   15.6690 C.2   123  TYR123      0.2290
    131  O        -25.8190   16.0630   15.2080 O.2   123  TYR123     -0.2864
    132  CB       -24.4330   14.2230   17.2470 C.3   123  TYR123      0.0560
    133  CG       -24.0820   14.0410   18.7010 C.ar  123  TYR123     -0.0198
    134  CD1      -23.8180   15.1380   19.5110 C.ar  123  TYR123     -0.0009
    135  CD2      -24.0850   12.7840   19.2780 C.ar  123  TYR123     -0.0009
    136  CE1      -23.5390   14.9700   20.8600 C.ar  123  TYR123      0.0417
    137  CE2      -23.8080   12.6100   20.6160 C.ar  123  TYR123      0.0417
    138  CZ       -23.5380   13.7030   21.3980 C.ar  123  TYR123      0.1957
    139  OH       -23.2520   13.5190   22.7330 O.3   123  TYR123     -0.2866
    140  N        -32.0890   21.0840   25.5050 N.3   134  VAL134     -0.1245
    141  CA       -32.7880   19.8720   25.9000 C.3   134  VAL134      0.1561
    142  C        -33.2570   19.9890   27.3470 C.2   134  VAL134      0.2260
    143  O        -32.4430   20.1420   28.2580 O.2   134  VAL134     -0.2867
    144  CB       -31.8770   18.6410   25.7360 C.3   134  VAL134      0.0252
    145  CG1      -32.5960   17.3860   26.1840 C.3   134  VAL134      0.0019
    146  CG2      -31.4170   18.5020   24.2860 C.3   134  VAL134      0.0019
    147  N        -30.0820   21.1950   29.3410 N.3   146  TRP146     -0.1241
    148  CA       -28.8080   20.9950   28.6600 C.3   146  TRP146      0.1605
    149  C        -28.8220   21.8450   27.4120 C.2   146  TRP146      0.2264
    150  O        -29.8700   22.0340   26.7880 O.2   146  TRP146     -0.2867
    151  CB       -28.7100   19.5240   28.2790 C.3   146  TRP146      0.0550
    152  CG       -27.5230   19.0560   27.4690 C.ar  146  TRP146      0.0003
    153  CD1      -26.4530   18.3440   27.9400 C.ar  146  TRP146      0.0946
    154  CD2      -27.3290   19.1740   26.0470 C.ar  146  TRP146      0.0152
    155  NE1      -25.6020   18.0330   26.9090 N.ar  146  TRP146     -0.2442
    156  CE2      -26.1100   18.5350   25.7390 C.ar  146  TRP146      0.0810
    157  CE3      -28.0550   19.7740   25.0070 C.ar  146  TRP146      0.0012
    158  CZ2      -25.6040   18.4740   24.4360 C.ar  146  TRP146      0.0191
    159  CZ3      -27.5450   19.7140   23.7120 C.ar  146  TRP146      0.0001
    160  CH2      -26.3380   19.0650   23.4380 C.ar  146  TRP146      0.0015
    161  N        -38.5580   14.2210   28.0210 N.3   168  THR168     -0.1218
    162  CA       -37.5140   15.0190   27.4140 C.3   168  THR168      0.1862
    163  C        -38.0830   15.8730   26.2960 C.2   168  THR168      0.2287
    164  O        -38.9040   15.4140   25.5010 O.2   168  THR168     -0.2866
    165  CB       -36.3980   14.1200   26.8610 C.3   168  THR168      0.1770
    166  OG1      -35.8160   13.3810   27.9350 O.3   168  THR168     -0.2211
    167  CG2      -35.3140   14.9370   26.1720 C.3   168  THR168      0.0375
    168  N        -36.6570   18.2530   23.2470 N.3   170  VAL170     -0.1245
    169  CA       -35.5170   18.6900   22.4470 C.3   170  VAL170      0.1561
    170  C        -35.9280   19.8760   21.5930 C.2   170  VAL170      0.2260
    171  O        -36.7590   19.7450   20.6890 O.2   170  VAL170     -0.2867
    172  CB       -34.9810   17.5600   21.5400 C.3   170  VAL170      0.0252
    173  CG1      -33.8310   18.0690   20.6600 C.3   170  VAL170      0.0019
    174  CG2      -34.5190   16.3960   22.3750 C.3   170  VAL170      0.0019
@<TRIPOS>BOND
     1   131   130    2
     2   130   129    1
     3   116   115    2
     4   114   115    1
     5   114   113    1
     6     1     2    1
     7   112   110    1
     8   115   117   am
     9     7     6    1
    10   109   108    2
    11   113   108   am
    12   129   132    1
    13   129   128    1
    14     6     5    1
    15     6     8    1
    16   132   133    1
    17   102   103    1
    18     5     2    1
    19   108   107    1
    20     2     3    1
    21   120   119    2
    22   128   119   am
    23   119   118    1
    24     3     4    2
    25   106   107    1
    26   106   104   am
    27   117   118    1
    28   110   107    1
    29   110   111    1
    30   118   121    1
    31   103   104    1
    32   133   135   ar
    33   133   134   ar
    34   104   105    2
    35   135   137   ar
    36     9    10    1
    37   134   136   ar
    38    15    14    2
    39   121   122    1
    40    14    16   am
    41    14    13    1
    42   122   123   ar
    43   122   124   ar
    44   137   138   ar
    45   173   172    1
    46   171   170    2
    47   123   125   ar
    48   124   126   ar
    49   136   138   ar
    50    10    13    1
    51    10    11    1
    52   100    99    2
    53    29    28   ar
    54   125   127   ar
    55   126   127   ar
    56    30    28   ar
    57   138   139    1
    58    17    11   am
    59    17    18    1
    60    21    22    1
    61    21    18    1
    62   172   174    1
    63   172   169    1
    64   170   169    1
    65    28    27    1
    66    11    12    2
    67    99    98    1
    68    18    19    1
    69    23    24    1
    70    19    20    2
    71   169   168    1
    72   101    98    1
    73    98    97    1
    74    27    24    1
    75    24    25    1
    76   160   159   ar
    77   160   158   ar
    78   159   157   ar
    79    49    46    1
    80    49    50    1
    81   146   144    1
    82    52    50   ar
    83    45    46    1
    84   158   156   ar
    85    46    47    1
    86    25    31   am
    87    25    26    2
    88    50    51   ar
    89    31    32    1
    90   157   154   ar
    91   164   163    2
    92   140   141    1
    93   144   141    1
    94   144   145    1
    95   156   154   ar
    96   156   155   ar
    97    92    91    2
    98   141   142    1
    99   154   152   ar
   100   167   165    1
   101    47    48    2
   102   163   162    1
   103    32    35    1
   104    32    33    1
   105    33    34    2
   106   150   149    2
   107    91    90    1
   108   165   162    1
   109   165   166    1
   110   155   153   ar
   111   142   143    2
   112    93    90    1
   113    93    94    1
   114   149   148    1
   115   162   161    1
   116   152   153   ar
   117   152   151    1
   118    72    71    1
   119    95    94    1
   120    90    89    1
   121    36    37    1
   122    96    94    1
   123    71    70    1
   124   151   148    1
   125   148   147    1
   126    37    40    1
   127    37    38    1
   128    40    41    1
   129    70    69    1
   130    88    86    1
   131    84    83    2
   132    53    54    1
   133    38    39    2
   134    76    75    2
   135    41    42    1
   136    59    57    1
   137    42    43    1
   138    69    66    1
   139    82    83    1
   140    82    85    1
   141    82    81    1
   142    61    62    1
   143    61    55   am
   144    86    85    1
   145    86    87    1
   146    62    63    1
   147    75    81   am
   148    75    74    1
   149    54    57    1
   150    54    55    1
   151    57    58    1
   152    65    63   am
   153    65    66    1
   154    63    64    2
   155    77    74    1
   156    77    78    1
   157    55    56    2
   158    43    44    1
   159    66    67    1
   160    74    73    1
   161    78    79   ar
   162    78    80   ar
   163    58    60    1
   164    67    68    2
