@<TRIPOS>MOLECULE
tmp/5xs2A00.pdb
 146 136 0 0 0
SMALL
GASTEIGER

@<TRIPOS>ATOM
      1  N         10.6230   22.2160   -2.7560 N.3    30  VAL30      -0.1245
      2  CA         9.5160   23.1460   -2.4110 C.3    30  VAL30       0.1561
      3  C          8.1830   22.7480   -3.0390 C.2    30  VAL30       0.2260
      4  O          7.1400   23.2610   -2.6640 O.2    30  VAL30      -0.2867
      5  CB         9.8120   24.6290   -2.7570 C.3    30  VAL30       0.0252
      6  CG1       10.8890   25.2200   -1.8600 C.3    30  VAL30       0.0019
      7  CG2       10.1790   24.7880   -4.2430 C.3    30  VAL30       0.0019
      8  N          3.8890   16.0610  -12.0200 N.3    35  TYR35      -0.1241
      9  CA         5.0160   16.5540  -12.8720 C.3    35  TYR35       0.1605
     10  C          6.4240   16.1050  -12.4230 C.2    35  TYR35       0.2264
     11  O          7.3550   16.0080  -13.2480 O.2    35  TYR35      -0.2867
     12  CB         5.0080   18.0960  -12.9260 C.3    35  TYR35       0.0534
     13  CG         5.1180   18.7620  -11.5610 C.ar   35  TYR35      -0.0201
     14  CD1        6.3590   18.8990  -10.9190 C.ar   35  TYR35      -0.0009
     15  CD2        3.9790   19.2550  -10.9100 C.ar   35  TYR35      -0.0009
     16  CE1        6.4580   19.4960   -9.6690 C.ar   35  TYR35       0.0417
     17  CE2        4.0760   19.8680   -9.6650 C.ar   35  TYR35       0.0417
     18  CZ         5.3160   19.9850   -9.0530 C.ar   35  TYR35       0.1957
     19  OH         5.4020   20.5870   -7.8220 O.3    35  TYR35      -0.2866
     20  N         10.0050   20.1100   -7.5440 N.3    38  VAL38      -0.1245
     21  CA        10.6640   21.3860   -7.7320 C.3    38  VAL38       0.1561
     22  C         11.5000   21.7190   -6.5010 C.2    38  VAL38       0.2260
     23  O         11.0210   21.5800   -5.3620 O.2    38  VAL38      -0.2867
     24  CB         9.6490   22.5040   -8.0120 C.3    38  VAL38       0.0252
     25  CG1       10.3620   23.8490   -8.1310 C.3    38  VAL38       0.0019
     26  CG2        8.8720   22.1980   -9.2920 C.3    38  VAL38       0.0019
     27  N         14.9050   27.7650   -9.6580 N.3    53  ALA53      -0.1245
     28  CA        14.0770   26.5730   -9.5090 C.3    53  ALA53       0.1562
     29  C         14.6270   25.4500  -10.3740 C.2    53  ALA53       0.2260
     30  O         14.9360   25.6580  -11.5700 O.2    53  ALA53      -0.2867
     31  CB        12.6410   26.8600   -9.9250 C.3    53  ALA53       0.0290
     32  N         13.4890   21.7420  -11.7110 N.3    55  LYS55      -0.1245
     33  CA        12.3860   20.8060  -11.8340 C.3    55  LYS55       0.1561
     34  C         12.9510   19.4570  -12.2380 C.2    55  LYS55       0.2260
     35  O         13.5240   19.3130  -13.3300 O.2    55  LYS55      -0.2867
     36  CB        11.3620   21.3190  -12.8660 C.3    55  LYS55       0.0271
     37  CG        10.1290   20.4140  -13.0480 C.3    55  LYS55       0.0035
     38  CD         9.1880   20.9950  -14.1110 C.3    55  LYS55       0.0206
     39  CE         8.0620   20.0220  -14.4470 C.3    55  LYS55       0.1093
     40  NZ         6.9970   20.7130  -15.2170 N.3    55  LYS55      -0.1314
     41  N          7.2680   19.5240  -22.8380 N.3    69  GLU69      -0.1245
     42  CA         7.7510   20.6900  -22.1010 C.3    69  GLU69       0.1567
     43  C          9.0930   21.2140  -22.6440 C.2    69  GLU69       0.2260
     44  O          9.2510   22.4210  -22.8470 O.2    69  GLU69      -0.2867
     45  CB         7.8420   20.4320  -20.6040 C.3    69  GLU69       0.0388
     46  CG         8.2100   21.6720  -19.8080 C.3    69  GLU69       0.1160
     47  CD         7.7460   21.6160  -18.3590 C.2    69  GLU69       0.3649
     48  OE1        7.0280   22.5500  -17.9180 O.co2  69  GLU69      -0.2457
     49  OE2        8.0730   20.6180  -17.6750 O.co2  69  GLU69      -0.2457
     50  N          7.0110   31.0740  -18.2720 N.3    82  ILE82      -0.1245
     51  CA         8.2630   30.7280  -17.5900 C.3    82  ILE82       0.1561
     52  C          9.3570   30.4260  -18.6380 C.2    82  ILE82       0.2260
     53  O          9.0660   29.7580  -19.6440 O.2    82  ILE82      -0.2867
     54  CB         8.0120   29.5610  -16.6260 C.3    82  ILE82       0.0252
     55  CG1        9.1390   29.4620  -15.5780 C.3    82  ILE82       0.0019
     56  CG2        7.7380   28.2650  -17.4080 C.3    82  ILE82       0.0019
     57  CD1        8.9760   28.2900  -14.6190 C.3    82  ILE82       0.0001
     58  N         15.0440   27.0300  -14.1520 N.3   100  PHE100     -0.1227
     59  CA        14.2610   28.2420  -14.3070 C.3   100  PHE100      0.1736
     60  C         14.6790   29.2570  -13.2470 C.2   100  PHE100      0.2595
     61  O         15.2260   28.8800  -12.2030 O.2   100  PHE100     -0.2718
     62  CB        12.7770   27.9760  -14.0620 C.3   100  PHE100      0.0547
     63  CG        12.1840   26.8670  -14.8930 C.ar  100  PHE100     -0.0202
     64  CD1       11.8820   27.0640  -16.2400 C.ar  100  PHE100     -0.0042
     65  CD2       11.8440   25.6560  -14.2980 C.ar  100  PHE100     -0.0042
     66  CE1       11.2950   26.0480  -16.9770 C.ar  100  PHE100     -0.0003
     67  CE2       11.2610   24.6450  -15.0200 C.ar  100  PHE100     -0.0003
     68  CZ        10.9800   24.8330  -16.3660 C.ar  100  PHE100     -0.0000
     69  N         14.4020   30.5320  -13.5110 N.am  101  ASP101     -0.1960
     70  CA        14.4120   31.5550  -12.4540 C.3   101  ASP101      0.1840
     71  C         13.3690   31.2190  -11.3780 C.2   101  ASP101      0.2622
     72  O         12.2760   30.7450  -11.6670 O.2   101  ASP101     -0.2715
     73  CB        14.1310   32.9550  -13.0130 C.3   101  ASP101      0.1450
     74  CG        15.3000   33.5240  -13.8390 C.2   101  ASP101      0.3671
     75  OD1       16.4650   33.1460  -13.6370 O.co2 101  ASP101     -0.2456
     76  OD2       15.0470   34.3640  -14.7130 O.co2 101  ASP101     -0.2456
     77  N         13.7120   31.4960  -10.1280 N.am  102  TYR102     -0.1960
     78  CA        12.8650   31.1040   -9.0340 C.3   102  TYR102      0.1771
     79  C         11.6980   32.0900   -8.8390 C.2   102  TYR102      0.2619
     80  O         11.9110   33.2960   -8.7530 O.2   102  TYR102     -0.2715
     81  CB        13.6960   30.9840   -7.7510 C.3   102  TYR102      0.0574
     82  CG        12.8880   30.4870   -6.5850 C.ar  102  TYR102     -0.0198
     83  CD1       12.4360   29.1720   -6.5530 C.ar  102  TYR102     -0.0009
     84  CD2       12.5680   31.3320   -5.5120 C.ar  102  TYR102     -0.0009
     85  CE1       11.6810   28.7010   -5.4990 C.ar  102  TYR102      0.0417
     86  CE2       11.8190   30.8630   -4.4370 C.ar  102  TYR102      0.0417
     87  CZ        11.3910   29.5510   -4.4460 C.ar  102  TYR102      0.1957
     88  OH        10.6670   29.0410   -3.4070 O.3   102  TYR102     -0.2866
     89  N         10.4770   31.5690   -8.7560 N.am  103  ALA103     -0.1977
     90  CA         9.2810   32.3940   -8.5010 C.3   103  ALA103      0.1597
     91  C          8.8400   32.0980   -7.0730 C.2   103  ALA103      0.2287
     92  O          8.3800   30.9830   -6.7960 O.2   103  ALA103     -0.2864
     93  CB         8.1670   32.0310   -9.4850 C.3   103  ALA103      0.0319
     94  N          2.8760   31.9060   -6.1130 N.3   106  ASP106     -0.1239
     95  CA         1.9530   31.4270   -7.1550 C.3   106  ASP106      0.1674
     96  C          0.5280   31.6230   -6.6390 C.2   106  ASP106      0.2266
     97  O          0.3100   31.8590   -5.4370 O.2   106  ASP106     -0.2867
     98  CB         2.1970   29.9540   -7.5000 C.3   106  ASP106      0.1410
     99  CG         2.0370   29.0420   -6.2830 C.2   106  ASP106      0.3668
    100  OD1        0.9240   28.9970   -5.7160 O.co2 106  ASP106     -0.2456
    101  OD2        3.0440   28.3970   -5.8740 O.co2 106  ASP106     -0.2456
    102  N         -2.0990   26.7430   -9.2450 N.3   158  ALA158     -0.1231
    103  CA        -0.7160   26.2590   -8.9900 C.3   158  ALA158      0.1694
    104  C          0.2200   26.4630  -10.1740 C.2   158  ALA158      0.2592
    105  O          1.4240   26.5490   -9.9850 O.2   158  ALA158     -0.2718
    106  CB        -0.7000   24.7930   -8.5740 C.3   158  ALA158      0.0304
    107  N         -0.3330   26.5580  -11.3810 N.am  159  ASN159     -0.1974
    108  CA         0.4460   26.8120  -12.5880 C.3   159  ASN159      0.1688
    109  C          0.6280   28.2820  -12.9560 C.2   159  ASN159      0.2292
    110  O          1.2440   28.6020  -13.9800 O.2   159  ASN159     -0.2864
    111  CB        -0.1780   26.0430  -13.7600 C.3   159  ASN159      0.1181
    112  CG         0.1170   24.5740  -13.6660 C.2   159  ASN159      0.2629
    113  OD1        1.0200   24.1870  -12.9200 O.2   159  ASN159     -0.2716
    114  ND2       -0.6330   23.7420  -14.3920 N.am  159  ASN159     -0.0877
    115  N          2.4940   31.2840  -11.6770 N.3   161  LEU161     -0.1245
    116  CA         3.5170   31.7250  -10.7240 C.3   161  LEU161      0.1561
    117  C          3.5840   33.2430  -10.7200 C.2   161  LEU161      0.2260
    118  O          3.1850   33.8820  -11.6910 O.2   161  LEU161     -0.2867
    119  CB         4.8890   31.1600  -11.1110 C.3   161  LEU161      0.0270
    120  CG         4.9650   29.6730  -11.5230 C.3   161  LEU161      0.0019
    121  CD1        6.4130   29.2950  -11.7990 C.3   161  LEU161      0.0001
    122  CD2        4.3820   28.7640  -10.4440 C.3   161  LEU161      0.0001
    123  N          3.2980   28.4960  -16.0040 N.3   175  ALA175     -0.1231
    124  CA         4.2060   27.3710  -15.9200 C.3   175  ALA175      0.1694
    125  C          3.5150   26.0400  -16.2560 C.2   175  ALA175      0.2592
    126  O          2.2810   25.9500  -16.3500 O.2   175  ALA175     -0.2718
    127  CB         4.8380   27.2970  -14.5280 C.3   175  ALA175      0.0304
    128  N          4.3640   25.0230  -16.4170 N.am  176  ASP176     -0.1974
    129  CA         4.0000   23.6250  -16.6480 C.3   176  ASP176      0.1709
    130  C          3.3600   23.3580  -17.9980 C.2   176  ASP176      0.2293
    131  O          2.1340   23.3800  -18.1320 O.2   176  ASP176     -0.2864
    132  CB         3.1760   23.0050  -15.5120 C.3   176  ASP176      0.1436
    133  CG         3.3770   21.4990  -15.4430 C.2   176  ASP176      0.3671
    134  OD1        3.7170   20.8890  -16.4920 O.co2 176  ASP176     -0.2456
    135  OD2        3.2580   20.9220  -14.3490 O.co2 176  ASP176     -0.2456
    136  N          7.7970   30.1390    0.2000 N.3   359  ARG359     -0.1245
    137  CA         7.5440   28.6810    0.1850 C.3   359  ARG359      0.1563
    138  C          8.3450   27.9970    1.2670 C.2   359  ARG359      0.2260
    139  O          9.4790   28.3790    1.5260 O.2   359  ARG359     -0.2867
    140  CB         7.9700   28.0740   -1.1400 C.3   359  ARG359      0.0307
    141  CG         7.4170   28.7830   -2.3380 C.3   359  ARG359      0.0489
    142  CD         8.1460   28.3050   -3.5940 C.3   359  ARG359      0.2205
    143  NE         7.5950   28.9580   -4.7830 N.pl3 359  ARG359     -0.0865
    144  CZ         6.3840   28.6860   -5.2580 C.cat 359  ARG359      0.5346
    145  NH1        5.6230   27.7730   -4.6570 N.pl3 359  ARG359      0.1354
    146  NH2        5.9340   29.3200   -6.3240 N.pl3 359  ARG359      0.1354
@<TRIPOS>BOND
     1    44    43    2
     2    41    42    1
     3    43    42    1
     4    42    45    1
     5    45    46    1
     6    46    47    1
     7    53    52    2
     8    52    51    1
     9    47    48   ar
    10    47    49   ar
    11    50    51    1
    12   131   130    2
    13   130   129    1
    14    51    54    1
    15    56    54    1
    16    66    68   ar
    17    66    64   ar
    18   129   128    1
    19   129   132    1
    20    54    55    1
    21   134   133   ar
    22   128   125   am
    23    68    67   ar
    24   126   125    2
    25   125   124    1
    26    64    63   ar
    27   123   124    1
    28   124   127    1
    29    55    57    1
    30   132   133    1
    31   133   135   ar
    32    40    39    1
    33    67    65   ar
    34    63    65   ar
    35    63    62    1
    36    76    74   ar
    37    39    38    1
    38   114   112   am
    39    59    58    1
    40    59    62    1
    41    59    60    1
    42    38    37    1
    43   110   109    2
    44    74    75   ar
    45    74    73    1
    46   111   112    1
    47   111   108    1
    48   112   113    2
    49    69    60   am
    50    69    70    1
    51    35    34    2
    52    11    10    2
    53    60    61    2
    54    37    36    1
    55    73    70    1
    56   109   108    1
    57    12     9    1
    58    12    13    1
    59     9    10    1
    60     9     8    1
    61    36    33    1
    62   108   107    1
    63    70    71    1
    64    34    33    1
    65    33    32    1
    66   121   120    1
    67   118   117    2
    68   115   116    1
    69    72    71    2
    70    30    29    2
    71    13    14   ar
    72    13    15   ar
    73   120   119    1
    74   120   122    1
    75   107   104   am
    76    71    77   am
    77   119   116    1
    78    14    16   ar
    79    15    17   ar
    80   116   117    1
    81    29    28    1
    82   104   105    2
    83   104   103    1
    84    77    78    1
    85    31    28    1
    86    16    18   ar
    87    17    18   ar
    88    27    28    1
    89    93    90    1
    90    26    24    1
    91   102   103    1
    92    18    19    1
    93    78    79    1
    94    78    81    1
    95   103   106    1
    96    79    89   am
    97    79    80    2
    98    89    90    1
    99    90    91    1
   100    25    24    1
   101    24    21    1
   102    81    82    1
   103    21    20    1
   104    21    22    1
   105    98    95    1
   106    98    99    1
   107    95    96    1
   108    95    94    1
   109    91    92    2
   110    96    97    2
   111    82    83   ar
   112    82    84   ar
   113    83    85   ar
   114    22    23    2
   115   146   144    1
   116    99   101   ar
   117    99   100   ar
   118    84    86   ar
   119    85    87   ar
   120   144   143    2
   121   144   145    1
   122   143   142    1
   123    87    86   ar
   124    87    88    1
   125     7     5    1
   126   142   141    1
   127     3     4    2
   128     3     2    1
   129     5     2    1
   130     5     6    1
   131     1     2    1
   132   141   140    1
   133   140   137    1
   134   137   136    1
   135   137   138    1
   136   138   139    2
