@<TRIPOS>MOLECULE
tmp/5xs8C01.pdb
 209 198 0 0 0
SMALL
GASTEIGER

@<TRIPOS>ATOM
      1  N         19.4500    5.6310  -34.5030 N.3    10  HIS10      -0.1226
      2  CA        18.6210    4.8840  -35.4230 C.3    10  HIS10       0.1752
      3  C         18.8760    3.4010  -35.2370 C.2    10  HIS10       0.2595
      4  O         20.0390    2.9880  -35.1720 O.2    10  HIS10      -0.2718
      5  CB        18.9650    5.2910  -36.8820 C.3    10  HIS10       0.0759
      6  CG        18.0830    4.6420  -37.9000 C.ar   10  HIS10       0.0818
      7  ND1       16.7070    4.6200  -37.7680 N.ar   10  HIS10      -0.2268
      8  CD2       18.3610    4.0190  -39.0760 C.ar   10  HIS10       0.1154
      9  CE1       16.1750    3.9600  -38.7900 C.ar   10  HIS10       0.1986
     10  NE2       17.1520    3.6100  -39.6160 N.ar   10  HIS10      -0.2212
     11  N         17.8020    2.5990  -35.2920 N.am   11  LEU11      -0.1980
     12  CA        17.9140    1.1210  -35.1350 C.3    11  LEU11       0.1596
     13  C         18.7670    0.8180  -33.9070 C.2    11  LEU11       0.2287
     14  O         19.7040    0.0060  -33.9630 O.2    11  LEU11      -0.2864
     15  CB        18.5150    0.4330  -36.4180 C.3    11  LEU11       0.0297
     16  CG        17.6130    0.5400  -37.6630 C.3    11  LEU11       0.0022
     17  CD1       18.3570    0.0770  -39.0210 C.3    11  LEU11       0.0001
     18  CD2       16.3070   -0.2540  -37.4690 C.3    11  LEU11       0.0001
     19  N         12.7840    9.5070  -34.3330 N.3    64  GLU64      -0.1245
     20  CA        11.9510    8.6330  -35.1580 C.3    64  GLU64       0.1567
     21  C         10.4690    8.9940  -35.0460 C.2    64  GLU64       0.2260
     22  O          9.6930    8.6350  -35.9430 O.2    64  GLU64      -0.2867
     23  CB        12.1430    7.1740  -34.7210 C.3    64  GLU64       0.0388
     24  CG        11.3490    6.2000  -35.5960 C.3    64  GLU64       0.1160
     25  CD        11.8530    4.7810  -35.4350 C.2    64  GLU64       0.3649
     26  OE1       13.0900    4.5200  -35.4720 O.co2  64  GLU64      -0.2457
     27  OE2       11.0010    3.9190  -35.3220 O.co2  64  GLU64      -0.2457
     28  N         12.4710   12.0950  -42.8490 N.3   118  ASN118     -0.1240
     29  CA        13.2790   11.1440  -43.6040 C.3   118  ASN118      0.1653
     30  C         12.3230   10.3890  -44.5190 C.2   118  ASN118      0.2266
     31  O         11.6490    9.4640  -44.0860 O.2   118  ASN118     -0.2867
     32  CB        14.0490   10.2260  -42.6430 C.3   118  ASN118      0.1155
     33  CG        15.2690    9.6070  -43.3200 C.2   118  ASN118      0.2627
     34  OD1       16.3620   10.1920  -43.2530 O.2   118  ASN118     -0.2716
     35  ND2       15.0800    8.4420  -43.9950 N.am  118  ASN118     -0.0877
     36  N         10.9390    7.9370  -47.4400 N.3   120  TYR120     -0.1241
     37  CA        11.1460    6.8190  -48.3450 C.3   120  TYR120      0.1605
     38  C         10.9630    7.3230  -49.7860 C.2   120  TYR120      0.2264
     39  O         10.4850    8.4350  -50.0060 O.2   120  TYR120     -0.2867
     40  CB        10.1500    5.7160  -48.0690 C.3   120  TYR120      0.0534
     41  CG        10.4320    4.9110  -46.8130 C.ar  120  TYR120     -0.0201
     42  CD1       11.5180    4.0200  -46.7590 C.ar  120  TYR120     -0.0009
     43  CD2        9.5940    5.0000  -45.7200 C.ar  120  TYR120     -0.0009
     44  CE1       11.7670    3.2490  -45.6490 C.ar  120  TYR120      0.0417
     45  CE2        9.8090    4.1830  -44.5290 C.ar  120  TYR120      0.0417
     46  CZ        10.9280    3.3270  -44.5300 C.ar  120  TYR120      0.1957
     47  OH        11.1630    2.5320  -43.4540 O.3   120  TYR120     -0.2866
     48  N         11.2950  -10.9970  -37.6280 N.3   178  ARG178     -0.1231
     49  CA        12.4560  -10.2000  -37.2640 C.3   178  ARG178      0.1694
     50  C         11.9920   -8.8750  -36.6570 C.2   178  ARG178      0.2592
     51  O         11.3250   -8.0810  -37.3290 O.2   178  ARG178     -0.2718
     52  CB        13.3240   -9.9330  -38.5000 C.3   178  ARG178      0.0321
     53  CG        14.6730   -9.2480  -38.2300 C.3   178  ARG178      0.0489
     54  CD        15.5420   -9.1670  -39.4740 C.3   178  ARG178      0.2205
     55  NE        14.8610   -8.4400  -40.5600 N.pl3 178  ARG178     -0.0865
     56  CZ        15.1330   -7.1750  -40.8790 C.cat 178  ARG178      0.5346
     57  NH1       16.0830   -6.5200  -40.2180 N.pl3 178  ARG178      0.1354
     58  NH2       14.4360   -6.5590  -41.8180 N.pl3 178  ARG178      0.1354
     59  N         12.3810   -8.6210  -35.4180 N.am  179  ALA179     -0.1966
     60  CA        11.7840   -7.5150  -34.6950 C.3   179  ALA179      0.1728
     61  C         12.6400   -7.1820  -33.4770 C.2   179  ALA179      0.2616
     62  O         13.2210   -8.0910  -32.8650 O.2   179  ALA179     -0.2715
     63  CB        10.3680   -7.9010  -34.2160 C.3   179  ALA179      0.0334
     64  N         12.6330   -5.8980  -33.0770 N.am  180  ASN180     -0.1972
     65  CA        13.2720   -5.5130  -31.8060 C.3   180  ASN180      0.1688
     66  C         12.2890   -4.9580  -30.7750 C.2   180  ASN180      0.2292
     67  O         12.7110   -4.2750  -29.8530 O.2   180  ASN180     -0.2864
     68  CB        14.4180   -4.5120  -32.0080 C.3   180  ASN180      0.1181
     69  CG        13.9770   -3.2150  -32.7290 C.2   180  ASN180      0.2629
     70  OD1       12.7870   -2.8730  -32.7970 O.2   180  ASN180     -0.2716
     71  ND2       14.9540   -2.4990  -33.2970 N.am  180  ASN180     -0.0877
     72  N          6.4650   -4.8470  -33.1450 N.3   184  LYS184     -0.1245
     73  CA         6.9080   -5.3050  -34.4680 C.3   184  LYS184      0.1561
     74  C          6.8400   -6.8490  -34.5610 C.2   184  LYS184      0.2260
     75  O          6.6170   -7.3760  -35.6600 O.2   184  LYS184     -0.2867
     76  CB         8.3390   -4.7490  -34.7880 C.3   184  LYS184      0.0271
     77  CG         8.8430   -4.9800  -36.2700 C.3   184  LYS184      0.0035
     78  CD         7.7640   -4.5880  -37.3390 C.3   184  LYS184      0.0206
     79  CE         8.2880   -4.3920  -38.7730 C.3   184  LYS184      0.1093
     80  NZ         8.8810   -5.5860  -39.5320 N.3   184  LYS184     -0.1314
     81  N         16.9100   -8.4580  -33.6630 N.3   240  LEU240     -0.1245
     82  CA        16.9800   -8.3530  -35.1400 C.3   240  LEU240      0.1561
     83  C         17.8530   -9.4340  -35.7940 C.2   240  LEU240      0.2260
     84  O         17.8790   -9.5260  -37.0300 O.2   240  LEU240     -0.2867
     85  CB        17.5070   -6.9850  -35.6180 C.3   240  LEU240      0.0270
     86  CG        16.7530   -5.6810  -35.3830 C.3   240  LEU240      0.0019
     87  CD1       17.3830   -4.5020  -36.1220 C.3   240  LEU240      0.0001
     88  CD2       15.2350   -5.8420  -35.7650 C.3   240  LEU240      0.0001
     89  N         16.5640  -13.4660  -38.1500 N.3   243  ARG243     -0.1245
     90  CA        16.5010  -13.9100  -39.5370 C.3   243  ARG243      0.1563
     91  C         17.8340  -14.5070  -39.9740 C.2   243  ARG243      0.2260
     92  O         17.8680  -15.5900  -40.5740 O.2   243  ARG243     -0.2867
     93  CB        16.1180  -12.7390  -40.4260 C.3   243  ARG243      0.0307
     94  CG        16.1190  -13.0540  -41.9290 C.3   243  ARG243      0.0489
     95  CD        15.6880  -11.8420  -42.7830 C.3   243  ARG243      0.2205
     96  NE        16.6010  -10.7230  -42.6420 N.pl3 243  ARG243     -0.0865
     97  CZ        16.4010   -9.5590  -43.2900 C.cat 243  ARG243      0.5346
     98  NH1       15.3150   -9.4270  -44.0440 N.pl3 243  ARG243      0.1354
     99  NH2       17.2790   -8.5560  -43.1500 N.pl3 243  ARG243      0.1354
    100  N          8.6700  -10.2900  -44.0910 N.3   257  ASP257     -0.1225
    101  CA         9.7970   -9.3740  -43.8450 C.3   257  ASP257      0.1805
    102  C         10.1090   -8.5910  -45.1260 C.2   257  ASP257      0.2597
    103  O          9.5940   -8.8870  -46.2130 O.2   257  ASP257     -0.2718
    104  CB        11.0270  -10.1480  -43.3350 C.3   257  ASP257      0.1424
    105  CG        12.0040   -9.2880  -42.5230 C.2   257  ASP257      0.3668
    106  OD1       11.9250   -8.0230  -42.5010 O.co2 257  ASP257     -0.2456
    107  OD2       12.9080   -9.9140  -41.9070 O.co2 257  ASP257     -0.2456
    108  N         10.9480   -7.5600  -44.9720 N.am  258  TRP258     -0.1976
    109  CA        11.1930   -6.6360  -46.0740 C.3   258  TRP258      0.1640
    110  C         11.7050   -7.3770  -47.3250 C.2   258  TRP258      0.2290
    111  O         12.5880   -8.2450  -47.2220 O.2   258  TRP258     -0.2864
    112  CB        12.2110   -5.5940  -45.6110 C.3   258  TRP258      0.0576
    113  CG        11.6800   -4.6140  -44.6710 C.ar  258  TRP258      0.0006
    114  CD1       11.4330   -4.7710  -43.2880 C.ar  258  TRP258      0.0946
    115  CD2       11.3480   -3.2670  -44.9950 C.ar  258  TRP258      0.0152
    116  NE1       10.9810   -3.5580  -42.7750 N.ar  258  TRP258     -0.2442
    117  CE2       10.9130   -2.6380  -43.8040 C.ar  258  TRP258      0.0810
    118  CE3       11.3400   -2.5280  -46.2050 C.ar  258  TRP258      0.0012
    119  CZ2       10.4920   -1.2920  -43.7850 C.ar  258  TRP258      0.0191
    120  CZ3       10.9350   -1.1910  -46.1790 C.ar  258  TRP258      0.0001
    121  CH2       10.5330   -0.5920  -44.9910 C.ar  258  TRP258      0.0015
    122  N         15.9220   -7.1310  -48.5930 N.3   261  SER261     -0.1217
    123  CA        16.8620   -7.8100  -47.6770 C.3   261  SER261      0.1889
    124  C         16.5230   -9.2970  -47.5220 C.2   261  SER261      0.2288
    125  O         17.4320  -10.1390  -47.4690 O.2   261  SER261     -0.2866
    126  CB        16.9120   -7.1370  -46.2990 C.3   261  SER261      0.2089
    127  OG        15.5970   -7.0530  -45.7340 O.3   261  SER261     -0.2183
    128  N          9.6620    8.3280  -42.2330 N.3   300  LEU300     -0.1245
    129  CA         9.8630    7.7440  -40.8980 C.3   300  LEU300      0.1561
    130  C         10.6720    8.7510  -40.1110 C.2   300  LEU300      0.2260
    131  O         11.8670    8.9310  -40.4000 O.2   300  LEU300     -0.2867
    132  CB        10.6010    6.3920  -40.9940 C.3   300  LEU300      0.0270
    133  CG        11.0650    5.7720  -39.6810 C.3   300  LEU300      0.0019
    134  CD1        9.8390    5.4670  -38.8350 C.3   300  LEU300      0.0001
    135  CD2       11.9450    4.5120  -40.0060 C.3   300  LEU300      0.0001
    136  N         24.2330    9.7820  -49.0390 N.3   331  TRP331     -0.1241
    137  CA        23.3980    9.2320  -47.9710 C.3   331  TRP331      0.1605
    138  C         22.8670    7.8650  -48.3820 C.2   331  TRP331      0.2264
    139  O         22.7670    6.9690  -47.5760 O.2   331  TRP331     -0.2867
    140  CB        22.2270   10.2020  -47.6970 C.3   331  TRP331      0.0550
    141  CG        21.3740    9.7620  -46.5110 C.ar  331  TRP331      0.0003
    142  CD1       21.5940   10.1160  -45.2060 C.ar  331  TRP331      0.0946
    143  CD2       20.2590    8.8250  -46.5110 C.ar  331  TRP331      0.0152
    144  NE1       20.6330    9.4990  -44.3710 N.ar  331  TRP331     -0.2442
    145  CE2       19.7940    8.7270  -45.1480 C.ar  331  TRP331      0.0810
    146  CE3       19.5730    8.0940  -47.5280 C.ar  331  TRP331      0.0012
    147  CZ2       18.7240    7.8940  -44.7670 C.ar  331  TRP331      0.0191
    148  CZ3       18.4350    7.2950  -47.1550 C.ar  331  TRP331      0.0001
    149  CH2       18.0680    7.1530  -45.7390 C.ar  331  TRP331      0.0015
    150  N         22.4060   -4.3770  -47.4780 N.3   363  LEU363     -0.1245
    151  CA        21.9670   -3.2590  -46.6470 C.3   363  LEU363      0.1561
    152  C         22.8140   -3.1890  -45.4010 C.2   363  LEU363      0.2260
    153  O         23.1560   -2.0980  -44.9440 O.2   363  LEU363     -0.2867
    154  CB        20.4850   -3.4280  -46.2680 C.3   363  LEU363      0.0270
    155  CG        19.7420   -2.3710  -45.3940 C.3   363  LEU363      0.0019
    156  CD1       20.1380   -0.9600  -45.8250 C.3   363  LEU363      0.0001
    157  CD2       18.1980   -2.5570  -45.5410 C.3   363  LEU363      0.0001
    158  N         24.6720   -0.0150  -44.1120 N.3   367  ARG367     -0.1245
    159  CA        24.4880    0.6460  -42.8020 C.3   367  ARG367      0.1563
    160  C         25.7910    0.7310  -42.0290 C.2   367  ARG367      0.2260
    161  O         26.0260    1.7460  -41.3590 O.2   367  ARG367     -0.2867
    162  CB        23.4160   -0.0610  -41.9490 C.3   367  ARG367      0.0307
    163  CG        21.9720    0.0520  -42.5770 C.3   367  ARG367      0.0489
    164  CD        20.9020   -0.2980  -41.4330 C.3   367  ARG367      0.2205
    165  NE        19.5950   -0.3250  -42.0530 N.pl3 367  ARG367     -0.0865
    166  CZ        18.9160    0.7920  -42.3560 C.cat 367  ARG367      0.5346
    167  NH1       19.4280    2.0060  -42.0450 N.pl3 367  ARG367      0.1354
    168  NH2       17.7580    0.6640  -42.9910 N.pl3 367  ARG367      0.1354
    169  N         22.0590    5.0860  -45.4350 N.3   372  GLN372     -0.1245
    170  CA        20.6680    4.8090  -45.0320 C.3   372  GLN372      0.1566
    171  C         20.4160    5.1530  -43.5430 C.2   372  GLN372      0.2260
    172  O         19.4640    4.6170  -42.9140 O.2   372  GLN372     -0.2867
    173  CB        20.3190    3.3340  -45.2790 C.3   372  GLN372      0.0367
    174  CG        20.3830    2.9370  -46.8150 C.3   372  GLN372      0.0905
    175  CD        19.3670    3.7500  -47.6140 C.2   372  GLN372      0.2608
    176  OE1       18.1920    3.8990  -47.1960 O.2   372  GLN372     -0.2717
    177  NE2       19.8030    4.2350  -48.8050 N.am  372  GLN372     -0.0878
    178  N         18.8890    6.9940  -40.7660 N.3   374  ARG374     -0.1245
    179  CA        17.6820    7.8490  -40.7300 C.3   374  ARG374      0.1563
    180  C         17.9480    9.1980  -40.0360 C.2   374  ARG374      0.2260
    181  O         18.2510    9.2330  -38.8260 O.2   374  ARG374     -0.2867
    182  CB        16.5560    7.0930  -39.9520 C.3   374  ARG374      0.0307
    183  CG        15.1270    7.5190  -40.2860 C.3   374  ARG374      0.0489
    184  CD        14.6740    8.7170  -39.4500 C.3   374  ARG374      0.2205
    185  NE        14.9120    8.5380  -37.9730 N.pl3 374  ARG374     -0.0865
    186  CZ        15.2470    9.5820  -37.2260 C.cat 374  ARG374      0.5346
    187  NH1       15.3020   10.8210  -37.7910 N.pl3 374  ARG374      0.1354
    188  NH2       15.5210    9.3990  -35.9260 N.pl3 374  ARG374      0.1354
    189  N         15.3380    9.0290  -49.4060 N.3   379  GLN379     -0.1245
    190  CA        15.8090    7.7600  -49.9170 C.3   379  GLN379      0.1566
    191  C         15.5960    7.7320  -51.4430 C.2   379  GLN379      0.2260
    192  O         14.6960    8.3830  -51.9880 O.2   379  GLN379     -0.2867
    193  CB        15.0550    6.6430  -49.2250 C.3   379  GLN379      0.0367
    194  CG        15.5130    5.2050  -49.6330 C.3   379  GLN379      0.0905
    195  CD        14.7700    4.1790  -48.9260 C.2   379  GLN379      0.2608
    196  OE1       13.7280    3.7910  -49.3600 O.2   379  GLN379     -0.2717
    197  NE2       15.2970    3.7100  -47.7490 N.am  379  GLN379     -0.0878
    198  N         18.9750    3.2320  -55.2300 N.3   383  TYR383     -0.1241
    199  CA        19.8530    2.5780  -54.2860 C.3   383  TYR383      0.1605
    200  C         19.3440    1.1370  -54.0360 C.2   383  TYR383      0.2264
    201  O         20.0800    0.2280  -54.0000 O.2   383  TYR383     -0.2867
    202  CB        19.9970    3.4180  -52.9730 C.3   383  TYR383      0.0534
    203  CG        19.5120    2.7390  -51.7170 C.ar  383  TYR383     -0.0201
    204  CD1       18.2090    2.8340  -51.2960 C.ar  383  TYR383     -0.0009
    205  CD2       20.3340    1.8830  -51.0350 C.ar  383  TYR383     -0.0009
    206  CE1       17.7610    2.1330  -50.1900 C.ar  383  TYR383      0.0417
    207  CE2       19.8960    1.1860  -49.9510 C.ar  383  TYR383      0.0417
    208  CZ        18.6140    1.3060  -49.5340 C.ar  383  TYR383      0.1957
    209  OH        18.1990    0.6050  -48.4710 O.3   383  TYR383     -0.2866
@<TRIPOS>BOND
     1   198   199    1
     2   199   200    1
     3   199   202    1
     4   200   201    2
     5   202   203    1
     6   192   191    2
     7   203   204   ar
     8   203   205   ar
     9   191   190    1
    10   204   206   ar
    11   205   207   ar
    12   206   208   ar
    13    39    38    2
    14   207   208   ar
    15   190   189    1
    16   190   193    1
    17    38    37    1
    18   194   193    1
    19   194   195    1
    20   208   209    1
    21   196   195    2
    22   136   137    1
    23   195   197   am
    24   177   175   am
    25   122   123    1
    26   138   137    1
    27   138   139    2
    28    37    40    1
    29    37    36    1
    30    40    41    1
    31   137   140    1
    32   140   141    1
    33   123   124    1
    34   123   126    1
    35   175   176    2
    36   175   174    1
    37   146   148   ar
    38   146   143   ar
    39   124   125    2
    40   150   151    1
    41   110   111    2
    42   110   109    1
    43   148   149   ar
    44   174   173    1
    45    41    42   ar
    46    41    43   ar
    47    42    44   ar
    48   151   154    1
    49   151   152    1
    50   143   141   ar
    51   143   145   ar
    52   141   142   ar
    53   126   127    1
    54   154   155    1
    55   103   102    2
    56   118   120   ar
    57   118   115   ar
    58   120   121   ar
    59   109   112    1
    60   109   108    1
    61   156   155    1
    62   149   147   ar
    63    43    45   ar
    64    44    46   ar
    65   112   113    1
    66   157   155    1
    67   169   170    1
    68   152   153    2
    69   173   170    1
    70   142   144   ar
    71   145   147   ar
    72   145   144   ar
    73   102   108   am
    74   102   101    1
    75   170   171    1
    76   115   113   ar
    77   115   117   ar
    78   121   119   ar
    79   113   114   ar
    80    46    45   ar
    81    46    47    1
    82    30    31    2
    83    30    29    1
    84   158   159    1
    85   100   101    1
    86    98    97    1
    87    35    33   am
    88   101   104    1
    89   117   119   ar
    90   117   116   ar
    91    29    28    1
    92    29    32    1
    93   171   172    2
    94   104   105    1
    95    33    34    2
    96    33    32    1
    97    97    99    1
    98    97    96    2
    99   114   116   ar
   100   168   166    1
   101   159   160    1
   102   159   162    1
   103    95    96    1
   104    95    94    1
   105   163   162    1
   106   163   164    1
   107   105   106   ar
   108   105   107   ar
   109   166   165    2
   110   166   167    1
   111   128   129    1
   112   165   164    1
   113   160   161    2
   114    94    93    1
   115    58    56    1
   116   132   129    1
   117   132   133    1
   118   129   130    1
   119    56    55    2
   120    56    57    1
   121   178   179    1
   122   179   180    1
   123   179   182    1
   124    92    91    2
   125    55    54    1
   126    93    90    1
   127   131   130    2
   128   183   182    1
   129   183   184    1
   130   180   181    2
   131   135   133    1
   132    91    90    1
   133   133   134    1
   134    10     8   ar
   135    10     9   ar
   136    90    89    1
   137    80    79    1
   138    54    53    1
   139   184   185    1
   140     8     6   ar
   141    17    16    1
   142     9     7   ar
   143    79    78    1
   144    52    53    1
   145    52    49    1
   146   185   186    2
   147     6     7   ar
   148     6     5    1
   149   187   186    1
   150    16    18    1
   151    16    15    1
   152    48    49    1
   153    78    77    1
   154    51    50    2
   155    49    50    1
   156   186   188    1
   157    84    83    2
   158     5     2    1
   159    50    59   am
   160    15    12    1
   161    77    76    1
   162    87    86    1
   163    22    21    2
   164    83    82    1
   165    88    86    1
   166    75    74    2
   167    85    86    1
   168    85    82    1
   169    24    25    1
   170    24    23    1
   171    26    25   ar
   172    25    27   ar
   173     2     3    1
   174     2     1    1
   175    59    60    1
   176    11     3   am
   177    11    12    1
   178     3     4    2
   179    20    21    1
   180    20    23    1
   181    20    19    1
   182    82    81    1
   183    12    13    1
   184    76    73    1
   185    60    63    1
   186    60    61    1
   187    74    73    1
   188    73    72    1
   189    14    13    2
   190    61    64   am
   191    61    62    2
   192    71    69   am
   193    64    65    1
   194    70    69    2
   195    69    68    1
   196    68    65    1
   197    65    66    1
   198    66    67    2
