@<TRIPOS>MOLECULE
tmp/5xsbA00.pdb
 143 135 0 0 0
SMALL
GASTEIGER

@<TRIPOS>ATOM
      1  N         24.9160  -34.3100  -24.0450 N.3    25  HIS25      -0.1241
      2  CA        25.4160  -35.6200  -24.4490 C.3    25  HIS25       0.1621
      3  C         24.6280  -36.7080  -23.7520 C.2    25  HIS25       0.2264
      4  O         24.8610  -36.9880  -22.5670 O.2    25  HIS25      -0.2867
      5  CB        26.8920  -35.7340  -24.0880 C.3    25  HIS25       0.0745
      6  CG        27.7450  -34.7090  -24.7330 C.ar   25  HIS25       0.0817
      7  ND1       27.8320  -33.4060  -24.2850 N.ar   25  HIS25      -0.2268
      8  CD2       28.5800  -34.8280  -25.7830 C.ar   25  HIS25       0.1154
      9  CE1       28.6780  -32.7570  -25.0700 C.ar   25  HIS25       0.1986
     10  NE2       29.1410  -33.5960  -25.9860 N.ar   25  HIS25      -0.2212
     11  N         26.6230  -41.5270  -23.6350 N.3    28  ALA28      -0.1245
     12  CA        27.3980  -42.1810  -22.5860 C.3    28  ALA28       0.1562
     13  C         26.6100  -42.2660  -21.2800 C.2    28  ALA28       0.2260
     14  O         26.6820  -43.2970  -20.6060 O.2    28  ALA28      -0.2867
     15  CB        28.7790  -41.5450  -22.4310 C.3    28  ALA28       0.0290
     16  N         35.3910  -38.9200  -18.7850 N.3    62  ASN62      -0.1240
     17  CA        34.6110  -38.6000  -19.9750 C.3    62  ASN62       0.1653
     18  C         33.5620  -37.5560  -19.5820 C.2    62  ASN62       0.2266
     19  O         32.3740  -37.8390  -19.4360 O.2    62  ASN62      -0.2867
     20  CB        34.0320  -39.8650  -20.6030 C.3    62  ASN62       0.1155
     21  CG        33.3320  -40.8150  -19.6560 C.2    62  ASN62       0.2627
     22  OD1       33.4900  -40.7750  -18.4280 O.2    62  ASN62      -0.2716
     23  ND2       32.5460  -41.7140  -20.2440 N.am   62  ASN62      -0.0877
     24  N         32.0220  -35.0440  -20.7570 N.3    64  HIS64      -0.1241
     25  CA        30.8190  -34.7490  -21.5340 C.3    64  HIS64       0.1621
     26  C         29.6230  -35.5340  -21.0420 C.2    64  HIS64       0.2264
     27  O         28.4840  -35.0980  -21.2690 O.2    64  HIS64      -0.2867
     28  CB        31.0610  -35.0200  -23.0220 C.3    64  HIS64       0.0745
     29  CG        31.4530  -36.4130  -23.3420 C.ar   64  HIS64       0.0817
     30  ND1       32.7500  -36.8730  -23.2410 N.ar   64  HIS64      -0.2268
     31  CD2       30.6840  -37.4540  -23.7560 C.ar   64  HIS64       0.1154
     32  CE1       32.7550  -38.1370  -23.6470 C.ar   64  HIS64       0.1986
     33  NE2       31.5250  -38.5140  -23.9610 N.ar   64  HIS64      -0.2212
     34  N         30.1830  -29.2170  -18.6510 N.3    98  HIS98      -0.1241
     35  CA        31.2100  -30.1580  -18.2020 C.3    98  HIS98       0.1621
     36  C         31.4200  -29.9100  -16.7110 C.2    98  HIS98       0.2264
     37  O         31.2170  -28.7880  -16.2420 O.2    98  HIS98      -0.2867
     38  CB        32.5100  -30.0060  -19.0180 C.3    98  HIS98       0.0745
     39  CG        32.3200  -30.4050  -20.4570 C.ar   98  HIS98       0.0817
     40  ND1       31.8500  -29.5460  -21.4290 N.ar   98  HIS98      -0.2268
     41  CD2       32.4350  -31.6150  -21.0630 C.ar   98  HIS98       0.1154
     42  CE1       31.7140  -30.2280  -22.5620 C.ar   98  HIS98       0.1986
     43  NE2       32.0580  -31.4870  -22.3770 N.ar   98  HIS98      -0.2212
     44  N         36.2130  -32.7020  -18.9790 N.3   112  GLY112     -0.1210
     45  CA        35.7400  -32.1600  -20.2470 C.3   112  GLY112      0.1940
     46  C         36.8350  -32.2200  -21.3050 C.2   112  GLY112      0.2454
     47  O         36.6210  -32.6850  -22.4130 O.2   112  GLY112     -0.2732
     48  N         38.0310  -31.7460  -20.9760 N.am  113  PRO113     -0.2717
     49  CA        39.2040  -31.9960  -21.8310 C.3   113  PRO113      0.1535
     50  C         39.6180  -33.4480  -21.6260 C.2   113  PRO113      0.2598
     51  O         39.9500  -33.8750  -20.5120 O.2   113  PRO113     -0.2715
     52  CB        40.2280  -30.9820  -21.3160 C.3   113  PRO113      0.0310
     53  CG        39.3980  -29.9180  -20.6120 C.3   113  PRO113      0.0237
     54  CD        38.3320  -30.7320  -19.9550 C.3   113  PRO113      0.0939
     55  N         39.5420  -34.2330  -22.6910 N.am  114  LEU114     -0.1978
     56  CA        39.6750  -35.6700  -22.5780 C.3   114  LEU114      0.1596
     57  C         41.0630  -36.0570  -22.0960 C.2   114  LEU114      0.2287
     58  O         42.0680  -35.4050  -22.3840 O.2   114  LEU114     -0.2864
     59  CB        39.3420  -36.3360  -23.9200 C.3   114  LEU114      0.0297
     60  CG        37.8700  -36.2180  -24.3110 C.3   114  LEU114      0.0022
     61  CD1       37.7100  -36.3890  -25.8150 C.3   114  LEU114      0.0001
     62  CD2       37.0360  -37.2400  -23.5870 C.3   114  LEU114      0.0001
     63  N         36.3310  -43.0390  -21.3350 N.3   152  GLY152     -0.1210
     64  CA        35.8960  -43.5510  -22.6190 C.3   152  GLY152      0.1956
     65  C         37.0510  -43.7060  -23.5950 C.2   152  GLY152      0.2612
     66  O         38.2340  -43.5610  -23.2850 O.2   152  GLY152     -0.2717
     67  N         36.6480  -44.0240  -24.8410 N.am  153  ASP153     -0.1959
     68  CA        37.6240  -44.2160  -25.9000 C.3   153  ASP153      0.1840
     69  C         38.4810  -42.9750  -26.1270 C.2   153  ASP153      0.2622
     70  O         39.6710  -43.0790  -26.4230 O.2   153  ASP153     -0.2715
     71  CB        36.9140  -44.6000  -27.2030 C.3   153  ASP153      0.1450
     72  CG        36.0580  -45.8360  -27.0680 C.2   153  ASP153      0.3671
     73  OD1       36.5950  -46.8720  -26.5890 O.co2 153  ASP153     -0.2456
     74  OD2       34.8640  -45.7700  -27.4290 O.co2 153  ASP153     -0.2456
     75  N         37.8590  -41.7980  -26.0370 N.am  154  GLY154     -0.1954
     76  CA        38.6220  -40.5770  -26.2610 C.3   154  GLY154      0.1869
     77  C         39.7400  -40.3800  -25.2520 C.2   154  GLY154      0.2309
     78  O         40.8660  -40.0100  -25.5940 O.2   154  GLY154     -0.2863
     79  N         44.0200  -40.1990  -25.9520 N.3   158  GLU158     -0.1245
     80  CA        44.8560  -39.0690  -25.5830 C.3   158  GLU158      0.1567
     81  C         46.1380  -39.5450  -24.9200 C.2   158  GLU158      0.2260
     82  O         46.0920  -40.3170  -23.9590 O.2   158  GLU158     -0.2867
     83  CB        44.0960  -38.1550  -24.6180 C.3   158  GLU158      0.0388
     84  CG        43.0850  -37.2790  -25.2840 C.3   158  GLU158      0.1160
     85  CD        43.6880  -36.1770  -26.1190 C.2   158  GLU158      0.3649
     86  OE1       44.9210  -36.0340  -26.2210 O.co2 158  GLU158     -0.2457
     87  OE2       42.8370  -35.3990  -26.6800 O.co2 158  GLU158     -0.2457
     88  N         34.4580  -47.3610  -20.7460 N.3   181  ASP181     -0.1239
     89  CA        33.2000  -47.4500  -21.4730 C.3   181  ASP181      0.1674
     90  C         33.5040  -47.9180  -22.9020 C.2   181  ASP181      0.2266
     91  O         33.7710  -47.1220  -23.8180 O.2   181  ASP181     -0.2867
     92  CB        32.5100  -46.0980  -21.4870 C.3   181  ASP181      0.1410
     93  CG        31.1210  -46.1880  -22.0610 C.2   181  ASP181      0.3668
     94  OD1       30.6930  -47.3360  -22.3000 O.co2 181  ASP181     -0.2456
     95  OD2       30.5060  -45.1260  -22.2760 O.co2 181  ASP181     -0.2456
     96  N         32.3130  -48.8510  -25.8710 N.3   183  ASN183     -0.1240
     97  CA        31.1120  -48.7460  -26.6880 C.3   183  ASN183      0.1653
     98  C         31.4040  -48.6320  -28.1810 C.2   183  ASN183      0.2266
     99  O         30.4640  -48.5950  -28.9770 O.2   183  ASN183     -0.2867
    100  CB        30.1800  -47.6320  -26.1990 C.3   183  ASN183      0.1155
    101  CG        30.7940  -46.2540  -26.3000 C.2   183  ASN183      0.2627
    102  OD1       31.7440  -46.0300  -27.0670 O.2   183  ASN183     -0.2716
    103  ND2       30.2220  -45.2920  -25.5660 N.am  183  ASN183     -0.0877
    104  N         32.2980  -46.4120  -30.2150 N.3   185  ILE185     -0.1231
    105  CA        31.7900  -45.2410  -30.9270 C.3   185  ILE185      0.1692
    106  C         32.4930  -44.0090  -30.3830 C.2   185  ILE185      0.2593
    107  O         32.6050  -43.8410  -29.1730 O.2   185  ILE185     -0.2718
    108  CB        30.2500  -45.0970  -30.7490 C.3   185  ILE185      0.0266
    109  CG1       29.5090  -46.2300  -31.4630 C.3   185  ILE185      0.0019
    110  CG2       29.7790  -43.7160  -31.1640 C.3   185  ILE185      0.0020
    111  CD1       29.5400  -46.1270  -32.9740 C.3   185  ILE185      0.0001
    112  N         32.9320  -43.1220  -31.2650 N.am  186  SER186     -0.1938
    113  CA        33.3730  -41.7840  -30.9020 C.3   186  SER186      0.2055
    114  C         32.7100  -40.7990  -31.8680 C.2   186  SER186      0.2642
    115  O         31.8100  -41.1900  -32.6330 O.2   186  SER186     -0.2714
    116  CB        34.9000  -41.6960  -30.8660 C.3   186  SER186      0.2130
    117  OG        35.4690  -41.8210  -32.1490 O.3   186  SER186     -0.2179
    118  N         33.1360  -39.5380  -31.8830 N.am  187  ILE187     -0.1977
    119  CA        32.4290  -38.5600  -32.7150 C.3   187  ILE187      0.1596
    120  C         32.5090  -38.9090  -34.1960 C.2   187  ILE187      0.2287
    121  O         31.5290  -38.7170  -34.9460 O.2   187  ILE187     -0.2864
    122  CB        32.8960  -37.1380  -32.4080 C.3   187  ILE187      0.0276
    123  CG1       32.2340  -36.6770  -31.1230 C.3   187  ILE187      0.0022
    124  CG2       32.5860  -36.1840  -33.5330 C.3   187  ILE187      0.0022
    125  CD1       32.7310  -35.3300  -30.6450 C.3   187  ILE187      0.0001
    126  N         26.3820  -47.4680  -26.6180 N.3   246  ILE246     -0.1245
    127  CA        26.1920  -46.0430  -26.4270 C.3   246  ILE246      0.1561
    128  C         24.7160  -45.7270  -26.6460 C.2   246  ILE246      0.2260
    129  O         24.0760  -46.2500  -27.5630 O.2   246  ILE246     -0.2867
    130  CB        27.1240  -45.2130  -27.3360 C.3   246  ILE246      0.0252
    131  CG1       27.1710  -43.7580  -26.8400 C.3   246  ILE246      0.0019
    132  CG2       26.7420  -45.3180  -28.8150 C.3   246  ILE246      0.0019
    133  CD1       28.1020  -42.8800  -27.5990 C.3   246  ILE246      0.0001
    134  N         25.8150  -39.6540  -29.4160 N.3   259  HIS259     -0.1241
    135  CA        26.8930  -39.1880  -28.5520 C.3   259  HIS259      0.1621
    136  C         26.6030  -37.8110  -27.9760 C.2   259  HIS259      0.2264
    137  O         26.7970  -37.5850  -26.7750 O.2   259  HIS259     -0.2867
    138  CB        28.2160  -39.1710  -29.3300 C.3   259  HIS259      0.0745
    139  CG        29.2180  -38.2140  -28.7760 C.ar  259  HIS259      0.0817
    140  ND1       30.0170  -38.5270  -27.7050 N.ar  259  HIS259     -0.2268
    141  CD2       29.5010  -36.9270  -29.0940 C.ar  259  HIS259      0.1154
    142  CE1       30.7590  -37.4820  -27.3870 C.ar  259  HIS259      0.1986
    143  NE2       30.4650  -36.4950  -28.2150 N.ar  259  HIS259     -0.2212
@<TRIPOS>BOND
     1   121   120    2
     2   120   119    1
     3   124   122    1
     4   111   109    1
     5   119   122    1
     6   119   118    1
     7   115   114    2
     8   122   123    1
     9   117   116    1
    10   118   114   am
    11   114   113    1
    12   109   108    1
    13   112   113    1
    14   112   106   am
    15   110   108    1
    16   123   125    1
    17   105   108    1
    18   105   106    1
    19   105   104    1
    20   113   116    1
    21   106   107    2
    22   134   135    1
    23   138   139    1
    24   138   135    1
    25   141   139   ar
    26   141   143   ar
    27    99    98    2
    28   132   130    1
    29   139   140   ar
    30   135   136    1
    31   143   142   ar
    32    98    97    1
    33   136   137    2
    34   140   142   ar
    35   133   131    1
    36   129   128    2
    37    74    72   ar
    38   130   131    1
    39   130   127    1
    40    71    72    1
    41    71    68    1
    42    72    73   ar
    43   102   101    2
    44    97   100    1
    45    97    96    1
    46    87    85   ar
    47   128   127    1
    48   126   127    1
    49    70    69    2
    50   101   100    1
    51   101   103   am
    52    76    75    1
    53    76    77    1
    54    86    85   ar
    55    69    75   am
    56    69    68    1
    57    85    84    1
    58    10     8   ar
    59    10     9   ar
    60    79    80    1
    61    68    67    1
    62    61    60    1
    63     8     6   ar
    64    78    77    2
    65    80    81    1
    66    80    83    1
    67    84    83    1
    68     9     7   ar
    69    81    82    2
    70    67    65   am
    71     6     7   ar
    72     6     5    1
    73     2     5    1
    74     2     1    1
    75     2     3    1
    76    60    59    1
    77    60    62    1
    78    33    31   ar
    79    33    32   ar
    80    59    56    1
    81    91    90    2
    82    31    29   ar
    83     3     4    2
    84    32    30   ar
    85    11    12    1
    86    65    66    2
    87    65    64    1
    88    29    30   ar
    89    29    28    1
    90    28    25    1
    91    90    89    1
    92    55    56    1
    93    55    50   am
    94    64    63    1
    95    12    15    1
    96    12    13    1
    97    56    57    1
    98    42    43   ar
    99    42    40   ar
   100    47    46    2
   101    58    57    2
   102    43    41   ar
   103    94    93   ar
   104    95    93   ar
   105    93    92    1
   106    49    50    1
   107    49    52    1
   108    49    48    1
   109    50    51    2
   110    25    26    1
   111    25    24    1
   112    92    89    1
   113    89    88    1
   114    40    39   ar
   115    52    53    1
   116    46    48   am
   117    46    45    1
   118    13    14    2
   119    27    26    2
   120    41    39   ar
   121    48    54    1
   122    53    54    1
   123    20    17    1
   124    20    21    1
   125    39    38    1
   126    45    44    1
   127    23    21   am
   128    17    18    1
   129    17    16    1
   130    21    22    2
   131    18    19    2
   132    38    35    1
   133    34    35    1
   134    35    36    1
   135    36    37    2
