@<TRIPOS>MOLECULE
tmp/5xsfA00.pdb
 83 80 0 0 0
SMALL
GASTEIGER

@<TRIPOS>ATOM
      1  N          6.4020   31.9180  -35.4130 N.3    17  VAL17      -0.1245
      2  CA         6.3490   31.9560  -33.9580 C.3    17  VAL17       0.1561
      3  C          5.7720   33.3150  -33.6090 C.2    17  VAL17       0.2260
      4  O          6.4440   34.3410  -33.7620 O.2    17  VAL17      -0.2867
      5  CB         7.7300   31.7350  -33.3210 C.3    17  VAL17       0.0252
      6  CG1        7.6530   31.8610  -31.8070 C.3    17  VAL17       0.0019
      7  CG2        8.2810   30.3620  -33.7050 C.3    17  VAL17       0.0019
      8  N          4.0360   36.2800  -31.4160 N.3    19  VAL19      -0.1245
      9  CA         3.8940   36.9310  -30.1220 C.3    19  VAL19       0.1561
     10  C          2.8890   38.0530  -30.3450 C.2    19  VAL19       0.2260
     11  O          3.2250   39.0900  -30.9260 O.2    19  VAL19      -0.2867
     12  CB         5.2310   37.4550  -29.5880 C.3    19  VAL19       0.0252
     13  CG1        5.0490   38.0900  -28.2180 C.3    19  VAL19       0.0019
     14  CG2        6.2480   36.3170  -29.5280 C.3    19  VAL19       0.0019
     15  N          2.8320   33.7540  -24.2180 N.3    46  ARG46      -0.1245
     16  CA         3.6500   34.7090  -23.4810 C.3    46  ARG46       0.1563
     17  C          2.9080   35.9910  -23.1460 C.2    46  ARG46       0.2260
     18  O          3.4660   36.8450  -22.4480 O.2    46  ARG46      -0.2867
     19  CB         4.9120   35.0470  -24.2780 C.3    46  ARG46       0.0307
     20  CG         5.7660   33.8400  -24.5910 C.3    46  ARG46       0.0489
     21  CD         6.9360   34.1950  -25.4850 C.3    46  ARG46       0.2205
     22  NE         7.4380   33.0050  -26.1660 N.pl3  46  ARG46      -0.0865
     23  CZ         8.3700   33.0220  -27.1110 C.cat  46  ARG46       0.5346
     24  NH1        8.9160   34.1740  -27.4860 N.pl3  46  ARG46       0.1354
     25  NH2        8.7520   31.8860  -27.6810 N.pl3  46  ARG46       0.1354
     26  N         16.0960   24.2330  -29.9720 N.3   131  PHE131     -0.1241
     27  CA        15.8960   25.6020  -29.5270 C.3   131  PHE131      0.1605
     28  C         16.7780   25.9630  -28.3380 C.2   131  PHE131      0.2264
     29  O         16.9590   25.1370  -27.4310 O.2   131  PHE131     -0.2867
     30  CB        14.4180   25.7900  -29.1470 C.3   131  PHE131      0.0534
     31  CG        14.1270   27.0930  -28.4760 C.ar  131  PHE131     -0.0203
     32  CD1       13.8350   28.2170  -29.2280 C.ar  131  PHE131     -0.0042
     33  CD2       14.1460   27.1990  -27.0950 C.ar  131  PHE131     -0.0042
     34  CE1       13.5750   29.4230  -28.6180 C.ar  131  PHE131     -0.0003
     35  CE2       13.8900   28.4020  -26.4770 C.ar  131  PHE131     -0.0003
     36  CZ        13.6040   29.5170  -27.2380 C.ar  131  PHE131     -0.0000
     37  N         14.6780   26.4180  -34.2550 N.3   157  THR157     -0.1203
     38  CA        13.9830   27.6620  -33.9670 C.3   157  THR157      0.1994
     39  C         14.8750   28.4750  -33.0400 C.2   157  THR157      0.2618
     40  O         15.5480   27.9130  -32.1730 O.2   157  THR157     -0.2717
     41  CB        12.6120   27.4040  -33.3150 C.3   157  THR157      0.1784
     42  OG1       11.8300   26.5380  -34.1520 O.3   157  THR157     -0.2211
     43  CG2       11.8590   28.6960  -33.1010 C.3   157  THR157      0.0376
     44  N         14.8860   29.7900  -33.2360 N.am  158  GLY158     -0.1942
     45  CA        15.7230   30.6750  -32.4480 C.3   158  GLY158      0.2014
     46  C         16.8520   31.2720  -33.2630 C.2   158  GLY158      0.2639
     47  O         17.8900   30.6320  -33.4600 O.2   158  GLY158     -0.2714
     48  N         16.6560   32.4930  -33.7560 N.am  159  GLY159     -0.1939
     49  CA        17.6500   33.1430  -34.5880 C.3   159  GLY159      0.2014
     50  C         17.6610   32.7360  -36.0470 C.2   159  GLY159      0.2638
     51  O         18.5900   33.1180  -36.7670 O.2   159  GLY159     -0.2714
     52  N         16.6790   31.9560  -36.5100 N.am  160  ILE160     -0.1977
     53  CA        16.6240   31.5990  -37.9240 C.3   160  ILE160      0.1596
     54  C         16.2230   32.8230  -38.7460 C.2   160  ILE160      0.2287
     55  O         15.4220   33.6590  -38.3120 O.2   160  ILE160     -0.2864
     56  CB        15.6590   30.4200  -38.1630 C.3   160  ILE160      0.0276
     57  CG1       15.9200   29.2890  -37.1610 C.3   160  ILE160      0.0022
     58  CG2       15.7940   29.8830  -39.5850 C.3   160  ILE160      0.0022
     59  CD1       17.2890   28.6560  -37.2740 C.3   160  ILE160      0.0001
     60  N         10.3940   30.5480  -36.9810 N.3   179  GLY179     -0.1210
     61  CA        10.9150   31.8960  -37.1040 C.3   179  GLY179      0.1956
     62  C          9.8730   32.9420  -36.7930 C.2   179  GLY179      0.2613
     63  O          8.6700   32.7080  -36.9370 O.2   179  GLY179     -0.2717
     64  N         10.3430   34.1080  -36.3510 N.am  180  SER180     -0.1938
     65  CA         9.4840   35.2600  -36.1190 C.3   180  SER180      0.2055
     66  C          9.6370   36.3460  -37.1730 C.2   180  SER180      0.2643
     67  O          8.9120   37.3440  -37.1170 O.2   180  SER180     -0.2714
     68  CB         9.7600   35.8580  -34.7360 C.3   180  SER180      0.2130
     69  OG        11.0920   36.3260  -34.6540 O.3   180  SER180     -0.2179
     70  N         10.5540   36.1840  -38.1300 N.am  181  TRP181     -0.1973
     71  CA        10.8080   37.2380  -39.1030 C.3   181  TRP181      0.1640
     72  C          9.6200   37.4860  -40.0260 C.2   181  TRP181      0.2290
     73  O          9.5020   38.5880  -40.5700 O.2   181  TRP181     -0.2864
     74  CB        12.0550   36.9090  -39.9290 C.3   181  TRP181      0.0576
     75  CG        11.8270   35.9300  -41.0580 C.ar  181  TRP181      0.0006
     76  CD1       11.3390   36.2120  -42.3040 C.ar  181  TRP181      0.0946
     77  CD2       12.1060   34.5230  -41.0480 C.ar  181  TRP181      0.0152
     78  NE1       11.2810   35.0680  -43.0610 N.ar  181  TRP181     -0.2442
     79  CE2       11.7490   34.0180  -42.3150 C.ar  181  TRP181      0.0810
     80  CE3       12.6140   33.6420  -40.0890 C.ar  181  TRP181      0.0012
     81  CZ2       11.8860   32.6720  -42.6470 C.ar  181  TRP181      0.0191
     82  CZ3       12.7480   32.3050  -40.4200 C.ar  181  TRP181      0.0001
     83  CH2       12.3850   31.8320  -41.6870 C.ar  181  TRP181      0.0015
@<TRIPOS>BOND
     1    78    79   ar
     2    78    76   ar
     3    81    79   ar
     4    81    83   ar
     5    79    77   ar
     6    76    75   ar
     7    83    82   ar
     8    75    77   ar
     9    75    74    1
    10    77    80   ar
    11    73    72    2
    12    82    80   ar
    13    72    71    1
    14    74    71    1
    15    58    56    1
    16    71    70    1
    17    54    55    2
    18    54    53    1
    19    56    53    1
    20    56    57    1
    21    70    66   am
    22    53    52    1
    23    59    57    1
    24    66    67    2
    25    66    65    1
    26    61    60    1
    27    61    62    1
    28    63    62    2
    29    62    64   am
    30    51    50    2
    31    52    50   am
    32    64    65    1
    33    65    68    1
    34    50    49    1
    35     1     2    1
    36    68    69    1
    37    49    48    1
    38    37    38    1
    39    42    41    1
    40    38    41    1
    41    38    39    1
    42     2     3    1
    43     2     5    1
    44     4     3    2
    45    48    46   am
    46     7     5    1
    47    47    46    2
    48     5     6    1
    49    41    43    1
    50    46    45    1
    51    44    39   am
    52    44    45    1
    53    39    40    2
    54     8     9    1
    55    11    10    2
    56    10     9    1
    57     9    12    1
    58    26    27    1
    59    12    14    1
    60    12    13    1
    61    27    30    1
    62    27    28    1
    63    32    34   ar
    64    32    31   ar
    65    30    31    1
    66    34    36   ar
    67    31    33   ar
    68    28    29    2
    69    25    23    1
    70    24    23    1
    71    36    35   ar
    72    23    22    2
    73    33    35   ar
    74    22    21    1
    75    21    20    1
    76    20    19    1
    77    19    16    1
    78    15    16    1
    79    16    17    1
    80    17    18    2
