@<TRIPOS>MOLECULE
tmp/5xsfA01.pdb
 78 75 0 0 0
SMALL
GASTEIGER

@<TRIPOS>ATOM
      1  N          4.0360   36.2800  -31.4160 N.3    19  VAL19      -0.1231
      2  CA         3.8940   36.9310  -30.1220 C.3    19  VAL19       0.1692
      3  C          2.8890   38.0530  -30.3450 C.2    19  VAL19       0.2592
      4  O          3.2250   39.0900  -30.9260 O.2    19  VAL19      -0.2718
      5  CB         5.2310   37.4550  -29.5880 C.3    19  VAL19       0.0266
      6  CG1        5.0490   38.0900  -28.2180 C.3    19  VAL19       0.0020
      7  CG2        6.2480   36.3170  -29.5280 C.3    19  VAL19       0.0020
      8  N          1.6440   37.8350  -29.9300 N.am   20  ILE20      -0.1966
      9  CA         0.5520   38.7490  -30.2490 C.3    20  ILE20       0.1727
     10  C          0.4070   39.7190  -29.0810 C.2    20  ILE20       0.2616
     11  O         -0.1820   39.3880  -28.0500 O.2    20  ILE20      -0.2715
     12  CB        -0.7480   37.9970  -30.5350 C.3    20  ILE20       0.0290
     13  CG1       -0.5320   36.9820  -31.6610 C.3    20  ILE20       0.0022
     14  CG2       -1.8540   38.9640  -30.9110 C.3    20  ILE20       0.0023
     15  CD1       -0.1640   37.6160  -32.9890 C.3    20  ILE20       0.0001
     16  N          0.9620   40.9220  -29.2330 N.am   21  GLU21      -0.1963
     17  CA         0.8510   41.9020  -28.1610 C.3    21  GLU21       0.1733
     18  C         -0.4550   42.6850  -28.2280 C.2    21  GLU21       0.2616
     19  O         -0.9460   43.1430  -27.1910 O.2    21  GLU21      -0.2715
     20  CB         2.0520   42.8480  -28.1870 C.3    21  GLU21       0.0429
     21  CG         3.4040   42.1720  -27.9030 C.3    21  GLU21       0.1163
     22  CD         3.5750   41.7260  -26.4520 C.2    21  GLU21       0.3649
     23  OE1        4.5970   41.0680  -26.1490 O.co2  21  GLU21      -0.2457
     24  OE2        2.7000   42.0350  -25.6110 O.co2  21  GLU21      -0.2457
     25  N         -1.0450   42.8280  -29.4150 N.am   22  ASP22      -0.1971
     26  CA        -2.3460   43.4680  -29.5790 C.3    22  ASP22       0.1709
     27  C         -3.3090   42.4620  -30.1920 C.2    22  ASP22       0.2293
     28  O         -3.1350   42.0550  -31.3460 O.2    22  ASP22      -0.2864
     29  CB        -2.2570   44.7220  -30.4510 C.3    22  ASP22       0.1436
     30  CG        -3.5480   45.5440  -30.4370 C.2    22  ASP22       0.3671
     31  OD1       -4.5600   45.0890  -29.8530 O.co2  22  ASP22      -0.2456
     32  OD2       -3.5510   46.6570  -31.0060 O.co2  22  ASP22      -0.2456
     33  N         -4.7420   42.5150  -33.7140 N.3    25  ASP25      -0.1239
     34  CA        -3.9190   42.0650  -34.8280 C.3    25  ASP25       0.1674
     35  C         -4.0110   40.5640  -35.0760 C.2    25  ASP25       0.2266
     36  O         -3.4410   40.0870  -36.0630 O.2    25  ASP25      -0.2867
     37  CB        -2.4550   42.4370  -34.5890 C.3    25  ASP25       0.1410
     38  CG        -2.2520   43.9230  -34.3960 C.2    25  ASP25       0.3668
     39  OD1       -3.0080   44.7120  -34.9960 O.co2  25  ASP25      -0.2456
     40  OD2       -1.3260   44.2990  -33.6480 O.co2  25  ASP25      -0.2456
     41  N         -3.2530   39.0130  -38.8450 N.3    29  ILE29      -0.1245
     42  CA        -1.9880   38.2930  -38.9460 C.3    29  ILE29       0.1561
     43  C         -2.2220   36.8680  -39.4340 C.2    29  ILE29       0.2260
     44  O         -1.5430   36.3900  -40.3510 O.2    29  ILE29      -0.2867
     45  CB        -1.2450   38.3140  -37.5990 C.3    29  ILE29       0.0252
     46  CG1       -0.6210   39.6950  -37.3550 C.3    29  ILE29       0.0019
     47  CG2       -0.1830   37.2200  -37.5580 C.3    29  ILE29       0.0019
     48  CD1        0.0320   39.8310  -35.9990 C.3    29  ILE29       0.0001
     49  N          6.5560   37.9260  -39.3460 N.3   183  VAL183     -0.1231
     50  CA         5.7260   38.9690  -38.7600 C.3   183  VAL183      0.1678
     51  C          6.6440   39.9490  -38.0360 C.2   183  VAL183      0.2434
     52  O          7.0190   39.7340  -36.8820 O.2   183  VAL183     -0.2733
     53  CB         4.6670   38.3890  -37.8040 C.3   183  VAL183      0.0265
     54  CG1        3.8270   39.5140  -37.2060 C.3   183  VAL183      0.0020
     55  CG2        3.7690   37.4160  -38.5400 C.3   183  VAL183      0.0020
     56  N          7.0270   41.0420  -38.6930 N.am  184  PRO184     -0.2718
     57  CA         7.9160   42.0230  -38.0610 C.3   184  PRO184      0.1535
     58  C          7.2520   42.6870  -36.8660 C.2   184  PRO184      0.2598
     59  O          6.0310   42.8570  -36.8180 O.2   184  PRO184     -0.2715
     60  CB         8.1820   43.0400  -39.1800 C.3   184  PRO184      0.0310
     61  CG         7.7610   42.3570  -40.4480 C.3   184  PRO184      0.0237
     62  CD         6.6600   41.4250  -40.0650 C.3   184  PRO184      0.0939
     63  N          8.0740   43.0560  -35.8880 N.am  185  ALA185     -0.1964
     64  CA         7.5690   43.8040  -34.7490 C.3   185  ALA185      0.1728
     65  C          6.9420   45.1080  -35.2250 C.2   185  ALA185      0.2616
     66  O          7.3760   45.7100  -36.2120 O.2   185  ALA185     -0.2715
     67  CB         8.6920   44.0830  -33.7490 C.3   185  ALA185      0.0334
     68  N          5.8870   45.5230  -34.5390 N.am  186  GLY186     -0.1955
     69  CA         5.1400   46.7110  -34.9010 C.3   186  GLY186      0.1869
     70  C          3.7690   46.3590  -35.4500 C.2   186  GLY186      0.2309
     71  O          3.3570   45.1980  -35.4870 O.2   186  GLY186     -0.2863
     72  N          1.3140   45.3640  -37.6840 N.3   188  PRO188     -0.2116
     73  CA         1.7090   44.5200  -38.8460 C.3   188  PRO188      0.1372
     74  C          1.2130   45.0760  -40.1680 C.2   188  PRO188      0.2244
     75  O          0.2350   45.8100  -40.2370 O.2   188  PRO188     -0.2868
     76  CB         0.9510   43.2220  -38.5760 C.3   188  PRO188      0.0268
     77  CG        -0.3060   43.6600  -37.8170 C.3   188  PRO188      0.0207
     78  CD         0.2510   44.7300  -36.9010 C.3   188  PRO188      0.0892
@<TRIPOS>BOND
     1    61    62    1
     2    61    60    1
     3    44    43    2
     4    75    74    2
     5    74    73    1
     6    62    56    1
     7    43    42    1
     8    49    50    1
     9    60    57    1
    10    42    41    1
    11    42    45    1
    12    73    76    1
    13    73    72    1
    14    50    51    1
    15    50    53    1
    16    56    57    1
    17    56    51   am
    18    76    77    1
    19    55    53    1
    20    57    58    1
    21    51    52    2
    22    77    78    1
    23    53    54    1
    24    72    78    1
    25    45    47    1
    26    45    46    1
    27    46    48    1
    28    58    59    2
    29    58    63   am
    30    66    65    2
    31    36    35    2
    32    63    64    1
    33    71    70    2
    34    70    69    1
    35    65    64    1
    36    65    68   am
    37    35    34    1
    38    39    38   ar
    39    69    68    1
    40    34    37    1
    41    34    33    1
    42    64    67    1
    43    37    38    1
    44    38    40   ar
    45    15    13    1
    46    13    12    1
    47     1     2    1
    48    28    27    2
    49    32    30   ar
    50     4     3    2
    51    14    12    1
    52    12     9    1
    53    29    30    1
    54    29    26    1
    55    30    31   ar
    56     3     2    1
    57     3     8   am
    58     9     8    1
    59     9    10    1
    60    27    26    1
    61     2     5    1
    62     5     7    1
    63     5     6    1
    64    26    25    1
    65    25    18   am
    66    16    10   am
    67    16    17    1
    68    10    11    2
    69    18    17    1
    70    18    19    2
    71    20    17    1
    72    20    21    1
    73    21    22    1
    74    22    23   ar
    75    22    24   ar
