@<TRIPOS>MOLECULE
tmp/5xsnA00.pdb
 135 128 0 0 0
SMALL
GASTEIGER

@<TRIPOS>ATOM
      1  N          0.6470   -7.0130   22.7550 N.3   181  ARG181     -0.1245
      2  CA         0.7360   -6.3180   24.0390 C.3   181  ARG181      0.1563
      3  C         -0.0890   -5.0610   24.0290 C.2   181  ARG181      0.2260
      4  O          0.4760   -3.9630   24.0450 O.2   181  ARG181     -0.2867
      5  CB         2.1610   -5.9410   24.3930 C.3   181  ARG181      0.0307
      6  CG         3.0680   -6.9160   23.8160 C.3   181  ARG181      0.0489
      7  CD         3.9600   -7.5260   24.8660 C.3   181  ARG181      0.2205
      8  NE         5.1520   -7.9870   24.1820 N.pl3 181  ARG181     -0.0865
      9  CZ         6.0250   -8.8510   24.6870 C.cat 181  ARG181      0.5346
     10  NH1        5.8400   -9.3730   25.8840 N.pl3 181  ARG181      0.1354
     11  NH2        7.0830   -9.1960   23.9790 N.pl3 181  ARG181      0.1354
     12  N         13.2540  -16.0090   35.2320 N.3   249  PRO249     -0.2102
     13  CA        13.5770  -15.4330   33.9100 C.3   249  PRO249      0.1504
     14  C         12.4880  -14.5510   33.3010 C.2   249  PRO249      0.2575
     15  O         12.8110  -13.6230   32.5430 O.2   249  PRO249     -0.2718
     16  CB        13.8370  -16.6780   33.0470 C.3   249  PRO249      0.0282
     17  CG        14.3440  -17.6950   34.0250 C.3   249  PRO249      0.0208
     18  CD        13.5930  -17.4430   35.3120 C.3   249  PRO249      0.0893
     19  N         11.2120  -14.8070   33.5810 N.am  250  VAL250     -0.1980
     20  CA        10.1790  -13.9610   32.9920 C.3   250  VAL250      0.1595
     21  C         10.0940  -12.6260   33.7250 C.2   250  VAL250      0.2287
     22  O          9.9120  -11.5800   33.1000 O.2   250  VAL250     -0.2864
     23  CB         8.8220  -14.6940   32.9650 C.3   250  VAL250      0.0276
     24  CG1        7.7140  -13.7530   32.4950 C.3   250  VAL250      0.0022
     25  CG2        8.8920  -15.9190   32.0590 C.3   250  VAL250      0.0022
     26  N         12.5880  -10.5130   32.1870 N.3   253  ALA253     -0.1231
     27  CA        12.1400  -10.0610   30.8770 C.3   253  ALA253      0.1694
     28  C         11.0950   -8.9670   31.0030 C.2   253  ALA253      0.2591
     29  O         11.0670   -8.0240   30.2020 O.2   253  ALA253     -0.2718
     30  CB        11.5850  -11.2460   30.0830 C.3   253  ALA253      0.0304
     31  N         10.2170   -9.0920   31.9940 N.am  254  GLN254     -0.1979
     32  CA         9.1600   -8.1130   32.2050 C.3   254  GLN254      0.1601
     33  C          9.7200   -6.8120   32.7670 C.2   254  GLN254      0.2287
     34  O          9.2550   -5.7270   32.4060 O.2   254  GLN254     -0.2864
     35  CB         8.0910   -8.7070   33.1280 C.3   254  GLN254      0.0394
     36  CG         7.2080   -9.6990   32.4160 C.3   254  GLN254      0.0908
     37  CD         6.2910  -10.4720   33.3410 C.2   254  GLN254      0.2608
     38  OE1        6.5000  -10.5230   34.5580 O.2   254  GLN254     -0.2717
     39  NE2        5.2740  -11.0920   32.7620 N.am  254  GLN254     -0.0878
     40  N         10.9110   -5.0490   29.7430 N.3   257  ASP257     -0.1239
     41  CA         9.7940   -4.5060   28.9700 C.3   257  ASP257      0.1674
     42  C          9.2890   -3.2190   29.5900 C.2   257  ASP257      0.2266
     43  O          9.1020   -2.2100   28.8970 O.2   257  ASP257     -0.2867
     44  CB         8.6410   -5.5000   28.8880 C.3   257  ASP257      0.1410
     45  CG         8.9530   -6.6950   28.0340 C.2   257  ASP257      0.3668
     46  OD1        9.5760   -6.5100   26.9610 O.co2 257  ASP257     -0.2456
     47  OD2        8.5730   -7.8200   28.4470 O.co2 257  ASP257     -0.2456
     48  N         20.3440  -15.9800   37.3250 N.3   274  ARG274     -0.1245
     49  CA        19.3670  -16.9820   36.9570 C.3   274  ARG274      0.1563
     50  C         19.6300  -18.3300   37.6120 C.2   274  ARG274      0.2260
     51  O         18.6710  -19.0520   37.9010 O.2   274  ARG274     -0.2867
     52  CB        19.3270  -17.1480   35.4310 C.3   274  ARG274      0.0307
     53  CG        18.1680  -18.0090   34.9440 C.3   274  ARG274      0.0489
     54  CD        18.3450  -18.4850   33.5000 C.3   274  ARG274      0.2205
     55  NE        17.9080  -17.4890   32.5300 N.pl3 274  ARG274     -0.0865
     56  CZ        17.4910  -17.7810   31.3020 C.cat 274  ARG274      0.5346
     57  NH1       17.4400  -19.0380   30.9100 N.pl3 274  ARG274      0.1354
     58  NH2       17.0970  -16.8220   30.4740 N.pl3 274  ARG274      0.1354
     59  N         18.2410   -9.5590   29.9940 N.3   282  SER282     -0.1217
     60  CA        17.1760   -9.2740   29.0380 C.3   282  SER282      0.1889
     61  C         17.3400   -7.8550   28.5090 C.2   282  SER282      0.2288
     62  O         17.5550   -6.9180   29.2920 O.2   282  SER282     -0.2866
     63  CB        15.7910   -9.4430   29.6690 C.3   282  SER282      0.2089
     64  OG        15.3750  -10.7920   29.6120 O.3   282  SER282     -0.2183
     65  N         15.8370   -4.7940   25.6320 N.3   284  ARG284     -0.1245
     66  CA        14.6600   -4.3190   24.9200 C.3   284  ARG284      0.1563
     67  C         14.9190   -2.8950   24.4540 C.2   284  ARG284      0.2260
     68  O         15.7130   -2.1570   25.0490 O.2   284  ARG284     -0.2867
     69  CB        13.4030   -4.3490   25.8080 C.3   284  ARG284      0.0307
     70  CG        13.0510   -5.6920   26.4350 C.3   284  ARG284      0.0489
     71  CD        12.5830   -6.7270   25.4190 C.3   284  ARG284      0.2205
     72  NE        12.1050   -7.9370   26.0800 N.pl3 284  ARG284     -0.0865
     73  CZ        12.8880   -8.9600   26.4360 C.cat 284  ARG284      0.5346
     74  NH1       14.1890   -8.9160   26.1920 N.pl3 284  ARG284      0.1354
     75  NH2       12.3790  -10.0270   27.0410 N.pl3 284  ARG284      0.1354
     76  N         27.3390  -13.2550   23.1520 N.3   299  GLY299     -0.1210
     77  CA        27.0260  -14.6640   22.9980 C.3   299  GLY299      0.1956
     78  C         25.5530  -15.0180   23.0140 C.2   299  GLY299      0.2612
     79  O         25.2260  -16.2020   23.1560 O.2   299  GLY299     -0.2717
     80  N         24.6550  -14.0310   22.8910 N.am  300  GLY300     -0.1942
     81  CA        23.2320  -14.2820   22.7660 C.3   300  GLY300      0.2014
     82  C         22.6930  -13.7810   21.4400 C.2   300  GLY300      0.2639
     83  O         23.4150  -13.7880   20.4420 O.2   300  GLY300     -0.2714
     84  N         21.4430  -13.3320   21.4060 N.am  301  GLY301     -0.1939
     85  CA        20.9060  -12.7380   20.1930 C.3   301  GLY301      0.2014
     86  C         19.4190  -12.4630   20.3230 C.2   301  GLY301      0.2639
     87  O         18.8980  -12.2950   21.4290 O.2   301  GLY301     -0.2714
     88  N         18.7490  -12.4050   19.1670 N.am  302  GLY302     -0.1939
     89  CA        17.3300  -12.0930   19.1110 C.3   302  GLY302      0.2014
     90  C         17.0160  -11.0940   18.0210 C.2   302  GLY302      0.2638
     91  O         17.5520  -11.1880   16.9140 O.2   302  GLY302     -0.2714
     92  N         16.1670  -10.1170   18.3130 N.am  303  HIS303     -0.1973
     93  CA        15.7150   -9.1700   17.3070 C.3   303  HIS303      0.1656
     94  C         16.0900   -7.7570   17.7370 C.2   303  HIS303      0.2291
     95  O         16.5170   -7.5300   18.8670 O.2   303  HIS303     -0.2864
     96  CB        14.2060   -9.3270   17.0730 C.3   303  HIS303      0.0771
     97  CG        13.7960  -10.7510   16.8510 C.ar  303  HIS303      0.0820
     98  ND1       14.0090  -11.4100   15.6570 N.ar  303  HIS303     -0.2267
     99  CD2       13.2450  -11.6610   17.6910 C.ar  303  HIS303      0.1154
    100  CE1       13.5830  -12.6560   15.7630 C.ar  303  HIS303      0.1986
    101  NE2       13.1170  -12.8350   16.9870 N.ar  303  HIS303     -0.2212
    102  N         14.3520   -6.7880   20.8810 N.3   306  ASN306     -0.1225
    103  CA        14.0210   -7.8580   21.8240 C.3   306  ASN306      0.1785
    104  C         15.1270   -8.9040   21.7520 C.2   306  ASN306      0.2597
    105  O         15.1820   -9.6670   20.7830 O.2   306  ASN306     -0.2718
    106  CB        12.6590   -8.4680   21.4660 C.3   306  ASN306      0.1169
    107  CG        12.2430   -9.6190   22.3930 C.2   306  ASN306      0.2627
    108  OD1       12.8050   -9.8230   23.4790 O.2   306  ASN306     -0.2716
    109  ND2       11.2350  -10.3730   21.9620 N.am  306  ASN306     -0.0877
    110  N         15.9810   -8.9650   22.7730 N.am  307  ALA307     -0.1966
    111  CA        17.1320   -9.8570   22.7320 C.3   307  ALA307      0.1728
    112  C         17.5220  -10.2650   24.1490 C.2   307  ALA307      0.2616
    113  O         16.9920   -9.7430   25.1310 O.2   307  ALA307     -0.2715
    114  CB        18.3130   -9.1910   22.0140 C.3   307  ALA307      0.0334
    115  N         18.4810  -11.1880   24.2460 N.am  308  ALA308     -0.1963
    116  CA        18.9740  -11.6390   25.5440 C.3   308  ALA308      0.1728
    117  C         20.2340  -12.4860   25.3710 C.2   308  ALA308      0.2617
    118  O         20.6420  -12.8350   24.2570 O.2   308  ALA308     -0.2715
    119  CB        17.9160  -12.4290   26.3190 C.3   308  ALA308      0.0334
    120  N         20.8430  -12.8050   26.5070 N.am  309  THR309     -0.1937
    121  CA        22.0030  -13.6780   26.5830 C.3   309  THR309      0.2028
    122  C         22.0950  -14.2000   28.0050 C.2   309  THR309      0.2642
    123  O         21.5240  -13.6210   28.9320 O.2   309  THR309     -0.2714
    124  CB        23.3150  -12.9720   26.2220 C.3   309  THR309      0.1808
    125  OG1       24.3620  -13.9540   26.1420 O.3   309  THR309     -0.2208
    126  CG2       23.6890  -11.9400   27.2990 C.3   309  THR309      0.0379
    127  N         22.8340  -15.2940   28.1610 N.am  310  GLN310     -0.1976
    128  CA        23.1190  -15.8860   29.4590 C.3   310  GLN310      0.1601
    129  C         24.6260  -16.0760   29.5660 C.2   310  GLN310      0.2287
    130  O         25.2860  -16.4060   28.5770 O.2   310  GLN310     -0.2864
    131  CB        22.3510  -17.2050   29.6400 C.3   310  GLN310      0.0394
    132  CG        20.7990  -17.0610   29.4470 C.3   310  GLN310      0.0908
    133  CD        20.3730  -16.9730   27.9730 C.2   310  GLN310      0.2608
    134  OE1       20.9060  -17.6940   27.1160 O.2   310  GLN310     -0.2717
    135  NE2       19.4180  -16.0870   27.6720 N.am  310  GLN310     -0.0878
@<TRIPOS>BOND
     1    98   100   ar
     2    98    97   ar
     3   100   101   ar
     4    97    96    1
     5    97    99   ar
     6    91    90    2
     7   101    99   ar
     8    96    93    1
     9    93    94    1
    10    93    92    1
    11    94    95    2
    12    90    92   am
    13    90    89    1
    14    89    88    1
    15    88    86   am
    16    85    86    1
    17    85    84    1
    18    86    87    2
    19    83    82    2
    20   105   104    2
    21   102   103    1
    22    84    82   am
    23    82    81    1
    24   106   103    1
    25   106   107    1
    26   104   103    1
    27   104   110   am
    28   109   107   am
    29   114   111    1
    30   107   108    2
    31   111   110    1
    32   111   112    1
    33     1     2    1
    34    81    80    1
    35    80    78   am
    36    77    78    1
    37    77    76    1
    38    78    79    2
    39     6     5    1
    40     6     7    1
    41    11     9    1
    42     3     2    1
    43     3     4    2
    44     2     5    1
    45   112   115   am
    46   112   113    2
    47     8     9    2
    48     8     7    1
    49   115   116    1
    50   118   117    2
    51    67    66    1
    52    67    68    2
    53     9    10    1
    54    66    65    1
    55    66    69    1
    56   117   116    1
    57   117   120   am
    58    71    72    1
    59    71    70    1
    60   116   119    1
    61    69    70    1
    62    72    73    2
    63   125   124    1
    64    74    73    1
    65   124   121    1
    66   124   126    1
    67    73    75    1
    68   120   121    1
    69   121   122    1
    70    46    45   ar
    71   134   133    2
    72   135   133   am
    73   133   132    1
    74   122   127   am
    75   122   123    2
    76    45    47   ar
    77    45    44    1
    78   127   128    1
    79    61    60    1
    80    61    62    2
    81   130   129    2
    82    44    41    1
    83    43    42    2
    84    41    42    1
    85    41    40    1
    86    60    63    1
    87    60    59    1
    88   132   131    1
    89   128   129    1
    90   128   131    1
    91    64    63    1
    92    30    27    1
    93    29    28    2
    94    58    56    1
    95    27    28    1
    96    27    26    1
    97    57    56    1
    98    28    31   am
    99    56    55    2
   100    31    32    1
   101    25    23    1
   102    32    33    1
   103    32    35    1
   104    34    33    2
   105    36    35    1
   106    36    37    1
   107    24    23    1
   108    55    54    1
   109    15    14    2
   110    39    37   am
   111    23    20    1
   112    20    19    1
   113    20    21    1
   114    16    13    1
   115    16    17    1
   116    22    21    2
   117    14    19   am
   118    14    13    1
   119    37    38    2
   120    54    53    1
   121    13    12    1
   122    17    18    1
   123    53    52    1
   124    12    18    1
   125    52    49    1
   126    49    48    1
   127    49    50    1
   128    50    51    2
