@<TRIPOS>MOLECULE
tmp/5xspA01.pdb
 100 95 0 0 0
SMALL
GASTEIGER

@<TRIPOS>ATOM
      1  N         13.4420   15.7190  -35.3330 N.3   250  PRO250     -0.2116
      2  CA        13.7430   15.2140  -33.9830 C.3   250  PRO250      0.1372
      3  C         12.6180   14.3630  -33.4000 C.2   250  PRO250      0.2244
      4  O         12.8790   13.3860  -32.7010 O.2   250  PRO250     -0.2868
      5  CB        13.9130   16.4980  -33.1410 C.3   250  PRO250      0.0268
      6  CG        14.3320   17.5410  -34.1250 C.3   250  PRO250      0.0207
      7  CD        13.7180   17.1620  -35.4610 C.3   250  PRO250      0.0892
      8  N         12.7190   10.3850  -32.2670 N.3   254  ALA254     -0.1245
      9  CA        12.1790    9.9280  -30.9930 C.3   254  ALA254      0.1562
     10  C         11.1530    8.8060  -31.1770 C.2   254  ALA254      0.2260
     11  O         11.2120    7.7820  -30.4980 O.2   254  ALA254     -0.2867
     12  CB        11.5680   11.1080  -30.2160 C.3   254  ALA254      0.0290
     13  N         20.5070   15.8350  -37.5120 N.3   275  ARG275     -0.1245
     14  CA        19.5160   16.7980  -37.0670 C.3   275  ARG275      0.1563
     15  C         19.7540   18.1600  -37.7190 C.2   275  ARG275      0.2260
     16  O         18.8040   18.9080  -37.9640 O.2   275  ARG275     -0.2867
     17  CB        19.5710   16.9510  -35.5490 C.3   275  ARG275      0.0307
     18  CG        18.4380   17.7830  -34.9910 C.3   275  ARG275      0.0489
     19  CD        18.6540   18.1490  -33.5340 C.3   275  ARG275      0.2205
     20  NE        18.2980   17.0730  -32.6210 N.pl3 275  ARG275     -0.0865
     21  CZ        17.5040   17.2250  -31.5610 C.cat 275  ARG275      0.5346
     22  NH1       16.9780   18.4120  -31.2790 N.pl3 275  ARG275      0.1354
     23  NH2       17.2400   16.1880  -30.7770 N.pl3 275  ARG275      0.1354
     24  N         18.2330    9.4690  -30.0650 N.3   283  SER283     -0.1217
     25  CA        17.1970    9.2070  -29.0690 C.3   283  SER283      0.1889
     26  C         17.3310    7.7740  -28.5730 C.2   283  SER283      0.2288
     27  O         17.5170    6.8660  -29.3680 O.2   283  SER283     -0.2866
     28  CB        15.7930    9.4550  -29.6350 C.3   283  SER283      0.2089
     29  OG        15.5520   10.8440  -29.8230 O.3   283  SER283     -0.2183
     30  N         15.7470    4.6730  -25.8780 N.3   285  ARG285     -0.1245
     31  CA        14.6170    4.2130  -25.0860 C.3   285  ARG285      0.1563
     32  C         14.9020    2.8240  -24.5410 C.2   285  ARG285      0.2260
     33  O         15.7250    2.0830  -25.0850 O.2   285  ARG285     -0.2867
     34  CB        13.3550    4.1840  -25.9520 C.3   285  ARG285      0.0307
     35  CG        13.0270    5.5070  -26.6090 C.3   285  ARG285      0.0489
     36  CD        12.5250    6.5090  -25.5770 C.3   285  ARG285      0.2205
     37  NE        12.0070    7.7160  -26.2070 N.pl3 285  ARG285     -0.0865
     38  CZ        12.7360    8.7860  -26.5100 C.cat 285  ARG285      0.5346
     39  NH1       14.0320    8.8250  -26.2310 N.pl3 285  ARG285      0.1354
     40  NH2       12.1630    9.8320  -27.0800 N.pl3 285  ARG285      0.1354
     41  N         27.4260   13.0140  -23.3950 N.3   300  GLY300     -0.1210
     42  CA        27.1870   14.4380  -23.2170 C.3   300  GLY300      0.1956
     43  C         25.7230   14.8420  -23.2700 C.2   300  GLY300      0.2612
     44  O         25.4140   16.0080  -23.4680 O.2   300  GLY300     -0.2717
     45  N         24.8190   13.8800  -23.0990 N.am  301  GLY301     -0.1942
     46  CA        23.3970   14.1720  -23.0940 C.3   301  GLY301      0.2014
     47  C         22.8140   13.7140  -21.7810 C.2   301  GLY301      0.2639
     48  O         23.4970   13.7570  -20.7570 O.2   301  GLY301     -0.2714
     49  N         21.5660   13.2570  -21.7920 N.am  302  GLY302     -0.1939
     50  CA        20.9620   12.7310  -20.5780 C.3   302  GLY302      0.2014
     51  C         19.4750   12.4660  -20.7030 C.2   302  GLY302      0.2639
     52  O         18.9550   12.3740  -21.8060 O.2   302  GLY302     -0.2714
     53  N         18.7890   12.3300  -19.5720 N.am  303  GLY303     -0.1939
     54  CA        17.3620   12.0490  -19.5780 C.3   303  GLY303      0.2014
     55  C         16.9550   11.1680  -18.4120 C.2   303  GLY303      0.2638
     56  O         17.2860   11.4640  -17.2650 O.2   303  GLY303     -0.2714
     57  N         16.2410   10.0800  -18.6930 N.am  304  HIS304     -0.1973
     58  CA        15.8100    9.1850  -17.6330 C.3   304  HIS304      0.1656
     59  C         16.1240    7.7530  -17.9880 C.2   304  HIS304      0.2291
     60  O         16.5280    7.4580  -19.1080 O.2   304  HIS304     -0.2864
     61  CB        14.3150    9.3480  -17.3510 C.3   304  HIS304      0.0771
     62  CG        13.8400   10.7620  -17.4560 C.ar  304  HIS304      0.0820
     63  ND1       14.0160   11.6830  -16.4460 N.ar  304  HIS304     -0.2267
     64  CD2       13.2260   11.4230  -18.4670 C.ar  304  HIS304      0.1154
     65  CE1       13.5210   12.8490  -16.8260 C.ar  304  HIS304      0.1986
     66  NE2       13.0360   12.7170  -18.0490 N.ar  304  HIS304     -0.2212
     67  N         14.1800    6.7020  -21.1380 N.3   307  ASN307     -0.1225
     68  CA        14.1600    7.5850  -22.2870 C.3   307  ASN307      0.1785
     69  C         15.1470    8.7350  -22.1360 C.2   307  ASN307      0.2597
     70  O         15.0430    9.5590  -21.2260 O.2   307  ASN307     -0.2718
     71  CB        12.7420    8.1110  -22.5470 C.3   307  ASN307      0.1169
     72  CG        12.2760    9.0890  -21.4830 C.2   307  ASN307      0.2627
     73  OD1       11.9510    8.6920  -20.3650 O.2   307  ASN307     -0.2716
     74  ND2       12.2400   10.3730  -21.8260 N.am  307  ASN307     -0.0877
     75  N         16.1140    8.7870  -23.0320 N.am  308  ALA308     -0.1966
     76  CA        17.1200    9.8260  -22.9620 C.3   308  ALA308      0.1728
     77  C         17.5250   10.2060  -24.3700 C.2   308  ALA308      0.2616
     78  O         17.0600    9.6020  -25.3400 O.2   308  ALA308     -0.2715
     79  CB        18.3230    9.3370  -22.1630 C.3   308  ALA308      0.0334
     80  N         18.3870   11.2120  -24.4750 N.am  309  ALA309     -0.1963
     81  CA        18.8140   11.7260  -25.7660 C.3   309  ALA309      0.1728
     82  C         20.1320   12.4620  -25.6450 C.2   309  ALA309      0.2617
     83  O         20.5060   12.9210  -24.5660 O.2   309  ALA309     -0.2715
     84  CB        17.7520   12.6590  -26.3400 C.3   309  ALA309      0.0334
     85  N         20.8480   12.5650  -26.7550 N.am  310  THR310     -0.1937
     86  CA        21.9760   13.4720  -26.8090 C.3   310  THR310      0.2028
     87  C         22.1050   14.0610  -28.1850 C.2   310  THR310      0.2642
     88  O         21.4480   13.6270  -29.1340 O.2   310  THR310     -0.2714
     89  CB        23.3210   12.8160  -26.4150 C.3   310  THR310      0.1808
     90  OG1       24.3030   13.8460  -26.2400 O.3   310  THR310     -0.2208
     91  CG2       23.8010   11.8470  -27.5030 C.3   310  THR310      0.0379
     92  N         22.9550   15.0700  -28.2850 N.am  311  GLN311     -0.1976
     93  CA        23.2520   15.6720  -29.5670 C.3   311  GLN311      0.1601
     94  C         24.7680   15.8200  -29.7120 C.2   311  GLN311      0.2287
     95  O         25.4590   16.2010  -28.7690 O.2   311  GLN311     -0.2864
     96  CB        22.5210   17.0130  -29.7010 C.3   311  GLN311      0.0394
     97  CG        20.9800   16.9030  -29.5610 C.3   311  GLN311      0.0908
     98  CD        20.4870   16.9460  -28.1060 C.2   311  GLN311      0.2608
     99  OE1       20.8860   17.8240  -27.3290 O.2   311  GLN311     -0.2717
    100  NE2       19.6160   15.9940  -27.7330 N.am  311  GLN311     -0.0878
@<TRIPOS>BOND
     1    16    15    2
     2    15    14    1
     3    13    14    1
     4    14    17    1
     5    17    18    1
     6     7     1    1
     7     7     6    1
     8     1     2    1
     9    18    19    1
    10     6     5    1
    11     2     3    1
    12     2     5    1
    13    19    20    1
    14     3     4    2
    15    20    21    2
    16     8     9    1
    17    21    22    1
    18    21    23    1
    19    10     9    1
    20    10    11    2
    21     9    12    1
    22    24    25    1
    23    29    28    1
    24    94    93    1
    25    94    95    2
    26    96    93    1
    27    96    97    1
    28    28    25    1
    29    93    92    1
    30    97    98    1
    31    27    26    2
    32    88    87    2
    33    25    26    1
    34    92    87   am
    35    87    86    1
    36    98   100   am
    37    98    99    2
    38    91    89    1
    39    40    38    1
    40    86    85    1
    41    86    89    1
    42    85    82   am
    43    35    34    1
    44    35    36    1
    45    38    39    1
    46    38    37    2
    47    89    90    1
    48    84    81    1
    49    37    36    1
    50    34    31    1
    51    30    31    1
    52    81    82    1
    53    81    80    1
    54    82    83    2
    55    78    77    2
    56    31    32    1
    57    33    32    2
    58    80    77   am
    59    77    76    1
    60    44    43    2
    61    41    42    1
    62    43    42    1
    63    43    45   am
    64    45    46    1
    65    46    47    1
    66    75    76    1
    67    75    69   am
    68    76    79    1
    69    71    68    1
    70    71    72    1
    71    68    69    1
    72    68    67    1
    73    69    70    2
    74    74    72   am
    75    52    51    2
    76    49    47   am
    77    49    50    1
    78    47    48    2
    79    72    73    2
    80    51    50    1
    81    51    53   am
    82    54    53    1
    83    54    55    1
    84    60    59    2
    85    57    55   am
    86    57    58    1
    87    64    66   ar
    88    64    62   ar
    89    55    56    2
    90    66    65   ar
    91    59    58    1
    92    58    61    1
    93    62    61    1
    94    62    63   ar
    95    65    63   ar
