@<TRIPOS>MOLECULE
tmp/5xspA00.pdb
 77 70 0 0 0
SMALL
GASTEIGER

@<TRIPOS>ATOM
      1  N          0.5640    6.8980  -22.7370 N.3   182  ARG182     -0.1245
      2  CA         0.9150    6.1480  -23.9300 C.3   182  ARG182      0.1563
      3  C          0.0530    4.9100  -24.0110 C.2   182  ARG182      0.2260
      4  O          0.5400    3.8010  -24.0950 O.2   182  ARG182     -0.2867
      5  CB         2.3890    5.7800  -23.9530 C.3   182  ARG182      0.0307
      6  CG         3.2860    6.9800  -24.0240 C.3   182  ARG182      0.0489
      7  CD         4.6310    6.6450  -24.5770 C.3   182  ARG182      0.2205
      8  NE         5.1610    7.7620  -25.3340 N.pl3 182  ARG182     -0.0865
      9  CZ         5.1670    7.8230  -26.6550 C.cat 182  ARG182      0.5346
     10  NH1        5.6720    8.8810  -27.2620 N.pl3 182  ARG182      0.1354
     11  NH2        4.6760    6.8240  -27.3670 N.pl3 182  ARG182      0.1354
     12  N         13.4420   15.7190  -35.3330 N.3   250  PRO250     -0.2102
     13  CA        13.7430   15.2140  -33.9830 C.3   250  PRO250      0.1504
     14  C         12.6180   14.3630  -33.4000 C.2   250  PRO250      0.2575
     15  O         12.8790   13.3860  -32.7010 O.2   250  PRO250     -0.2718
     16  CB        13.9130   16.4980  -33.1410 C.3   250  PRO250      0.0282
     17  CG        14.3320   17.5410  -34.1250 C.3   250  PRO250      0.0208
     18  CD        13.7180   17.1620  -35.4610 C.3   250  PRO250      0.0893
     19  N         11.3740   14.7370  -33.6680 N.am  251  VAL251     -0.1980
     20  CA        10.2560   13.9540  -33.1700 C.3   251  VAL251      0.1595
     21  C         10.2020   12.6140  -33.8830 C.2   251  VAL251      0.2287
     22  O          9.8600   11.6090  -33.2910 O.2   251  VAL251     -0.2864
     23  CB         8.9120   14.6800  -33.3580 C.3   251  VAL251      0.0276
     24  CG1        7.7650   13.7780  -32.9320 C.3   251  VAL251      0.0022
     25  CG2        8.8990   15.9700  -32.5610 C.3   251  VAL251      0.0022
     26  N         12.7190   10.3850  -32.2670 N.3   254  ALA254     -0.1231
     27  CA        12.1790    9.9280  -30.9930 C.3   254  ALA254      0.1694
     28  C         11.1530    8.8060  -31.1770 C.2   254  ALA254      0.2591
     29  O         11.2120    7.7820  -30.4980 O.2   254  ALA254     -0.2718
     30  CB        11.5680   11.1080  -30.2160 C.3   254  ALA254      0.0304
     31  N         10.2260    8.9960  -32.1110 N.am  255  GLN255     -0.1979
     32  CA         9.1800    8.0010  -32.3740 C.3   255  GLN255      0.1601
     33  C          9.7560    6.6790  -32.8650 C.2   255  GLN255      0.2287
     34  O          9.3470    5.6100  -32.4110 O.2   255  GLN255     -0.2864
     35  CB         8.1420    8.5580  -33.3630 C.3   255  GLN255      0.0394
     36  CG         7.1980    9.5420  -32.7020 C.3   255  GLN255      0.0908
     37  CD         6.3980   10.3690  -33.6920 C.2   255  GLN255      0.2608
     38  OE1        6.5480   10.2220  -34.9050 O.2   255  GLN255     -0.2717
     39  NE2        5.5500   11.2560  -33.1750 N.am  255  GLN255     -0.0878
     40  N         10.9650    4.8720  -29.9350 N.3   258  ASP258     -0.1239
     41  CA         9.8250    4.3320  -29.2010 C.3   258  ASP258      0.1674
     42  C          9.3340    3.0200  -29.8200 C.2   258  ASP258      0.2266
     43  O          9.1590    2.0180  -29.1220 O.2   258  ASP258     -0.2867
     44  CB         8.6870    5.3490  -29.1770 C.3   258  ASP258      0.1410
     45  CG         8.9540    6.4960  -28.2350 C.2   258  ASP258      0.3668
     46  OD1        9.6140    6.2690  -27.1980 O.co2 258  ASP258     -0.2456
     47  OD2        8.5080    7.6220  -28.5250 O.co2 258  ASP258     -0.2456
     48  N         18.2330    9.4690  -30.0650 N.3   283  SER283     -0.1217
     49  CA        17.1970    9.2070  -29.0690 C.3   283  SER283      0.1889
     50  C         17.3310    7.7740  -28.5730 C.2   283  SER283      0.2288
     51  O         17.5170    6.8660  -29.3680 O.2   283  SER283     -0.2866
     52  CB        15.7930    9.4550  -29.6350 C.3   283  SER283      0.2089
     53  OG        15.5520   10.8440  -29.8230 O.3   283  SER283     -0.2183
     54  N         15.7470    4.6730  -25.8780 N.3   285  ARG285     -0.1245
     55  CA        14.6170    4.2130  -25.0860 C.3   285  ARG285      0.1563
     56  C         14.9020    2.8240  -24.5410 C.2   285  ARG285      0.2260
     57  O         15.7250    2.0830  -25.0850 O.2   285  ARG285     -0.2867
     58  CB        13.3550    4.1840  -25.9520 C.3   285  ARG285      0.0307
     59  CG        13.0270    5.5070  -26.6090 C.3   285  ARG285      0.0489
     60  CD        12.5250    6.5090  -25.5770 C.3   285  ARG285      0.2205
     61  NE        12.0070    7.7160  -26.2070 N.pl3 285  ARG285     -0.0865
     62  CZ        12.7360    8.7860  -26.5100 C.cat 285  ARG285      0.5346
     63  NH1       14.0320    8.8250  -26.2310 N.pl3 285  ARG285      0.1354
     64  NH2       12.1630    9.8320  -27.0800 N.pl3 285  ARG285      0.1354
     65  N         14.1800    6.7020  -21.1380 N.3   307  ASN307     -0.1240
     66  CA        14.1600    7.5850  -22.2870 C.3   307  ASN307      0.1653
     67  C         15.1470    8.7350  -22.1360 C.2   307  ASN307      0.2266
     68  O         15.0430    9.5590  -21.2260 O.2   307  ASN307     -0.2867
     69  CB        12.7420    8.1110  -22.5470 C.3   307  ASN307      0.1155
     70  CG        12.2760    9.0890  -21.4830 C.2   307  ASN307      0.2627
     71  OD1       11.9510    8.6920  -20.3650 O.2   307  ASN307     -0.2716
     72  ND2       12.2400   10.3730  -21.8260 N.am  307  ASN307     -0.0877
     73  N         18.3870   11.2120  -24.4750 N.3   309  ALA309     -0.1245
     74  CA        18.8140   11.7260  -25.7660 C.3   309  ALA309      0.1562
     75  C         20.1320   12.4620  -25.6450 C.2   309  ALA309      0.2260
     76  O         20.5060   12.9210  -24.5660 O.2   309  ALA309     -0.2867
     77  CB        17.7520   12.6590  -26.3400 C.3   309  ALA309      0.0290
@<TRIPOS>BOND
     1    18    12    1
     2    18    17    1
     3    12    13    1
     4    38    37    2
     5    17    16    1
     6    13    14    1
     7    13    16    1
     8    21    22    2
     9    21    20    1
    10    37    39   am
    11    37    36    1
    12    19    14   am
    13    19    20    1
    14    14    15    2
    15    35    36    1
    16    35    32    1
    17    23    20    1
    18    23    24    1
    19    23    25    1
    20    33    34    2
    21    33    32    1
    22    32    31    1
    23    26    27    1
    24    31    28   am
    25    28    27    1
    26    28    29    2
    27    27    30    1
    28    48    49    1
    29    40    41    1
    30    53    52    1
    31    42    41    1
    32    42    43    2
    33    52    49    1
    34    51    50    2
    35    41    44    1
    36    44    45    1
    37    49    50    1
    38    47    45   ar
    39    45    46   ar
    40    11     9    1
    41    10     9    1
    42    64    62    1
    43     9     8    2
    44    59    58    1
    45    59    60    1
    46    62    63    1
    47    62    61    2
    48    77    74    1
    49    61    60    1
    50    58    55    1
    51    54    55    1
    52    74    75    1
    53    74    73    1
    54    75    76    2
    55     8     7    1
    56    55    56    1
    57    57    56    2
    58     7     6    1
    59     4     3    2
    60     6     5    1
    61     3     2    1
    62     5     2    1
    63     2     1    1
    64    69    66    1
    65    69    70    1
    66    66    67    1
    67    66    65    1
    68    67    68    2
    69    72    70   am
    70    70    71    2
