@<TRIPOS>MOLECULE
tmp/5xssB00.pdb
 125 119 0 0 0
SMALL
GASTEIGER

@<TRIPOS>ATOM
      1  N        -59.8170   41.3030   21.9960 N.3    11  HIS11      -0.1241
      2  CA       -59.3740   41.4320   20.6190 C.3    11  HIS11       0.1621
      3  C        -58.8580   42.8450   20.3740 C.2    11  HIS11       0.2264
      4  O        -57.7190   43.0510   19.9490 O.2    11  HIS11      -0.2867
      5  CB       -60.5290   41.1010   19.6670 C.3    11  HIS11       0.0745
      6  CG       -60.2000   41.2770   18.2190 C.ar   11  HIS11       0.0817
      7  ND1      -61.1430   41.6350   17.2800 N.ar   11  HIS11      -0.2268
      8  CD2      -59.0380   41.1190   17.5420 C.ar   11  HIS11       0.1154
      9  CE1      -60.5750   41.6990   16.0910 C.ar   11  HIS11       0.1986
     10  NE2      -59.2980   41.3860   16.2220 N.ar   11  HIS11      -0.2212
     11  N        -63.1390   48.4460   21.2010 N.3    15  ASN15      -0.1240
     12  CA       -64.2960   47.9690   20.4500 C.3    15  ASN15       0.1653
     13  C        -65.5030   47.8350   21.3950 C.2    15  ASN15       0.2266
     14  O        -65.3840   47.2600   22.4670 O.2    15  ASN15      -0.2867
     15  CB       -63.9500   46.6420   19.7620 C.3    15  ASN15       0.1155
     16  CG       -65.0350   46.1700   18.8240 C.2    15  ASN15       0.2627
     17  OD1      -66.0950   45.7530   19.2680 O.2    15  ASN15      -0.2716
     18  ND2      -64.7710   46.2250   17.5210 N.am   15  ASN15      -0.0877
     19  N        -68.1130   46.0270   21.3880 N.3    17  TYR17      -0.1227
     20  CA       -68.4470   44.6330   21.6470 C.3    17  TYR17       0.1736
     21  C        -67.6740   44.1260   22.8710 C.2    17  TYR17       0.2595
     22  O        -68.2170   43.4740   23.7850 O.2    17  TYR17      -0.2718
     23  CB       -68.1300   43.8000   20.4000 C.3    17  TYR17       0.0548
     24  CG       -68.2890   42.3210   20.5600 C.ar   17  TYR17      -0.0200
     25  CD1      -69.5000   41.6980   20.2700 C.ar   17  TYR17      -0.0009
     26  CD2      -67.2290   41.5320   21.0010 C.ar   17  TYR17      -0.0009
     27  CE1      -69.6550   40.3310   20.4120 C.ar   17  TYR17       0.0417
     28  CE2      -67.3740   40.1560   21.1450 C.ar   17  TYR17       0.0417
     29  CZ       -68.5890   39.5630   20.8510 C.ar   17  TYR17       0.1957
     30  OH       -68.7350   38.1940   20.9890 O.3    17  TYR17      -0.2866
     31  N        -66.3880   44.4540   22.8880 N.am   18  TRP18      -0.1976
     32  CA       -65.5130   44.0450   23.9710 C.3    18  TRP18       0.1640
     33  C        -65.7750   44.8650   25.2300 C.2    18  TRP18       0.2290
     34  O        -65.5650   44.3850   26.3450 O.2    18  TRP18      -0.2864
     35  CB       -64.0560   44.1430   23.5210 C.3    18  TRP18       0.0576
     36  CG       -63.7550   42.9930   22.6570 C.ar   18  TRP18       0.0006
     37  CD1      -63.7980   42.9520   21.2960 C.ar   18  TRP18       0.0946
     38  CD2      -63.4650   41.6660   23.0940 C.ar   18  TRP18       0.0152
     39  NE1      -63.5280   41.6790   20.8560 N.ar   18  TRP18      -0.2442
     40  CE2      -63.3180   40.8690   21.9420 C.ar   18  TRP18       0.0810
     41  CE3      -63.3170   41.0740   24.3500 C.ar   18  TRP18       0.0012
     42  CZ2      -63.0110   39.5060   22.0050 C.ar   18  TRP18       0.0191
     43  CZ3      -63.0050   39.7210   24.4120 C.ar   18  TRP18       0.0001
     44  CH2      -62.8580   38.9550   23.2420 C.ar   18  TRP18       0.0015
     45  N        -59.0070   36.1070   24.5200 N.3    67  TYR67      -0.1241
     46  CA       -59.3940   36.0360   23.1260 C.3    67  TYR67       0.1605
     47  C        -58.3200   35.2650   22.3620 C.2    67  TYR67       0.2264
     48  O        -57.1370   35.4000   22.6610 O.2    67  TYR67      -0.2867
     49  CB       -59.5650   37.4520   22.5660 C.3    67  TYR67       0.0534
     50  CG       -59.7510   37.5250   21.0810 C.ar   67  TYR67      -0.0201
     51  CD1      -60.9210   37.0690   20.4880 C.ar   67  TYR67      -0.0009
     52  CD2      -58.7630   38.0640   20.2690 C.ar   67  TYR67      -0.0009
     53  CE1      -61.0970   37.1370   19.1230 C.ar   67  TYR67       0.0417
     54  CE2      -58.9290   38.1410   18.9070 C.ar   67  TYR67       0.0417
     55  CZ       -60.0980   37.6810   18.3380 C.ar   67  TYR67       0.1957
     56  OH       -60.2710   37.7580   16.9790 O.3    67  TYR67      -0.2866
     57  N        -64.9730   34.2080   23.0700 N.3    92  ASP92      -0.1239
     58  CA       -65.3230   34.8110   21.7650 C.3    92  ASP92       0.1674
     59  C        -64.4390   34.4370   20.5810 C.2    92  ASP92       0.2266
     60  O        -64.6090   34.9640   19.4870 O.2    92  ASP92      -0.2867
     61  CB       -64.9620   36.3100   21.7470 C.3    92  ASP92       0.1410
     62  CG       -65.2080   36.9590   20.3780 C.2    92  ASP92       0.3668
     63  OD1      -64.2300   37.2040   19.6480 O.co2  92  ASP92      -0.2456
     64  OD2      -66.3750   37.1990   20.0240 O.co2  92  ASP92      -0.2456
     65  N        -61.9880   33.5470   14.1760 N.3   140  ASN140     -0.1225
     66  CA       -63.4410   33.4300   14.1390 C.3   140  ASN140      0.1785
     67  C        -64.0320   34.1500   12.9270 C.2   140  ASN140      0.2597
     68  O        -65.1410   33.8220   12.4890 O.2   140  ASN140     -0.2718
     69  CB       -64.0960   33.8670   15.4810 C.3   140  ASN140      0.1169
     70  CG       -63.9640   35.3530   15.8110 C.2   140  ASN140      0.2627
     71  OD1      -63.5960   36.1760   14.9840 O.2   140  ASN140     -0.2716
     72  ND2      -64.2910   35.6940   17.0690 N.am  140  ASN140     -0.0877
     73  N        -63.2730   35.0630   12.3250 N.am  141  GLN141     -0.1979
     74  CA       -63.7130   35.6610   11.0640 C.3   141  GLN141      0.1601
     75  C        -63.6600   34.6230    9.9300 C.2   141  GLN141      0.2287
     76  O        -64.6220   34.4520    9.1640 O.2   141  GLN141     -0.2864
     77  CB       -62.8660   36.8780   10.7270 C.3   141  GLN141      0.0394
     78  CG       -62.9940   37.9840   11.7880 C.3   141  GLN141      0.0908
     79  CD       -64.4340   38.4500   11.9240 C.2   141  GLN141      0.2608
     80  OE1      -64.9400   39.2010   11.0790 O.2   141  GLN141     -0.2717
     81  NE2      -65.1040   38.0000   12.9760 N.am  141  GLN141     -0.0878
     82  N        -66.4380   32.1070   10.4150 N.3   144  ARG144     -0.1245
     83  CA       -67.7450   32.6090    9.9930 C.3   144  ARG144      0.1563
     84  C        -67.8950   32.6620    8.4680 C.2   144  ARG144      0.2260
     85  O        -68.9480   32.2860    7.9150 O.2   144  ARG144     -0.2867
     86  CB       -68.0060   33.9870   10.6220 C.3   144  ARG144      0.0307
     87  CG       -68.8000   33.8880   11.9290 C.3   144  ARG144      0.0489
     88  CD       -68.0630   34.3570   13.1730 C.3   144  ARG144      0.2205
     89  NE       -68.2230   35.7830   13.3910 N.pl3 144  ARG144     -0.0865
     90  CZ       -68.0840   36.4200   14.5600 C.cat 144  ARG144      0.5346
     91  NH1      -67.7870   35.7790   15.6800 N.pl3 144  ARG144      0.1354
     92  NH2      -68.2470   37.7340   14.6010 N.pl3 144  ARG144      0.1354
     93  N        -61.5590   44.9960   11.5100 N.3   168  ALA168     -0.1245
     94  CA       -62.5240   45.2100   12.5840 C.3   168  ALA168      0.1562
     95  C        -62.6160   46.6730   13.0370 C.2   168  ALA168      0.2260
     96  O        -63.1380   46.9530   14.1120 O.2   168  ALA168     -0.2867
     97  CB       -62.2030   44.2910   13.7820 C.3   168  ALA168      0.0290
     98  N        -67.8100   41.1720   11.4920 N.3   194  SER194     -0.1202
     99  CA       -67.4750   41.6350   12.8440 C.3   194  SER194      0.2020
    100  C        -68.2920   42.8600   13.2350 C.2   194  SER194      0.2618
    101  O        -68.8550   43.5240   12.3730 O.2   194  SER194     -0.2717
    102  CB       -65.9650   41.9330   12.9880 C.3   194  SER194      0.2103
    103  OG       -65.6200   43.2230   12.5150 O.3   194  SER194     -0.2182
    104  N        -68.3240   43.1640   14.5350 N.am  195  ALA195     -0.1979
    105  CA       -69.3070   44.0920   15.0970 C.3   195  ALA195      0.1597
    106  C        -69.3470   45.4800   14.4240 C.2   195  ALA195      0.2287
    107  O        -70.4270   46.0210   14.2060 O.2   195  ALA195     -0.2864
    108  CB       -69.0740   44.2440   16.5980 C.3   195  ALA195      0.0319
    109  N        -73.7970   41.2540   15.3490 N.3   220  ASP220     -0.1239
    110  CA       -73.9180   41.8710   16.6750 C.3   220  ASP220      0.1674
    111  C        -74.9700   42.9730   16.7970 C.2   220  ASP220      0.2266
    112  O        -75.4270   43.5280   15.8070 O.2   220  ASP220     -0.2867
    113  CB       -72.5330   42.3730   17.1310 C.3   220  ASP220      0.1410
    114  CG       -71.4980   41.2500   17.1020 C.2   220  ASP220      0.3668
    115  OD1      -71.7290   40.2100   17.7660 O.co2 220  ASP220     -0.2456
    116  OD2      -70.5070   41.3630   16.3550 O.co2 220  ASP220     -0.2456
    117  N        -74.8020   37.9410   19.1400 N.3   240  GLN240     -0.1245
    118  CA       -74.1050   37.1630   20.1540 C.3   240  GLN240      0.1566
    119  C        -74.4050   37.7600   21.5230 C.2   240  GLN240      0.2260
    120  O        -74.7320   38.9380   21.6310 O.2   240  GLN240     -0.2867
    121  CB       -72.5970   37.1640   19.9200 C.3   240  GLN240      0.0367
    122  CG       -72.1530   36.9300   18.4890 C.3   240  GLN240      0.0905
    123  CD       -70.6480   36.8370   18.3900 C.2   240  GLN240      0.2608
    124  OE1      -70.0460   35.8220   18.7740 O.2   240  GLN240     -0.2717
    125  NE2      -70.0220   37.9080   17.9030 N.am  240  GLN240     -0.0878
@<TRIPOS>BOND
     1    85    84    2
     2    84    83    1
     3    76    75    2
     4    75    74    1
     5    83    82    1
     6    83    86    1
     7    86    87    1
     8    77    74    1
     9    77    78    1
    10    74    73    1
    11    80    79    2
    12    98    99    1
    13    93    94    1
    14    78    79    1
    15    79    81   am
    16    87    88    1
    17    73    67   am
    18   101   100    2
    19    68    67    2
    20   103   102    1
    21    94    95    1
    22    94    97    1
    23    99   102    1
    24    99   100    1
    25    67    66    1
    26    95    96    2
    27    88    89    1
    28   100   104   am
    29    89    90    2
    30    66    65    1
    31    66    69    1
    32   107   106    2
    33   106   105    1
    34   104   105    1
    35    90    92    1
    36    90    91    1
    37    71    70    2
    38   105   108    1
    39   109   110    1
    40    69    70    1
    41   112   111    2
    42    70    72   am
    43     9    10   ar
    44     9     7   ar
    45    10     8   ar
    46   116   114   ar
    47   110   111    1
    48   110   113    1
    49    56    55    1
    50   114   113    1
    51   114   115   ar
    52     7     6   ar
    53    18    16   am
    54     8     6   ar
    55   125   123   am
    56     6     5    1
    57    55    54   ar
    58    55    53   ar
    59   123   122    1
    60   123   124    2
    61   122   121    1
    62    16    17    2
    63    16    15    1
    64    54    52   ar
    65    53    51   ar
    66   117   118    1
    67    60    59    2
    68    63    62   ar
    69     5     2    1
    70    15    12    1
    71   121   118    1
    72     4     3    2
    73    64    62   ar
    74   118   119    1
    75    52    50   ar
    76    25    27   ar
    77    25    24   ar
    78     3     2    1
    79    62    61    1
    80    23    24    1
    81    23    20    1
    82    27    29   ar
    83    12    11    1
    84    12    13    1
    85    51    50   ar
    86    24    26   ar
    87    59    58    1
    88     2     1    1
    89    29    30    1
    90    29    28   ar
    91    39    37   ar
    92    39    40   ar
    93    26    28   ar
    94    50    49    1
    95    37    36   ar
    96    19    20    1
    97    13    14    2
    98   119   120    2
    99    20    21    1
   100    61    58    1
   101    58    57    1
   102    40    42   ar
   103    40    38   ar
   104    42    44   ar
   105    47    48    2
   106    47    46    1
   107    49    46    1
   108    36    38   ar
   109    36    35    1
   110    21    31   am
   111    21    22    2
   112    31    32    1
   113    38    41   ar
   114    46    45    1
   115    44    43   ar
   116    35    32    1
   117    32    33    1
   118    41    43   ar
   119    33    34    2
