@<TRIPOS>MOLECULE
tmp/5xstA00.pdb
 132 128 0 0 0
SMALL
GASTEIGER

@<TRIPOS>ATOM
      1  N         33.6110  -14.6850  -32.6270 N.3    99  GLN99      -0.1245
      2  CA        32.8600  -14.7270  -31.3800 C.3    99  GLN99       0.1566
      3  C         33.5160  -15.6650  -30.3650 C.2    99  GLN99       0.2260
      4  O         33.6150  -15.3230  -29.1780 O.2    99  GLN99      -0.2867
      5  CB        31.4160  -15.1380  -31.6720 C.3    99  GLN99       0.0367
      6  CG        30.4810  -15.0290  -30.5050 C.3    99  GLN99       0.0905
      7  CD        29.0390  -15.3470  -30.8740 C.2    99  GLN99       0.2608
      8  OE1       28.6420  -15.2810  -32.0490 O.2    99  GLN99      -0.2717
      9  NE2       28.2450  -15.7000  -29.8640 N.am   99  GLN99      -0.0878
     10  N         36.4290  -13.9760  -28.8780 N.3   102  ALA102     -0.1231
     11  CA        35.9900  -12.9260  -27.9650 C.3   102  ALA102      0.1694
     12  C         35.5650  -13.5200  -26.6270 C.2   102  ALA102      0.2591
     13  O         35.9370  -13.0120  -25.5590 O.2   102  ALA102     -0.2718
     14  CB        34.8440  -12.1310  -28.5950 C.3   102  ALA102      0.0304
     15  N         34.7740  -14.5970  -26.6700 N.am  103  GLU103     -0.1979
     16  CA        34.4240  -15.3040  -25.4430 C.3   103  GLU103      0.1602
     17  C         35.6750  -15.7220  -24.6830 C.2   103  GLU103      0.2287
     18  O         35.7460  -15.5590  -23.4580 O.2   103  GLU103     -0.2864
     19  CB        33.5190  -16.5040  -25.7660 C.3   103  GLU103      0.0415
     20  CG        32.0470  -16.0830  -25.9020 C.3   103  GLU103      0.1163
     21  CD        31.2600  -16.7550  -27.0300 C.2   103  GLU103      0.3649
     22  OE1       30.1550  -16.2320  -27.3330 O.co2 103  GLU103     -0.2457
     23  OE2       31.7240  -17.7810  -27.5930 O.co2 103  GLU103     -0.2457
     24  N         37.0460  -12.5450  -22.8620 N.3   106  ASP106     -0.1239
     25  CA        36.1980  -12.3440  -21.6850 C.3   106  ASP106      0.1674
     26  C         36.6510  -13.2560  -20.5450 C.2   106  ASP106      0.2266
     27  O         36.9360  -12.8030  -19.4310 O.2   106  ASP106     -0.2867
     28  CB        34.7250  -12.6590  -22.0020 C.3   106  ASP106      0.1410
     29  CG        34.0970  -11.7300  -23.0220 C.2   106  ASP106      0.3668
     30  OD1       34.7530  -10.7830  -23.5030 O.co2 106  ASP106     -0.2456
     31  OD2       32.9240  -11.9900  -23.3800 O.co2 106  ASP106     -0.2456
     32  N         21.2040  -15.2330  -14.8930 N.3   202  HIS202     -0.1226
     33  CA        22.3920  -14.8910  -15.6790 C.3   202  HIS202      0.1752
     34  C         23.4480  -15.9650  -15.4520 C.2   202  HIS202      0.2596
     35  O         24.0060  -16.0570  -14.3540 O.2   202  HIS202     -0.2718
     36  CB        22.9550  -13.5200  -15.3130 C.3   202  HIS202      0.0759
     37  CG        24.1720  -13.1580  -16.1060 C.ar  202  HIS202      0.0818
     38  ND1       24.1080  -12.4520  -17.2920 N.ar  202  HIS202     -0.2268
     39  CD2       25.4810  -13.4550  -15.9170 C.ar  202  HIS202      0.1154
     40  CE1       25.3250  -12.3180  -17.7900 C.ar  202  HIS202      0.1986
     41  NE2       26.1760  -12.9240  -16.9800 N.ar  202  HIS202     -0.2212
     42  N         23.7520  -16.7420  -16.4850 N.am  203  GLY203     -0.1957
     43  CA        24.7820  -17.7660  -16.3820 C.3   203  GLY203      0.1869
     44  C         26.1380  -17.2520  -16.8410 C.2   203  GLY203      0.2309
     45  O         26.2350  -16.3120  -17.6370 O.2   203  GLY203     -0.2863
     46  N         29.7430   -8.9450  -32.2800 N.3   227  THR227     -0.1203
     47  CA        29.2690  -10.2440  -32.7640 C.3   227  THR227      0.1994
     48  C         28.7840  -11.1400  -31.6290 C.2   227  THR227      0.2618
     49  O         29.5120  -11.4030  -30.6650 O.2   227  THR227     -0.2717
     50  CB        30.3800  -10.9730  -33.5160 C.3   227  THR227      0.1784
     51  OG1       31.1580  -10.0420  -34.2710 O.3   227  THR227     -0.2211
     52  CG2       29.7900  -12.0460  -34.4380 C.3   227  THR227      0.0376
     53  N         27.5600  -11.6450  -31.7700 N.am  228  GLY228     -0.1942
     54  CA        26.9760  -12.5100  -30.7760 C.3   228  GLY228      0.2014
     55  C         26.1920  -11.8020  -29.6930 C.2   228  GLY228      0.2638
     56  O         25.5450  -12.4730  -28.8830 O.2   228  GLY228     -0.2714
     57  N         26.2410  -10.4720  -29.6360 N.am  229  TYR229     -0.1973
     58  CA        25.3470   -9.7070  -28.7680 C.3   229  TYR229      0.1639
     59  C         24.1410   -9.3410  -29.6150 C.2   229  TYR229      0.2290
     60  O         24.1320   -8.3360  -30.3240 O.2   229  TYR229     -0.2864
     61  CB        26.0440   -8.4830  -28.2020 C.3   229  TYR229      0.0560
     62  CG        27.0760   -8.8050  -27.1410 C.ar  229  TYR229     -0.0198
     63  CD1       26.7090   -9.3310  -25.9050 C.ar  229  TYR229     -0.0009
     64  CD2       28.4240   -8.5910  -27.3880 C.ar  229  TYR229     -0.0009
     65  CE1       27.6820   -9.6000  -24.9240 C.ar  229  TYR229      0.0417
     66  CE2       29.3840   -8.8650  -26.4460 C.ar  229  TYR229      0.0417
     67  CZ        29.0210   -9.3640  -25.2190 C.ar  229  TYR229      0.1957
     68  OH        30.0220   -9.6230  -24.3080 O.3   229  TYR229     -0.2866
     69  N         22.8650   -9.2350  -20.0350 N.3   236  TYR236     -0.1227
     70  CA        21.8010  -10.0690  -20.5770 C.3   236  TYR236      0.1736
     71  C         21.2120  -10.9600  -19.4940 C.2   236  TYR236      0.2595
     72  O         21.9450  -11.4940  -18.6600 O.2   236  TYR236     -0.2718
     73  CB        22.3300  -10.9260  -21.7320 C.3   236  TYR236      0.0548
     74  CG        22.4630  -10.1830  -23.0420 C.ar  236  TYR236     -0.0200
     75  CD1       23.3740   -9.1400  -23.1930 C.ar  236  TYR236     -0.0009
     76  CD2       21.6810  -10.5340  -24.1370 C.ar  236  TYR236     -0.0009
     77  CE1       23.4890   -8.4620  -24.4140 C.ar  236  TYR236      0.0417
     78  CE2       21.8000   -9.8890  -25.3380 C.ar  236  TYR236      0.0417
     79  CZ        22.7020   -8.8530  -25.4740 C.ar  236  TYR236      0.1957
     80  OH        22.7890   -8.2090  -26.6860 O.3   236  TYR236     -0.2866
     81  N         19.8920  -11.1510  -19.5320 N.am  237  PHE237     -0.1962
     82  CA        19.2130  -12.0180  -18.5720 C.3   237  PHE237      0.1771
     83  C         18.1300  -12.8190  -19.2710 C.2   237  PHE237      0.2619
     84  O         17.6110  -12.4100  -20.3130 O.2   237  PHE237     -0.2715
     85  CB        18.5590  -11.2260  -17.4270 C.3   237  PHE237      0.0574
     86  CG        19.5360  -10.4650  -16.5850 C.ar  237  PHE237     -0.0200
     87  CD1       19.9820   -9.2130  -16.9870 C.ar  237  PHE237     -0.0042
     88  CD2       20.0030  -10.9950  -15.3880 C.ar  237  PHE237     -0.0042
     89  CE1       20.8760   -8.4940  -16.2020 C.ar  237  PHE237     -0.0003
     90  CE2       20.9040  -10.2900  -14.6040 C.ar  237  PHE237     -0.0003
     91  CZ        21.3500   -9.0530  -15.0090 C.ar  237  PHE237     -0.0000
     92  N         17.7640  -13.9520  -18.6560 N.am  238  ALA238     -0.1977
     93  CA        16.6930  -14.8070  -19.1480 C.3   238  ALA238      0.1597
     94  C         15.6870  -15.0650  -18.0290 C.2   238  ALA238      0.2287
     95  O         16.0060  -14.9510  -16.8430 O.2   238  ALA238     -0.2864
     96  CB        17.2490  -16.1440  -19.6730 C.3   238  ALA238      0.0319
     97  N         17.9380  -21.3090  -20.6250 N.3   243  LYS243     -0.1231
     98  CA        18.5860  -20.3600  -21.5210 C.3   243  LYS243      0.1693
     99  C         19.8830  -19.8430  -20.9090 C.2   243  LYS243      0.2592
    100  O         20.9290  -19.8370  -21.5620 O.2   243  LYS243     -0.2718
    101  CB        17.6450  -19.2000  -21.8510 C.3   243  LYS243      0.0285
    102  CG        18.2040  -18.2970  -22.9520 C.3   243  LYS243      0.0035
    103  CD        17.1240  -17.4240  -23.5980 C.3   243  LYS243      0.0206
    104  CE        17.6720  -16.6700  -24.8200 C.3   243  LYS243      0.1093
    105  NZ        16.5860  -16.0900  -25.6900 N.3   243  LYS243     -0.1314
    106  N         19.8320  -19.4030  -19.6470 N.am  244  SER244     -0.1952
    107  CA        21.0300  -18.8490  -19.0350 C.3   244  SER244      0.1924
    108  C         22.0360  -19.9400  -18.7120 C.2   244  SER244      0.2314
    109  O         23.2450  -19.6970  -18.7760 O.2   244  SER244     -0.2863
    110  CB        20.6680  -18.0730  -17.7790 C.3   244  SER244      0.2116
    111  OG        20.2730  -16.7520  -18.1080 O.3   244  SER244     -0.2180
    112  N         24.9330  -20.6240  -20.8420 N.3   247  TYR247     -0.1241
    113  CA        26.1000  -19.7600  -20.7400 C.3   247  TYR247      0.1605
    114  C         27.0210  -20.1430  -19.5790 C.2   247  TYR247      0.2264
    115  O         28.0430  -19.4830  -19.3780 O.2   247  TYR247     -0.2867
    116  CB        25.6530  -18.2970  -20.6490 C.3   247  TYR247      0.0534
    117  CG        25.0200  -17.8280  -21.9570 C.ar  247  TYR247     -0.0201
    118  CD1       23.6620  -18.0070  -22.1920 C.ar  247  TYR247     -0.0009
    119  CD2       25.7920  -17.2670  -22.9770 C.ar  247  TYR247     -0.0009
    120  CE1       23.0710  -17.5980  -23.3840 C.ar  247  TYR247      0.0417
    121  CE2       25.2060  -16.8560  -24.1840 C.ar  247  TYR247      0.0417
    122  CZ        23.8500  -17.0350  -24.3740 C.ar  247  TYR247      0.1957
    123  OH        23.2540  -16.6500  -25.5390 O.3   247  TYR247     -0.2866
    124  N         14.6160  -12.7340  -23.8040 N.3   328  GLU328     -0.1245
    125  CA        15.8230  -12.2080  -23.1750 C.3   328  GLU328      0.1567
    126  C         15.5280  -10.7780  -22.7340 C.2   328  GLU328      0.2260
    127  O         14.7080  -10.0880  -23.3380 O.2   328  GLU328     -0.2867
    128  CB        17.0560  -12.1710  -24.1120 C.3   328  GLU328      0.0388
    129  CG        17.0510  -13.0900  -25.3040 C.3   328  GLU328      0.1160
    130  CD        18.3470  -13.0310  -26.1230 C.2   328  GLU328      0.3649
    131  OE1       18.7190  -14.0730  -26.7060 O.co2 328  GLU328     -0.2457
    132  OE2       18.9810  -11.9560  -26.2000 O.co2 328  GLU328     -0.2457
@<TRIPOS>BOND
     1    52    50    1
     2    51    50    1
     3    50    47    1
     4    47    46    1
     5    47    48    1
     6     1     2    1
     7     8     7    2
     8    53    48   am
     9    53    54    1
    10     5     2    1
    11     5     6    1
    12    48    49    2
    13     2     3    1
    14     7     6    1
    15     7     9   am
    16    54    55    1
    17     3     4    2
    18    60    59    2
    19    55    57   am
    20    55    56    2
    21    57    58    1
    22    59    58    1
    23    10    11    1
    24    58    61    1
    25    14    11    1
    26    61    62    1
    27    11    12    1
    28    23    21   ar
    29    64    62   ar
    30    64    66   ar
    31    22    21   ar
    32    62    63   ar
    33    21    20    1
    34   131   130   ar
    35    80    79    1
    36    15    12   am
    37    15    16    1
    38    12    13    2
    39    66    67   ar
    40   132   130   ar
    41   130   129    1
    42    63    65   ar
    43    20    19    1
    44    19    16    1
    45   105   104    1
    46   123   122    1
    47    79    78   ar
    48    79    77   ar
    49    16    17    1
    50    78    76   ar
    51   129   128    1
    52    67    65   ar
    53    67    68    1
    54   104   103    1
    55    17    18    2
    56    77    75   ar
    57   122   121   ar
    58   122   120   ar
    59   121   119   ar
    60    76    74   ar
    61   128   125    1
    62   124   125    1
    63   103   102    1
    64    30    29   ar
    65   120   118   ar
    66    31    29   ar
    67   127   126    2
    68    75    74   ar
    69   125   126    1
    70    74    73    1
    71    29    28    1
    72   119   117   ar
    73   102   101    1
    74    24    25    1
    75   118   117   ar
    76    28    25    1
    77   117   116    1
    78   101    98    1
    79    73    70    1
    80    25    26    1
    81   100    99    2
    82    98    99    1
    83    98    97    1
    84    99   106   am
    85   112   113    1
    86   113   116    1
    87   113   114    1
    88    70    69    1
    89    70    71    1
    90    26    27    2
    91    84    83    2
    92    96    93    1
    93   106   107    1
    94   114   115    2
    95    81    71   am
    96    81    82    1
    97    71    72    2
    98    83    92   am
    99    83    82    1
   100    93    92    1
   101    93    94    1
   102   107   108    1
   103   107   110    1
   104   109   108    2
   105    82    85    1
   106   111   110    1
   107    94    95    2
   108    40    38   ar
   109    40    41   ar
   110    45    44    2
   111    85    86    1
   112    38    37   ar
   113    87    86   ar
   114    87    89   ar
   115    41    39   ar
   116    44    43    1
   117    86    88   ar
   118    42    43    1
   119    42    34   am
   120    89    91   ar
   121    37    39   ar
   122    37    36    1
   123    33    34    1
   124    33    36    1
   125    33    32    1
   126    34    35    2
   127    88    90   ar
   128    91    90   ar
