@<TRIPOS>MOLECULE
tmp/5xsuA00.pdb
 133 129 0 0 0
SMALL
GASTEIGER

@<TRIPOS>ATOM
      1  N        -43.7570   27.9830  -33.4830 N.3    98  GLN98      -0.1245
      2  CA       -42.6270   27.2910  -32.8830 C.3    98  GLN98       0.1566
      3  C        -42.0350   26.2550  -33.8440 C.2    98  GLN98       0.2260
      4  O        -40.8130   26.0700  -33.8950 O.2    98  GLN98      -0.2867
      5  CB       -43.0800   26.6510  -31.5660 C.3    98  GLN98       0.0367
      6  CG       -42.0100   25.8940  -30.7680 C.3    98  GLN98       0.0905
      7  CD       -42.6210   24.8610  -29.8140 C.2    98  GLN98       0.2608
      8  OE1      -43.6090   25.1350  -29.1310 O.2    98  GLN98      -0.2717
      9  NE2      -42.0320   23.6760  -29.7680 N.am   98  GLN98      -0.0878
     10  N        -39.9970   28.1040  -36.3280 N.3   101  ALA101     -0.1231
     11  CA       -38.8120   28.6490  -35.6670 C.3   101  ALA101      0.1694
     12  C        -37.7650   27.5680  -35.4160 C.2   101  ALA101      0.2591
     13  O        -36.5750   27.7830  -35.6560 O.2   101  ALA101     -0.2718
     14  CB       -39.2060   29.3190  -34.3480 C.3   101  ALA101      0.0304
     15  N        -38.1910   26.4000  -34.9390 N.am  102  GLU102     -0.1979
     16  CA       -37.2620   25.2910  -34.7390 C.3   102  GLU102      0.1602
     17  C        -36.6400   24.8800  -36.0610 C.2   102  GLU102      0.2287
     18  O        -35.4500   24.5570  -36.1230 O.2   102  GLU102     -0.2864
     19  CB       -37.9920   24.1030  -34.0800 C.3   102  GLU102      0.0415
     20  CG       -37.8620   24.0570  -32.5480 C.3   102  GLU102      0.1163
     21  CD       -39.0590   23.4480  -31.7960 C.2   102  GLU102      0.3649
     22  OE1      -39.3560   23.9580  -30.6930 O.co2 102  GLU102     -0.2457
     23  OE2      -39.6980   22.4910  -32.2870 O.co2 102  GLU102     -0.2457
     24  N        -34.0070   27.3950  -37.0410 N.3   105  ASP105     -0.1239
     25  CA       -32.7600   27.1880  -36.3150 C.3   105  ASP105      0.1674
     26  C        -31.9360   26.1130  -36.9930 C.2   105  ASP105      0.2266
     27  O        -30.7400   26.2890  -37.2300 O.2   105  ASP105     -0.2867
     28  CB       -33.0130   26.8190  -34.8530 C.3   105  ASP105      0.1410
     29  CG       -31.7290   26.8720  -34.0260 C.2   105  ASP105      0.3668
     30  OD1      -30.7310   27.4010  -34.5520 O.co2 105  ASP105     -0.2456
     31  OD2      -31.6860   26.3610  -32.8850 O.co2 105  ASP105     -0.2456
     32  N        -26.5720   17.1190  -24.0520 N.3   198  HIS198     -0.1226
     33  CA       -27.2900   17.9800  -24.9780 C.3   198  HIS198      0.1752
     34  C        -27.3260   17.2630  -26.3150 C.2   198  HIS198      0.2596
     35  O        -26.2670   17.0010  -26.9060 O.2   198  HIS198     -0.2718
     36  CB       -26.6360   19.3550  -25.1230 C.3   198  HIS198      0.0759
     37  CG       -27.3540   20.2600  -26.0810 C.ar  198  HIS198      0.0818
     38  ND1      -28.3750   21.1070  -25.6930 N.ar  198  HIS198     -0.2268
     39  CD2      -27.1980   20.4450  -27.4180 C.ar  198  HIS198      0.1154
     40  CE1      -28.7920   21.7940  -26.7430 C.ar  198  HIS198      0.1986
     41  NE2      -28.1020   21.4050  -27.8020 N.ar  198  HIS198     -0.2212
     42  N        -28.5480   16.9240  -26.7670 N.am  199  GLY199     -0.1957
     43  CA       -28.7520   16.3040  -28.0540 C.3   199  GLY199      0.1869
     44  C        -29.1440   17.3530  -29.0740 C.2   199  GLY199      0.2309
     45  O        -29.6220   18.4320  -28.7210 O.2   199  GLY199     -0.2863
     46  N        -42.5450   29.2680  -27.2020 N.3   224  GLY224     -0.1210
     47  CA       -41.9890   27.9350  -27.3930 C.3   224  GLY224      0.1956
     48  C        -40.8870   27.4540  -26.4610 C.2   224  GLY224      0.2612
     49  O        -40.4890   26.2920  -26.5660 O.2   224  GLY224     -0.2717
     50  N        -40.3790   28.2790  -25.5650 N.am  225  TYR225     -0.1962
     51  CA       -39.3360   27.8680  -24.6270 C.3   225  TYR225      0.1771
     52  C        -39.9310   27.7010  -23.2340 C.2   225  TYR225      0.2619
     53  O        -40.6090   28.6070  -22.7520 O.2   225  TYR225     -0.2715
     54  CB       -38.2180   28.9040  -24.6040 C.3   225  TYR225      0.0574
     55  CG       -37.6330   29.1310  -25.9710 C.ar  225  TYR225     -0.0198
     56  CD1      -38.2630   29.9950  -26.8620 C.ar  225  TYR225     -0.0009
     57  CD2      -36.4780   28.4760  -26.3940 C.ar  225  TYR225     -0.0009
     58  CE1      -37.7640   30.2170  -28.1170 C.ar  225  TYR225      0.0417
     59  CE2      -35.9660   28.6890  -27.6740 C.ar  225  TYR225      0.0417
     60  CZ       -36.6130   29.5670  -28.5270 C.ar  225  TYR225      0.1957
     61  OH       -36.1450   29.8030  -29.8040 O.3   225  TYR225     -0.2866
     62  N        -39.7660   26.5230  -22.6230 N.am  226  MET226     -0.1977
     63  CA       -40.2450   26.3560  -21.2440 C.3   226  MET226      0.1605
     64  C        -39.5610   27.3430  -20.2920 C.2   226  MET226      0.2287
     65  O        -40.1980   27.9090  -19.3890 O.2   226  MET226     -0.2864
     66  CB       -40.0050   24.9220  -20.7700 C.3   226  MET226      0.0413
     67  CG       -40.5290   23.7970  -21.6530 C.3   226  MET226      0.0598
     68  SD       -42.2880   23.5880  -21.3250 S.3   226  MET226     -0.1393
     69  CE       -42.3310   22.6460  -19.7890 C.3   226  MET226      0.0692
     70  N        -30.0720   24.4240  -23.1750 N.3   232  TYR232     -0.1227
     71  CA       -30.7710   23.4210  -22.3800 C.3   232  TYR232      0.1736
     72  C        -29.9550   22.1330  -22.3040 C.2   232  TYR232      0.2595
     73  O        -29.3230   21.7350  -23.2860 O.2   232  TYR232     -0.2718
     74  CB       -32.1520   23.1080  -22.9810 C.3   232  TYR232      0.0548
     75  CG       -33.1600   24.2080  -22.8140 C.ar  232  TYR232     -0.0200
     76  CD1      -32.9590   25.4520  -23.4000 C.ar  232  TYR232     -0.0009
     77  CD2      -34.3280   24.0010  -22.0890 C.ar  232  TYR232     -0.0009
     78  CE1      -33.8830   26.4680  -23.2530 C.ar  232  TYR232      0.0417
     79  CE2      -35.2660   25.0120  -21.9340 C.ar  232  TYR232      0.0417
     80  CZ       -35.0350   26.2430  -22.5210 C.ar  232  TYR232      0.1957
     81  OH       -35.9590   27.2580  -22.3710 O.3   232  TYR232     -0.2866
     82  N        -29.9880   21.4840  -21.1380 N.am  233  PHE233     -0.1962
     83  CA       -29.2910   20.2290  -20.8910 C.3   233  PHE233      0.1771
     84  C        -30.1770   19.2830  -20.0910 C.2   233  PHE233      0.2619
     85  O        -31.0810   19.7120  -19.3730 O.2   233  PHE233     -0.2715
     86  CB       -27.9840   20.4510  -20.1210 C.3   233  PHE233      0.0574
     87  CG       -26.9950   21.3060  -20.8430 C.ar  233  PHE233     -0.0200
     88  CD1      -27.0460   22.6820  -20.7420 C.ar  233  PHE233     -0.0042
     89  CD2      -26.0260   20.7320  -21.6340 C.ar  233  PHE233     -0.0042
     90  CE1      -26.1410   23.4700  -21.4060 C.ar  233  PHE233     -0.0003
     91  CE2      -25.1060   21.5250  -22.3100 C.ar  233  PHE233     -0.0003
     92  CZ       -25.1610   22.8870  -22.1920 C.ar  233  PHE233     -0.0000
     93  N        -29.8930   17.9870  -20.2060 N.am  234  ALA234     -0.1977
     94  CA       -30.5260   16.9530  -19.3950 C.3   234  ALA234      0.1597
     95  C        -29.4840   16.2070  -18.5540 C.2   234  ALA234      0.2287
     96  O        -28.2810   16.2270  -18.8280 O.2   234  ALA234     -0.2864
     97  CB       -31.2790   15.9450  -20.2680 C.3   234  ALA234      0.0319
     98  N        -33.5910   11.9390  -22.6040 N.3   239  LYS239     -0.1231
     99  CA       -34.2530   13.2200  -22.8050 C.3   239  LYS239      0.1693
    100  C        -33.4890   14.0590  -23.8090 C.2   239  LYS239      0.2592
    101  O        -34.0890   14.7240  -24.6530 O.2   239  LYS239     -0.2718
    102  CB       -34.4240   13.9590  -21.4860 C.3   239  LYS239      0.0285
    103  CG       -35.1690   15.2990  -21.6120 C.3   239  LYS239      0.0035
    104  CD       -35.6170   15.8340  -20.2540 C.3   239  LYS239      0.0206
    105  CE       -36.3090   17.1750  -20.3800 C.3   239  LYS239      0.1093
    106  NZ       -36.7110   17.7490  -19.0480 N.3   239  LYS239     -0.1314
    107  N        -32.1600   14.0110  -23.7670 N.am  240  SER240     -0.1952
    108  CA       -31.3950   14.7260  -24.7740 C.3   240  SER240      0.1924
    109  C        -31.3590   13.9700  -26.0900 C.2   240  SER240      0.2314
    110  O        -31.3160   14.5920  -27.1550 O.2   240  SER240     -0.2863
    111  CB       -29.9690   14.9760  -24.2920 C.3   240  SER240      0.2116
    112  OG       -29.9320   16.0070  -23.3370 O.3   240  SER240     -0.2180
    113  N        -33.7190   14.5950  -28.8620 N.3   243  TYR243     -0.1241
    114  CA       -33.4890   15.7740  -29.6880 C.3   243  TYR243      0.1605
    115  C        -32.5410   15.5050  -30.8390 C.2   243  TYR243      0.2264
    116  O        -32.2360   16.4330  -31.6000 O.2   243  TYR243     -0.2867
    117  CB       -32.9640   16.9380  -28.8420 C.3   243  TYR243      0.0534
    118  CG       -34.0430   17.5740  -27.9800 C.ar  243  TYR243     -0.0201
    119  CD1      -34.8740   18.5610  -28.4850 C.ar  243  TYR243     -0.0009
    120  CD2      -34.2430   17.1660  -26.6710 C.ar  243  TYR243     -0.0009
    121  CE1      -35.8770   19.1240  -27.7040 C.ar  243  TYR243      0.0417
    122  CE2      -35.2230   17.7240  -25.8970 C.ar  243  TYR243      0.0417
    123  CZ       -36.0360   18.7000  -26.4170 C.ar  243  TYR243      0.1957
    124  OH       -37.0060   19.2490  -25.6310 O.3   243  TYR243     -0.2866
    125  N        -34.2440   19.3810  -16.1750 N.3   324  GLU324     -0.1245
    126  CA       -33.4750   20.0020  -17.2420 C.3   324  GLU324      0.1567
    127  C        -32.7510   21.1900  -16.6470 C.2   324  GLU324      0.2260
    128  O        -33.1170   21.6780  -15.5820 O.2   324  GLU324     -0.2867
    129  CB       -34.3270   20.4170  -18.4530 C.3   324  GLU324      0.0388
    130  CG       -35.5480   21.2580  -18.1630 C.3   324  GLU324      0.1160
    131  CD       -36.4650   21.3850  -19.4000 C.2   324  GLU324      0.3649
    132  OE1      -37.0070   20.3490  -19.8570 O.co2 324  GLU324     -0.2457
    133  OE2      -36.6750   22.5190  -19.8940 O.co2 324  GLU324     -0.2457
@<TRIPOS>BOND
     1    27    26    2
     2    24    25    1
     3    26    25    1
     4    10    11    1
     5    25    28    1
     6    18    17    2
     7    17    16    1
     8    11    12    1
     9    11    14    1
    10    13    12    2
    11    12    15   am
    12    15    16    1
    13    28    29    1
    14    16    19    1
    15    30    29   ar
    16    19    20    1
    17    29    31   ar
    18     4     3    2
    19     3     2    1
    20     1     2    1
    21     2     5    1
    22    20    21    1
    23    23    21   ar
    24    21    22   ar
    25   116   115    2
    26     5     6    1
    27   115   114    1
    28     6     7    1
    29     7     9   am
    30     7     8    2
    31    61    60    1
    32   114   113    1
    33   114   117    1
    34    44    45    2
    35    44    43    1
    36   117   118    1
    37    60    58   ar
    38    60    59   ar
    39   119   118   ar
    40   119   121   ar
    41    58    56   ar
    42    43    42    1
    43   118   120   ar
    44    41    39   ar
    45    41    40   ar
    46   121   123   ar
    47    59    57   ar
    48    39    37   ar
    49    47    46    1
    50    47    48    1
    51   110   109    2
    52    35    34    2
    53    56    55   ar
    54    42    34   am
    55    40    38   ar
    56   120   122   ar
    57    49    48    2
    58    48    50   am
    59   123   122   ar
    60   123   124    1
    61    57    55   ar
    62    34    33    1
    63   109   108    1
    64    37    38   ar
    65    37    36    1
    66    55    54    1
    67    50    51    1
    68    36    33    1
    69    33    32    1
    70   108   111    1
    71   108   107    1
    72   101   100    2
    73    51    54    1
    74    51    52    1
    75   111   112    1
    76   100   107   am
    77   100    99    1
    78    76    78   ar
    79    76    75   ar
    80    73    72    2
    81    78    80   ar
    82    52    53    2
    83    52    62   am
    84    70    71    1
    85    74    75    1
    86    74    71    1
    87    75    77   ar
    88    99    98    1
    89    99   102    1
    90    62    63    1
    91    80    81    1
    92    80    79   ar
    93    71    72    1
    94    91    92   ar
    95    91    89   ar
    96    72    82   am
    97    92    90   ar
    98    77    79   ar
    99    67    68    1
   100    67    66    1
   101    89    87   ar
   102   103   102    1
   103   103   104    1
   104    90    88   ar
   105    68    69    1
   106    63    66    1
   107    63    64    1
   108    82    83    1
   109    83    86    1
   110    83    84    1
   111    87    88   ar
   112    87    86    1
   113   105   104    1
   114   105   106    1
   115    64    65    2
   116    97    94    1
   117    93    84   am
   118    93    94    1
   119    84    85    2
   120   133   131   ar
   121   132   131   ar
   122   131   130    1
   123    94    95    1
   124    96    95    2
   125   129   130    1
   126   129   126    1
   127   126   127    1
   128   126   125    1
   129   127   128    2
