@<TRIPOS>MOLECULE
tmp/5xswA00.pdb
 95 90 0 0 0
SMALL
GASTEIGER

@<TRIPOS>ATOM
      1  N         42.1160   87.5240   45.0790 N.3   173  ASN173     -0.1240
      2  CA        43.2980   86.7370   44.7180 C.3   173  ASN173      0.1653
      3  C         44.4930   87.6100   44.3500 C.2   173  ASN173      0.2266
      4  O         45.2550   87.2420   43.4640 O.2   173  ASN173     -0.2867
      5  CB        42.9730   85.7780   43.5710 C.3   173  ASN173      0.1155
      6  CG        42.0560   84.6650   44.0370 C.2   173  ASN173      0.2627
      7  OD1       42.0230   84.4010   45.2430 O.2   173  ASN173     -0.2716
      8  ND2       41.2890   84.0330   43.1150 N.am  173  ASN173     -0.0877
      9  N         36.9620   82.9510   44.2520 N.3   211  LYS211     -0.1231
     10  CA        38.0730   82.8140   45.2160 C.3   211  LYS211      0.1693
     11  C         38.8650   81.5390   44.9270 C.2   211  LYS211      0.2592
     12  O         40.1200   81.5740   44.8720 O.2   211  LYS211     -0.2718
     13  CB        37.5300   82.8130   46.6670 C.3   211  LYS211      0.0285
     14  CG        38.6100   82.4670   47.7180 C.3   211  LYS211      0.0035
     15  CD        39.7680   83.4950   47.6540 C.3   211  LYS211      0.0206
     16  CE        41.0790   82.8500   48.0820 C.3   211  LYS211      0.1093
     17  NZ        42.2690   83.7080   47.9410 N.3   211  LYS211     -0.1314
     18  N         38.1690   80.4270   44.7410 N.am  212  GLU212     -0.1966
     19  CA        38.8460   79.1110   44.6190 C.3   212  GLU212      0.1733
     20  C         39.6740   78.9750   43.3610 C.2   212  GLU212      0.2616
     21  O         40.7570   78.3640   43.3980 O.2   212  GLU212     -0.2715
     22  CB        37.8320   77.9690   44.6350 C.3   212  GLU212      0.0429
     23  CG        37.2130   77.7770   46.0570 C.3   212  GLU212      0.1163
     24  CD        38.1900   77.2210   47.0770 C.2   212  GLU212      0.3649
     25  OE1       37.7400   77.0920   48.2480 O.co2 212  GLU212     -0.2457
     26  OE2       39.3510   76.8390   46.7020 O.co2 212  GLU212     -0.2457
     27  N         39.1560   79.4750   42.2270 N.am  213  ASN213     -0.1972
     28  CA        39.8910   79.2830   40.9580 C.3   213  ASN213      0.1688
     29  C         39.4440   80.2280   39.8650 C.2   213  ASN213      0.2292
     30  O         39.4220   79.8510   38.6940 O.2   213  ASN213     -0.2864
     31  CB        39.7080   77.8030   40.5170 C.3   213  ASN213      0.1181
     32  CG        40.6360   77.3520   39.3650 C.2   213  ASN213      0.2629
     33  OD1       41.6580   77.9730   39.0630 O.2   213  ASN213     -0.2716
     34  ND2       40.2430   76.2350   38.7060 N.am  213  ASN213     -0.0877
     35  N         42.2980   78.2170   36.2150 N.3   241  GLN241     -0.1245
     36  CA        43.0290   77.0180   35.7320 C.3   241  GLN241      0.1566
     37  C         41.9590   76.0690   35.2810 C.2   241  GLN241      0.2260
     38  O         41.4130   75.2900   36.0870 O.2   241  GLN241     -0.2867
     39  CB        43.9260   76.3840   36.8290 C.3   241  GLN241      0.0367
     40  CG        45.0020   77.3650   37.2910 C.3   241  GLN241      0.0905
     41  CD        45.8160   76.8940   38.5170 C.2   241  GLN241      0.2608
     42  OE1       45.8910   75.7010   38.8320 O.2   241  GLN241     -0.2717
     43  NE2       46.4190   77.8360   39.1880 N.am  241  GLN241     -0.0878
     44  N         41.9440   72.1440   35.7720 N.3   244  HIS244     -0.1241
     45  CA        42.2080   71.5770   37.1130 C.3   244  HIS244      0.1621
     46  C         41.1930   70.4840   37.4440 C.2   244  HIS244      0.2264
     47  O         39.9940   70.6820   37.3020 O.2   244  HIS244     -0.2867
     48  CB        42.1700   72.6880   38.1540 C.3   244  HIS244      0.0745
     49  CG        42.8700   72.3270   39.4230 C.ar  244  HIS244      0.0817
     50  ND1       42.4240   71.3060   40.2320 N.ar  244  HIS244     -0.2268
     51  CD2       44.0080   72.8070   39.9970 C.ar  244  HIS244      0.1154
     52  CE1       43.2180   71.2120   41.2960 C.ar  244  HIS244      0.1986
     53  NE2       44.1940   72.0980   41.1690 N.ar  244  HIS244     -0.2212
     54  N         37.0890   73.8020   43.3900 N.3   250  GLN250     -0.1245
     55  CA        38.2440   73.1230   44.0740 C.3   250  GLN250      0.1566
     56  C         37.7610   72.1350   45.0850 C.2   250  GLN250      0.2260
     57  O         38.2150   72.0940   46.2280 O.2   250  GLN250     -0.2867
     58  CB        39.1970   74.1540   44.7110 C.3   250  GLN250      0.0367
     59  CG        39.8130   75.0800   43.5950 C.3   250  GLN250      0.0905
     60  CD        40.9850   74.3390   42.8610 C.2   250  GLN250      0.2608
     61  OE1       42.0590   74.1810   43.4540 O.2   250  GLN250     -0.2717
     62  NE2       40.7510   73.8330   41.6360 N.am  250  GLN250     -0.0878
     63  N         36.6950   75.6600   53.3100 N.3   336  ASN336     -0.1240
     64  CA        38.1410   75.7740   53.0220 C.3   336  ASN336      0.1653
     65  C         39.0360   74.9680   54.0100 C.2   336  ASN336      0.2266
     66  O         39.9920   74.3130   53.5860 O.2   336  ASN336     -0.2867
     67  CB        38.5430   77.2340   53.0580 C.3   336  ASN336      0.1155
     68  CG        40.0520   77.4540   52.8160 C.2   336  ASN336      0.2627
     69  OD1       40.7160   78.0520   53.6440 O.2   336  ASN336     -0.2716
     70  ND2       40.5840   76.9540   51.6690 N.am  336  ASN336     -0.0877
     71  N         42.7390   79.9750   54.3590 N.3   370  PHE370     -0.1227
     72  CA        43.9190   80.3510   53.5490 C.3   370  PHE370      0.1736
     73  C         43.6240   81.4040   52.5010 C.2   370  PHE370      0.2596
     74  O         42.5760   81.3440   51.8620 O.2   370  PHE370     -0.2718
     75  CB        44.4950   79.1130   52.8400 C.3   370  PHE370      0.0547
     76  CG        45.1070   78.0980   53.7970 C.ar  370  PHE370     -0.0202
     77  CD1       46.1580   78.4650   54.6210 C.ar  370  PHE370     -0.0042
     78  CD2       44.6180   76.8090   53.8810 C.ar  370  PHE370     -0.0042
     79  CE1       46.7250   77.5540   55.5190 C.ar  370  PHE370     -0.0003
     80  CE2       45.1740   75.8930   54.7720 C.ar  370  PHE370     -0.0003
     81  CZ        46.2300   76.2760   55.5860 C.ar  370  PHE370     -0.0000
     82  N         44.5530   82.3450   52.3090 N.am  371  GLY371     -0.1957
     83  CA        44.4540   83.3060   51.2090 C.3   371  GLY371      0.1869
     84  C         43.2780   84.2530   51.3910 C.2   371  GLY371      0.2309
     85  O         42.6480   84.6670   50.4160 O.2   371  GLY371     -0.2863
     86  N         40.3390   83.6610   52.4910 N.3   373  HIS373     -0.1241
     87  CA        39.1960   82.9690   51.8990 C.3   373  HIS373      0.1621
     88  C         37.8560   83.5310   52.4170 C.2   373  HIS373      0.2264
     89  O         36.9890   83.9000   51.6280 O.2   373  HIS373     -0.2867
     90  CB        39.2690   81.4490   52.2070 C.3   373  HIS373      0.0745
     91  CG        38.3870   80.6070   51.3360 C.ar  373  HIS373      0.0817
     92  ND1       37.0120   80.5490   51.5060 N.ar  373  HIS373     -0.2268
     93  CD2       38.6820   79.7530   50.3190 C.ar  373  HIS373      0.1154
     94  CE1       36.4980   79.6730   50.6560 C.ar  373  HIS373      0.1986
     95  NE2       37.4870   79.1880   49.9060 N.ar  373  HIS373     -0.2212
@<TRIPOS>BOND
     1    37    36    1
     2    37    38    2
     3    36    35    1
     4    36    39    1
     5    44    45    1
     6    39    40    1
     7    45    46    1
     8    45    48    1
     9    40    41    1
    10    47    46    2
    11    48    49    1
    12    41    42    2
    13    41    43   am
    14    30    29    2
    15    34    32   am
    16    33    32    2
    17    32    31    1
    18    49    51   ar
    19    49    50   ar
    20    29    28    1
    21    51    53   ar
    22    50    52   ar
    23    31    28    1
    24    28    27    1
    25    53    52   ar
    26    62    60   am
    27    27    20   am
    28    60    61    2
    29    60    59    1
    30     8     6   am
    31    20    21    2
    32    20    19    1
    33    54    55    1
    34     4     3    2
    35     5     6    1
    36     5     2    1
    37    59    58    1
    38     6     7    2
    39    55    58    1
    40    55    56    1
    41     9    10    1
    42     3     2    1
    43    19    22    1
    44    19    18    1
    45    22    23    1
    46     2     1    1
    47    18    11   am
    48    12    11    2
    49    11    10    1
    50    56    57    2
    51    10    13    1
    52    23    24    1
    53    13    14    1
    54    26    24   ar
    55    24    25   ar
    56    15    14    1
    57    15    16    1
    58    17    16    1
    59    95    93   ar
    60    95    94   ar
    61    93    91   ar
    62    85    84    2
    63    94    92   ar
    64    83    84    1
    65    83    82    1
    66    91    92   ar
    67    91    90    1
    68    89    88    2
    69    70    68   am
    70    74    73    2
    71    87    90    1
    72    87    88    1
    73    87    86    1
    74    82    73   am
    75    73    72    1
    76    68    67    1
    77    68    69    2
    78    75    72    1
    79    75    76    1
    80    64    67    1
    81    64    63    1
    82    64    65    1
    83    72    71    1
    84    66    65    2
    85    76    78   ar
    86    76    77   ar
    87    78    80   ar
    88    77    79   ar
    89    80    81   ar
    90    79    81   ar
