@<TRIPOS>MOLECULE
tmp/5xswA01.pdb
 98 97 0 0 0
SMALL
GASTEIGER

@<TRIPOS>ATOM
      1  N         42.1160   87.5240   45.0790 N.3   173  ASN173     -0.1225
      2  CA        43.2980   86.7370   44.7180 C.3   173  ASN173      0.1785
      3  C         44.4930   87.6100   44.3500 C.2   173  ASN173      0.2597
      4  O         45.2550   87.2420   43.4640 O.2   173  ASN173     -0.2718
      5  CB        42.9730   85.7780   43.5710 C.3   173  ASN173      0.1169
      6  CG        42.0560   84.6650   44.0370 C.2   173  ASN173      0.2627
      7  OD1       42.0230   84.4010   45.2430 O.2   173  ASN173     -0.2716
      8  ND2       41.2890   84.0330   43.1150 N.am  173  ASN173     -0.0877
      9  N         44.5700   88.7560   45.0230 N.am  174  LEU174     -0.1980
     10  CA        45.6320   89.7820   44.8960 C.3   174  LEU174      0.1596
     11  C         45.5500   90.6010   43.6020 C.2   174  LEU174      0.2287
     12  O         46.4680   91.3710   43.2850 O.2   174  LEU174     -0.2864
     13  CB        47.0150   89.1570   44.9960 C.3   174  LEU174      0.0297
     14  CG        47.3470   88.3860   46.2860 C.3   174  LEU174      0.0022
     15  CD1       48.8300   88.0000   46.2680 C.3   174  LEU174      0.0001
     16  CD2       47.0220   89.1990   47.5010 C.3   174  LEU174      0.0001
     17  N         36.9620   82.9510   44.2520 N.3   211  LYS211     -0.1231
     18  CA        38.0730   82.8140   45.2160 C.3   211  LYS211      0.1693
     19  C         38.8650   81.5390   44.9270 C.2   211  LYS211      0.2592
     20  O         40.1200   81.5740   44.8720 O.2   211  LYS211     -0.2718
     21  CB        37.5300   82.8130   46.6670 C.3   211  LYS211      0.0285
     22  CG        38.6100   82.4670   47.7180 C.3   211  LYS211      0.0035
     23  CD        39.7680   83.4950   47.6540 C.3   211  LYS211      0.0206
     24  CE        41.0790   82.8500   48.0820 C.3   211  LYS211      0.1093
     25  NZ        42.2690   83.7080   47.9410 N.3   211  LYS211     -0.1314
     26  N         38.1690   80.4270   44.7410 N.am  212  GLU212     -0.1966
     27  CA        38.8460   79.1110   44.6190 C.3   212  GLU212      0.1733
     28  C         39.6740   78.9750   43.3610 C.2   212  GLU212      0.2616
     29  O         40.7570   78.3640   43.3980 O.2   212  GLU212     -0.2715
     30  CB        37.8320   77.9690   44.6350 C.3   212  GLU212      0.0429
     31  CG        37.2130   77.7770   46.0570 C.3   212  GLU212      0.1163
     32  CD        38.1900   77.2210   47.0770 C.2   212  GLU212      0.3649
     33  OE1       37.7400   77.0920   48.2480 O.co2 212  GLU212     -0.2457
     34  OE2       39.3510   76.8390   46.7020 O.co2 212  GLU212     -0.2457
     35  N         39.1560   79.4750   42.2270 N.am  213  ASN213     -0.1958
     36  CA        39.8910   79.2830   40.9580 C.3   213  ASN213      0.1819
     37  C         39.4440   80.2280   39.8650 C.2   213  ASN213      0.2621
     38  O         39.4220   79.8510   38.6940 O.2   213  ASN213     -0.2715
     39  CB        39.7080   77.8030   40.5170 C.3   213  ASN213      0.1195
     40  CG        40.6360   77.3520   39.3650 C.2   213  ASN213      0.2630
     41  OD1       41.6580   77.9730   39.0630 O.2   213  ASN213     -0.2716
     42  ND2       40.2430   76.2350   38.7060 N.am  213  ASN213     -0.0877
     43  N         39.0630   81.4370   40.2500 N.am  214  TRP214     -0.1974
     44  CA        38.6870   82.4540   39.2610 C.3   214  TRP214      0.1640
     45  C         37.6000   81.8930   38.3310 C.2   214  TRP214      0.2290
     46  O         37.5690   82.2300   37.1640 O.2   214  TRP214     -0.2864
     47  CB        39.9280   82.8780   38.4200 C.3   214  TRP214      0.0576
     48  CG        40.8380   83.8650   39.0750 C.ar  214  TRP214      0.0006
     49  CD1       42.0160   83.5730   39.7900 C.ar  214  TRP214      0.0946
     50  CD2       40.6640   85.2960   39.1670 C.ar  214  TRP214      0.0152
     51  NE1       42.5950   84.7490   40.2010 N.ar  214  TRP214     -0.2442
     52  CE2       41.7880   85.8130   39.8630 C.ar  214  TRP214      0.0810
     53  CE3       39.6900   86.1940   38.6920 C.ar  214  TRP214      0.0012
     54  CZ2       41.9730   87.1910   40.0920 C.ar  214  TRP214      0.0191
     55  CZ3       39.8830   87.5790   38.9150 C.ar  214  TRP214      0.0001
     56  CH2       40.9980   88.0560   39.6530 C.ar  214  TRP214      0.0015
     57  N         47.6810   89.4930   35.5170 N.3   224  PHE224     -0.1241
     58  CA        46.9510   88.2440   35.6050 C.3   224  PHE224      0.1605
     59  C         46.6380   87.6090   34.2920 C.2   224  PHE224      0.2264
     60  O         45.4730   87.5490   33.9070 O.2   224  PHE224     -0.2867
     61  CB        45.6560   88.4560   36.3650 C.3   224  PHE224      0.0534
     62  CG        45.8670   88.5500   37.7900 C.ar  224  PHE224     -0.0203
     63  CD1       46.3680   89.7110   38.3430 C.ar  224  PHE224     -0.0042
     64  CD2       45.6590   87.4630   38.5930 C.ar  224  PHE224     -0.0042
     65  CE1       46.6320   89.7870   39.6660 C.ar  224  PHE224     -0.0003
     66  CE2       45.9000   87.5480   39.9230 C.ar  224  PHE224     -0.0003
     67  CZ        46.3790   88.6940   40.4730 C.ar  224  PHE224     -0.0000
     68  N         41.5700   84.3440   34.7260 N.3   239  PRO239     -0.2116
     69  CA        42.7360   83.6170   35.2820 C.3   239  PRO239      0.1372
     70  C         42.3900   82.2580   35.8670 C.2   239  PRO239      0.2244
     71  O         43.0270   81.8060   36.8180 O.2   239  PRO239     -0.2868
     72  CB        43.2610   84.5770   36.3960 C.3   239  PRO239      0.0268
     73  CG        42.5140   85.9590   36.1480 C.3   239  PRO239      0.0207
     74  CD        41.1450   85.4760   35.5850 C.3   239  PRO239      0.0892
     75  N         42.2980   78.2170   36.2150 N.3   241  GLN241     -0.1245
     76  CA        43.0290   77.0180   35.7320 C.3   241  GLN241      0.1566
     77  C         41.9590   76.0690   35.2810 C.2   241  GLN241      0.2260
     78  O         41.4130   75.2900   36.0870 O.2   241  GLN241     -0.2867
     79  CB        43.9260   76.3840   36.8290 C.3   241  GLN241      0.0367
     80  CG        45.0020   77.3650   37.2910 C.3   241  GLN241      0.0905
     81  CD        45.8160   76.8940   38.5170 C.2   241  GLN241      0.2608
     82  OE1       45.8910   75.7010   38.8320 O.2   241  GLN241     -0.2717
     83  NE2       46.4190   77.8360   39.1880 N.am  241  GLN241     -0.0878
     84  N         42.7390   79.9750   54.3590 N.3   370  PHE370     -0.1227
     85  CA        43.9190   80.3510   53.5490 C.3   370  PHE370      0.1736
     86  C         43.6240   81.4040   52.5010 C.2   370  PHE370      0.2596
     87  O         42.5760   81.3440   51.8620 O.2   370  PHE370     -0.2718
     88  CB        44.4950   79.1130   52.8400 C.3   370  PHE370      0.0547
     89  CG        45.1070   78.0980   53.7970 C.ar  370  PHE370     -0.0202
     90  CD1       46.1580   78.4650   54.6210 C.ar  370  PHE370     -0.0042
     91  CD2       44.6180   76.8090   53.8810 C.ar  370  PHE370     -0.0042
     92  CE1       46.7250   77.5540   55.5190 C.ar  370  PHE370     -0.0003
     93  CE2       45.1740   75.8930   54.7720 C.ar  370  PHE370     -0.0003
     94  CZ        46.2300   76.2760   55.5860 C.ar  370  PHE370     -0.0000
     95  N         44.5530   82.3450   52.3090 N.am  371  GLY371     -0.1957
     96  CA        44.4540   83.3060   51.2090 C.3   371  GLY371      0.1869
     97  C         43.2780   84.2530   51.3910 C.2   371  GLY371      0.2309
     98  O         42.6480   84.6670   50.4160 O.2   371  GLY371     -0.2863
@<TRIPOS>BOND
     1    60    59    2
     2    59    58    1
     3    68    69    1
     4    68    74    1
     5    77    76    1
     6    77    78    2
     7    69    70    1
     8    69    72    1
     9    57    58    1
    10    74    73    1
    11    58    61    1
    12    76    75    1
    13    76    79    1
    14    70    71    2
    15    73    72    1
    16    61    62    1
    17    79    80    1
    18    46    45    2
    19    80    81    1
    20    62    63   ar
    21    62    64   ar
    22    45    44    1
    23    63    65   ar
    24    47    48    1
    25    47    44    1
    26    81    82    2
    27    81    83   am
    28    64    66   ar
    29    53    55   ar
    30    53    50   ar
    31    38    37    2
    32    42    40   am
    33    55    56   ar
    34    41    40    2
    35    48    50   ar
    36    48    49   ar
    37    50    52   ar
    38    44    43    1
    39    40    39    1
    40    56    54   ar
    41    65    67   ar
    42    49    51   ar
    43    52    54   ar
    44    52    51   ar
    45    37    43   am
    46    37    36    1
    47    66    67   ar
    48    39    36    1
    49    36    35    1
    50    35    28   am
    51     8     6   am
    52    12    11    2
    53    28    29    2
    54    28    27    1
    55     4     3    2
    56     5     6    1
    57     5     2    1
    58    11    10    1
    59     6     7    2
    60    17    18    1
    61     3     2    1
    62     3     9   am
    63    27    30    1
    64    27    26    1
    65    30    31    1
    66     2     1    1
    67    26    19   am
    68    20    19    2
    69    10    13    1
    70    10     9    1
    71    19    18    1
    72    13    14    1
    73    18    21    1
    74    31    32    1
    75    15    14    1
    76    14    16    1
    77    21    22    1
    78    34    32   ar
    79    32    33   ar
    80    23    22    1
    81    23    24    1
    82    25    24    1
    83    98    97    2
    84    96    97    1
    85    96    95    1
    86    87    86    2
    87    95    86   am
    88    86    85    1
    89    88    85    1
    90    88    89    1
    91    85    84    1
    92    89    91   ar
    93    89    90   ar
    94    91    93   ar
    95    90    92   ar
    96    93    94   ar
    97    92    94   ar
