@<TRIPOS>MOLECULE
tmp/5xsxB01.pdb
 135 132 0 0 0
SMALL
GASTEIGER

@<TRIPOS>ATOM
      1  N         -3.7740   36.8970    6.3290 N.3   173  ASN173     -0.1225
      2  CA        -2.7710   36.1770    7.1130 C.3   173  ASN173      0.1785
      3  C         -2.1540   35.0040    6.3620 C.2   173  ASN173      0.2597
      4  O         -2.2310   33.8640    6.8160 O.2   173  ASN173     -0.2718
      5  CB        -3.3750   35.6780    8.4280 C.3   173  ASN173      0.1169
      6  CG        -3.7610   36.8090    9.3560 C.2   173  ASN173      0.2627
      7  OD1       -3.9120   37.9510    8.9270 O.2   173  ASN173     -0.2716
      8  ND2       -3.9230   36.4970   10.6360 N.am  173  ASN173     -0.0877
      9  N         -1.5550   35.2980    5.2100 N.am  174  LEU174     -0.1980
     10  CA        -0.8520   34.3080    4.3940 C.3   174  LEU174      0.1596
     11  C         -1.7640   33.1850    3.8970 C.2   174  LEU174      0.2287
     12  O         -1.3140   32.0560    3.6940 O.2   174  LEU174     -0.2864
     13  CB         0.3260   33.7130    5.1740 C.3   174  LEU174      0.0297
     14  CG         1.2870   34.7090    5.8270 C.3   174  LEU174      0.0022
     15  CD1        2.3770   33.9800    6.5960 C.3   174  LEU174      0.0001
     16  CD2        1.8900   35.6420    4.7880 C.3   174  LEU174      0.0001
     17  N         -8.0520   39.5010   11.5120 N.3   211  LYS211     -0.1231
     18  CA        -6.6420   39.7900   11.2800 C.3   211  LYS211      0.1693
     19  C         -5.7850   39.4160   12.4870 C.2   211  LYS211      0.2592
     20  O         -4.6650   38.9260   12.3390 O.2   211  LYS211     -0.2718
     21  CB        -6.4500   41.2710   10.9410 C.3   211  LYS211      0.0285
     22  CG        -4.9940   41.7020   10.8240 C.3   211  LYS211      0.0035
     23  CD        -4.3030   41.0010    9.6670 C.3   211  LYS211      0.0206
     24  CE        -2.7900   41.0610    9.8000 C.3   211  LYS211      0.1093
     25  NZ        -2.3130   40.3100   10.9950 N.3   211  LYS211     -0.1314
     26  N         -6.3220   39.6400   13.6820 N.am  212  GLU212     -0.1966
     27  CA        -5.5610   39.4450   14.9110 C.3   212  GLU212      0.1733
     28  C         -5.3580   37.9750   15.2650 C.2   212  GLU212      0.2616
     29  O         -4.2510   37.5740   15.6260 O.2   212  GLU212     -0.2715
     30  CB        -6.2400   40.1640   16.0800 C.3   212  GLU212      0.0429
     31  CG        -6.0620   41.6790   16.0800 C.3   212  GLU212      0.1163
     32  CD        -4.6300   42.1110   16.3440 C.2   212  GLU212      0.3649
     33  OE1       -4.3070   43.2880   16.0810 O.co2 212  GLU212     -0.2457
     34  OE2       -3.8270   41.2810   16.8180 O.co2 212  GLU212     -0.2457
     35  N         -6.4140   37.1710   15.1710 N.am  213  ASN213     -0.1958
     36  CA        -6.3110   35.7760   15.5940 C.3   213  ASN213      0.1819
     37  C         -7.3370   34.8510   14.9430 C.2   213  ASN213      0.2621
     38  O         -7.7700   33.8750   15.5560 O.2   213  ASN213     -0.2715
     39  CB        -6.4370   35.6890   17.1200 C.3   213  ASN213      0.1195
     40  CG        -5.9300   34.3710   17.6770 C.2   213  ASN213      0.2630
     41  OD1       -5.1510   33.6710   17.0310 O.2   213  ASN213     -0.2716
     42  ND2       -6.3780   34.0250   18.8780 N.am  213  ASN213     -0.0877
     43  N         -7.7200   35.1550   13.7050 N.am  214  TRP214     -0.1974
     44  CA        -8.6990   34.3490   12.9710 C.3   214  TRP214      0.1640
     45  C         -9.9950   34.1470   13.7540 C.2   214  TRP214      0.2290
     46  O        -10.6820   33.1410   13.5780 O.2   214  TRP214     -0.2864
     47  CB        -8.1130   32.9800   12.6090 C.3   214  TRP214      0.0576
     48  CG        -7.0820   33.0130   11.5280 C.ar  214  TRP214      0.0006
     49  CD1       -5.7280   33.0440   11.6870 C.ar  214  TRP214      0.0946
     50  CD2       -7.3210   33.0050   10.1160 C.ar  214  TRP214      0.0152
     51  NE1       -5.1080   33.0600   10.4610 N.ar  214  TRP214     -0.2442
     52  CE2       -6.0650   33.0340    9.4790 C.ar  214  TRP214      0.0810
     53  CE3       -8.4750   32.9710    9.3270 C.ar  214  TRP214      0.0012
     54  CZ2       -5.9300   33.0360    8.0930 C.ar  214  TRP214      0.0191
     55  CZ3       -8.3390   32.9730    7.9500 C.ar  214  TRP214      0.0001
     56  CH2       -7.0760   33.0050    7.3480 C.ar  214  TRP214      0.0015
     57  N         -3.5850   25.7280    6.0190 N.3   224  PHE224     -0.1241
     58  CA        -3.8430   26.1120    7.4020 C.3   224  PHE224      0.1605
     59  C         -4.5570   25.0250    8.1920 C.2   224  PHE224      0.2264
     60  O         -5.5770   24.4910    7.7590 O.2   224  PHE224     -0.2867
     61  CB        -4.6560   27.4050    7.4510 C.3   224  PHE224      0.0534
     62  CG        -3.8370   28.6320    7.2060 C.ar  224  PHE224     -0.0203
     63  CD1       -3.2430   29.3040    8.2600 C.ar  224  PHE224     -0.0042
     64  CD2       -3.6440   29.1050    5.9200 C.ar  224  PHE224     -0.0042
     65  CE1       -2.4800   30.4300    8.0370 C.ar  224  PHE224     -0.0003
     66  CE2       -2.8830   30.2290    5.6920 C.ar  224  PHE224     -0.0003
     67  CZ        -2.3000   30.8910    6.7510 C.ar  224  PHE224     -0.0000
     68  N         -8.5080   28.5050   11.9240 N.3   239  PRO239     -0.2116
     69  CA        -7.1820   28.5160   12.5520 C.3   239  PRO239      0.1372
     70  C         -7.0510   29.5460   13.6700 C.2   239  PRO239      0.2244
     71  O         -6.1110   30.3410   13.6650 O.2   239  PRO239     -0.2868
     72  CB        -6.2550   28.8620   11.3870 C.3   239  PRO239      0.0268
     73  CG        -7.0930   29.7030   10.4950 C.3   239  PRO239      0.0207
     74  CD        -8.5160   29.2280   10.6400 C.3   239  PRO239      0.0892
     75  N         -6.3810   30.6270   17.6020 N.3   241  GLN241     -0.1245
     76  CA        -5.7380   30.1770   18.8290 C.3   241  GLN241      0.1566
     77  C         -6.6570   30.4720   20.0090 C.2   241  GLN241      0.2260
     78  O         -6.5280   31.5000   20.6740 O.2   241  GLN241     -0.2867
     79  CB        -4.3740   30.8430   19.0140 C.3   241  GLN241      0.0367
     80  CG        -3.3560   30.4550   17.9520 C.3   241  GLN241      0.0905
     81  CD        -1.9330   30.7890   18.3530 C.2   241  GLN241      0.2608
     82  OE1       -1.6480   31.0420   19.5240 O.2   241  GLN241     -0.2717
     83  NE2       -1.0290   30.7950   17.3790 N.am  241  GLN241     -0.0878
     84  N         -5.4200   31.4500   23.6500 N.3   244  HIS244     -0.1241
     85  CA        -4.6140   32.6470   23.8630 C.3   244  HIS244      0.1621
     86  C         -5.2750   33.5760   24.8800 C.2   244  HIS244      0.2264
     87  O         -6.4510   33.9130   24.7440 O.2   244  HIS244     -0.2867
     88  CB        -4.3850   33.3830   22.5420 C.3   244  HIS244      0.0745
     89  CG        -3.1550   34.2360   22.5310 C.ar  244  HIS244      0.0817
     90  ND1       -3.0480   35.4000   23.2620 N.ar  244  HIS244     -0.2268
     91  CD2       -1.9780   34.0940   21.8770 C.ar  244  HIS244      0.1154
     92  CE1       -1.8580   35.9370   23.0590 C.ar  244  HIS244      0.1986
     93  NE2       -1.1890   35.1650   22.2230 N.ar  244  HIS244     -0.2212
     94  N         -6.6690   40.0410   20.5550 N.3   250  GLN250     -0.1245
     95  CA        -5.2810   40.1950   20.9820 C.3   250  GLN250      0.1566
     96  C         -5.0620   41.4680   21.7950 C.2   250  GLN250      0.2260
     97  O         -4.2010   42.2850   21.4700 O.2   250  GLN250     -0.2867
     98  CB        -4.3420   40.1770   19.7720 C.3   250  GLN250      0.0367
     99  CG        -4.2500   38.8260   19.0800 C.3   250  GLN250      0.0905
    100  CD        -3.6110   37.7660   19.9560 C.2   250  GLN250      0.2608
    101  OE1       -2.7480   38.0630   20.7830 O.2   250  GLN250     -0.2717
    102  NE2       -4.0380   36.5200   19.7840 N.am  250  GLN250     -0.0878
    103  N         -2.6220   48.3660   16.8250 N.3   336  ASN336     -0.1240
    104  CA        -1.5600   47.3820   16.6430 C.3   336  ASN336      0.1653
    105  C         -0.1970   47.8300   17.1750 C.2   336  ASN336      0.2266
    106  O          0.4430   47.1090   17.9400 O.2   336  ASN336     -0.2867
    107  CB        -1.4310   47.0140   15.1650 C.3   336  ASN336      0.1155
    108  CG        -0.3420   45.9890   14.9170 C.2   336  ASN336      0.2627
    109  OD1        0.7530   46.3270   14.4660 O.2   336  ASN336     -0.2716
    110  ND2       -0.6340   44.7290   15.2210 N.am  336  ASN336     -0.0877
    111  N          2.1830   45.3020   11.8060 N.3   370  PHE370     -0.1227
    112  CA         2.7800   43.9740   11.7390 C.3   370  PHE370      0.1736
    113  C          2.0590   43.0980   10.7210 C.2   370  PHE370      0.2596
    114  O          0.9230   42.6770   10.9430 O.2   370  PHE370     -0.2718
    115  CB         2.7660   43.3050   13.1140 C.3   370  PHE370      0.0547
    116  CG         3.5320   42.0140   13.1650 C.ar  370  PHE370     -0.0202
    117  CD1        4.9010   42.0150   13.3750 C.ar  370  PHE370     -0.0042
    118  CD2        2.8840   40.8010   13.0000 C.ar  370  PHE370     -0.0042
    119  CE1        5.6100   40.8300   13.4210 C.ar  370  PHE370     -0.0003
    120  CE2        3.5880   39.6120   13.0440 C.ar  370  PHE370     -0.0003
    121  CZ         4.9520   39.6270   13.2560 C.ar  370  PHE370     -0.0000
    122  N          2.7270   42.8320    9.6030 N.am  371  GLY371     -0.1957
    123  CA         2.1860   41.9630    8.5740 C.3   371  GLY371      0.1869
    124  C          0.9890   42.5420    7.8450 C.2   371  GLY371      0.2309
    125  O          0.0050   41.8420    7.6050 O.2   371  GLY371     -0.2863
    126  N         -1.2200   44.9260    8.7840 N.3   373  HIS373     -0.1241
    127  CA        -2.3850   45.0030    9.6620 C.3   373  HIS373      0.1621
    128  C         -3.4580   45.9390    9.1060 C.2   373  HIS373      0.2264
    129  O         -4.5840   45.5200    8.8130 O.2   373  HIS373     -0.2867
    130  CB        -1.9480   45.4690   11.0540 C.3   373  HIS373      0.0745
    131  CG        -2.9720   45.2460   12.1220 C.ar  373  HIS373      0.0817
    132  ND1       -4.1190   46.0030   12.2270 N.ar  373  HIS373     -0.2268
    133  CD2       -3.0100   44.3620   13.1470 C.ar  373  HIS373      0.1154
    134  CE1       -4.8250   45.5870   13.2630 C.ar  373  HIS373      0.1986
    135  NE2       -4.1740   44.5920   13.8390 N.ar  373  HIS373     -0.2212
@<TRIPOS>BOND
     1    12    11    2
     2    11    10    1
     3    10    13    1
     4    10     9    1
     5    16    14    1
     6    13    14    1
     7     9     3   am
     8    66    64   ar
     9    66    67   ar
    10    14    15    1
    11    64    62   ar
    12    57    58    1
    13     1     2    1
    14     3     4    2
    15     3     2    1
    16    67    65   ar
    17     2     5    1
    18    62    61    1
    19    62    63   ar
    20    56    55   ar
    21    56    54   ar
    22    58    61    1
    23    58    59    1
    24   125   124    2
    25    60    59    2
    26   124   123    1
    27    55    53   ar
    28    65    63   ar
    29    54    52   ar
    30     5     6    1
    31   123   122    1
    32   126   127    1
    33   129   128    2
    34     7     6    2
    35   128   127    1
    36    53    50   ar
    37     6     8   am
    38    52    50   ar
    39    52    51   ar
    40   122   113   am
    41   127   130    1
    42    23    24    1
    43    23    22    1
    44    24    25    1
    45    50    48   ar
    46    51    49   ar
    47    73    74    1
    48    73    72    1
    49    74    68    1
    50   113   114    2
    51   113   112    1
    52    22    21    1
    53    21    18    1
    54   130   131    1
    55    18    17    1
    56    18    19    1
    57    72    69    1
    58    48    49   ar
    59    48    47    1
    60   112   111    1
    61   112   115    1
    62    68    69    1
    63   131   132   ar
    64   131   133   ar
    65   132   134   ar
    66    20    19    2
    67    19    26   am
    68    69    70    1
    69    47    44    1
    70    44    43    1
    71    44    45    1
    72   118   120   ar
    73   118   116   ar
    74   120   121   ar
    75   115   116    1
    76   133   135   ar
    77   116   117   ar
    78   121   119   ar
    79   134   135   ar
    80   117   119   ar
    81    46    45    2
    82    71    70    2
    83    26    27    1
    84    43    37   am
    85   109   108    2
    86    27    28    1
    87    27    30    1
    88   108   107    1
    89   108   110   am
    90    37    38    2
    91    37    36    1
    92   107   104    1
    93    35    28   am
    94    35    36    1
    95    28    29    2
    96    36    39    1
    97    30    31    1
    98    31    32    1
    99    33    32   ar
   100    32    34   ar
   101   104   103    1
   102   104   105    1
   103    41    40    2
   104    39    40    1
   105   105   106    2
   106    83    81   am
   107    75    76    1
   108    40    42   am
   109    80    81    1
   110    80    79    1
   111    81    82    2
   112    76    79    1
   113    76    77    1
   114    99    98    1
   115    99   100    1
   116    98    95    1
   117   102   100   am
   118   100   101    2
   119    77    78    2
   120    94    95    1
   121    95    96    1
   122    97    96    2
   123    91    93   ar
   124    91    89   ar
   125    93    92   ar
   126    89    88    1
   127    89    90   ar
   128    88    85    1
   129    92    90   ar
   130    84    85    1
   131    85    86    1
   132    87    86    2
