@<TRIPOS>MOLECULE
tmp/5xsxB00.pdb
 127 122 0 0 0
SMALL
GASTEIGER

@<TRIPOS>ATOM
      1  N         -6.3220   39.6400   13.6820 N.3   212  GLU212     -0.1245
      2  CA        -5.5610   39.4450   14.9110 C.3   212  GLU212      0.1567
      3  C         -5.3580   37.9750   15.2650 C.2   212  GLU212      0.2260
      4  O         -4.2510   37.5740   15.6260 O.2   212  GLU212     -0.2867
      5  CB        -6.2400   40.1640   16.0800 C.3   212  GLU212      0.0388
      6  CG        -6.0620   41.6790   16.0800 C.3   212  GLU212      0.1160
      7  CD        -4.6300   42.1110   16.3440 C.2   212  GLU212      0.3649
      8  OE1       -4.3070   43.2880   16.0810 O.co2 212  GLU212     -0.2457
      9  OE2       -3.8270   41.2810   16.8180 O.co2 212  GLU212     -0.2457
     10  N         -6.6690   40.0410   20.5550 N.3   250  GLN250     -0.1231
     11  CA        -5.2810   40.1950   20.9820 C.3   250  GLN250      0.1698
     12  C         -5.0620   41.4680   21.7950 C.2   250  GLN250      0.2592
     13  O         -4.2010   42.2850   21.4700 O.2   250  GLN250     -0.2718
     14  CB        -4.3420   40.1770   19.7720 C.3   250  GLN250      0.0381
     15  CG        -4.2500   38.8260   19.0800 C.3   250  GLN250      0.0905
     16  CD        -3.6110   37.7660   19.9560 C.2   250  GLN250      0.2608
     17  OE1       -2.7480   38.0630   20.7830 O.2   250  GLN250     -0.2717
     18  NE2       -4.0380   36.5200   19.7840 N.am  250  GLN250     -0.0878
     19  N         -5.8520   41.6320   22.8510 N.am  251  VAL251     -0.1966
     20  CA        -5.6960   42.7670   23.7500 C.3   251  VAL251      0.1727
     21  C         -4.7060   42.4290   24.8580 C.2   251  VAL251      0.2616
     22  O         -4.9380   41.5180   25.6510 O.2   251  VAL251     -0.2715
     23  CB        -7.0390   43.1900   24.3750 C.3   251  VAL251      0.0290
     24  CG1       -6.8250   44.3020   25.3890 C.3   251  VAL251      0.0023
     25  CG2       -8.0150   43.6260   23.2950 C.3   251  VAL251      0.0023
     26  N         -3.5990   43.1640   24.9040 N.am  252  GLU252     -0.1977
     27  CA        -2.5620   42.9220   25.9000 C.3   252  GLU252      0.1602
     28  C         -3.0220   43.3390   27.2930 C.2   252  GLU252      0.2287
     29  O         -3.9630   44.1180   27.4400 O.2   252  GLU252     -0.2864
     30  CB        -1.2760   43.6630   25.5260 C.3   252  GLU252      0.0415
     31  CG        -0.6210   43.1580   24.2490 C.3   252  GLU252      0.1163
     32  CD         0.5950   43.9720   23.8510 C.2   252  GLU252      0.3649
     33  OE1        0.7390   45.1110   24.3440 O.co2 252  GLU252     -0.2457
     34  OE2        1.4080   43.4720   23.0460 O.co2 252  GLU252     -0.2457
     35  N         -1.3690   45.1240   29.5310 N.3   254  GLY254     -0.1210
     36  CA        -1.0420   46.5170   29.7740 C.3   254  GLY254      0.1956
     37  C         -2.1060   47.4430   29.2190 C.2   254  GLY254      0.2611
     38  O         -2.5270   48.3910   29.8820 O.2   254  GLY254     -0.2717
     39  N         -2.5400   47.1590   27.9950 N.am  255  ASN255     -0.1974
     40  CA        -3.6140   47.9070   27.3540 C.3   255  ASN255      0.1688
     41  C         -4.9070   47.8180   28.1620 C.2   255  ASN255      0.2292
     42  O         -5.5680   48.8310   28.4220 O.2   255  ASN255     -0.2864
     43  CB        -3.8410   47.3880   25.9320 C.3   255  ASN255      0.1181
     44  CG        -4.7000   48.3170   25.0990 C.2   255  ASN255      0.2629
     45  OD1       -5.9290   48.2630   25.1520 O.2   255  ASN255     -0.2716
     46  ND2       -4.0550   49.1710   24.3140 N.am  255  ASN255     -0.0877
     47  N         -4.6640   49.6550   31.4050 N.3   258  GLN258     -0.1245
     48  CA        -4.5950   51.0820   31.1180 C.3   258  GLN258      0.1566
     49  C         -5.9850   51.6630   30.8610 C.2   258  GLN258      0.2260
     50  O         -6.3870   52.6290   31.5130 O.2   258  GLN258     -0.2867
     51  CB        -3.6840   51.3510   29.9210 C.3   258  GLN258      0.0367
     52  CG        -3.3480   52.8190   29.7210 C.3   258  GLN258      0.0905
     53  CD        -2.5940   53.4090   30.8990 C.2   258  GLN258      0.2608
     54  OE1       -3.1960   53.8780   31.8650 O.2   258  GLN258     -0.2717
     55  NE2       -1.2690   53.3910   30.8220 N.am  258  GLN258     -0.0878
     56  N        -11.1590   49.9350   23.9870 N.3   298  SER298     -0.1217
     57  CA        -9.7370   50.1540   23.7560 C.3   298  SER298      0.1889
     58  C         -9.5700   51.0700   22.5570 C.2   298  SER298      0.2288
     59  O         -8.9340   52.1220   22.6510 O.2   298  SER298     -0.2866
     60  CB        -9.0010   48.8330   23.5330 C.3   298  SER298      0.2089
     61  OG        -7.6130   49.0480   23.3490 O.3   298  SER298     -0.2183
     62  N         -2.9060   52.4550   15.5730 N.3   334  GLY334     -0.1210
     63  CA        -2.6880   52.7010   16.9850 C.3   334  GLY334      0.1956
     64  C         -3.0260   51.4840   17.8210 C.2   334  GLY334      0.2612
     65  O         -2.4190   51.2430   18.8640 O.2   334  GLY334     -0.2717
     66  N         -4.0050   50.7140   17.3630 N.am  335  TYR335     -0.1962
     67  CA        -4.3850   49.4930   18.0560 C.3   335  TYR335      0.1771
     68  C         -3.2500   48.4790   17.9920 C.2   335  TYR335      0.2620
     69  O         -2.9400   47.8180   18.9840 O.2   335  TYR335     -0.2715
     70  CB        -5.6630   48.9050   17.4540 C.3   335  TYR335      0.0574
     71  CG        -6.1940   47.6960   18.1910 C.ar  335  TYR335     -0.0198
     72  CD1       -7.0680   47.8420   19.2590 C.ar  335  TYR335     -0.0009
     73  CD2       -5.8280   46.4090   17.8150 C.ar  335  TYR335     -0.0009
     74  CE1       -7.5610   46.7430   19.9330 C.ar  335  TYR335      0.0417
     75  CE2       -6.3140   45.3050   18.4850 C.ar  335  TYR335      0.0417
     76  CZ        -7.1810   45.4790   19.5440 C.ar  335  TYR335      0.1957
     77  OH        -7.6710   44.3850   20.2160 O.3   335  TYR335     -0.2866
     78  N         -2.6220   48.3660   16.8250 N.am  336  ASN336     -0.1958
     79  CA        -1.5600   47.3820   16.6430 C.3   336  ASN336      0.1819
     80  C         -0.1970   47.8300   17.1750 C.2   336  ASN336      0.2621
     81  O          0.4430   47.1090   17.9400 O.2   336  ASN336     -0.2715
     82  CB        -1.4310   47.0140   15.1650 C.3   336  ASN336      0.1195
     83  CG        -0.3420   45.9890   14.9170 C.2   336  ASN336      0.2630
     84  OD1        0.7530   46.3270   14.4660 O.2   336  ASN336     -0.2716
     85  ND2       -0.6340   44.7290   15.2210 N.am  336  ASN336     -0.0877
     86  N          0.2450   49.0140   16.7660 N.am  337  ARG337     -0.1963
     87  CA         1.5900   49.4810   17.0970 C.3   337  ARG337      0.1729
     88  C          1.6450   50.3050   18.3780 C.2   337  ARG337      0.2617
     89  O          2.7200   50.5230   18.9370 O.2   337  ARG337     -0.2715
     90  CB         2.1640   50.2980   15.9380 C.3   337  ARG337      0.0348
     91  CG         2.5740   49.4590   14.7410 C.3   337  ARG337      0.0492
     92  CD         3.5540   48.3720   15.1540 C.3   337  ARG337      0.2205
     93  NE         4.0590   47.6190   14.0100 N.pl3 337  ARG337     -0.0865
     94  CZ         4.8750   46.5750   14.1070 C.cat 337  ARG337      0.5346
     95  NH1        5.2790   46.1550   15.2990 N.pl3 337  ARG337      0.1354
     96  NH2        5.2870   45.9490   13.0140 N.pl3 337  ARG337      0.1354
     97  N          0.4900   50.7640   18.8420 N.am  338  GLY338     -0.1940
     98  CA         0.4340   51.5550   20.0550 C.3   338  GLY338      0.2014
     99  C          0.0840   53.0060   19.7920 C.2   338  GLY338      0.2639
    100  O          0.1830   53.4910   18.6650 O.2   338  GLY338     -0.2714
    101  N         -0.3320   53.6960   20.8460 N.am  339  VAL339     -0.1963
    102  CA        -0.6790   55.1080   20.7650 C.3   339  VAL339      0.1727
    103  C          0.5650   55.9560   20.4850 C.2   339  VAL339      0.2617
    104  O          0.5110   56.9480   19.7460 O.2   339  VAL339     -0.2715
    105  CB        -1.3650   55.5730   22.0660 C.3   339  VAL339      0.0290
    106  CG1       -1.3700   57.0740   22.1660 C.3   339  VAL339      0.0023
    107  CG2       -2.7840   55.0270   22.1420 C.3   339  VAL339      0.0023
    108  N          1.6880   55.5410   21.0640 N.am  340  GLY340     -0.1940
    109  CA         2.9530   56.2290   20.8810 C.3   340  GLY340      0.2014
    110  C          3.3940   56.2930   19.4320 C.2   340  GLY340      0.2638
    111  O          4.0770   57.2310   19.0260 O.2   340  GLY340     -0.2714
    112  N          3.0010   55.2920   18.6500 N.am  341  ALA341     -0.1977
    113  CA         3.2970   55.2760   17.2220 C.3   341  ALA341      0.1597
    114  C          2.5110   56.3690   16.4990 C.2   341  ALA341      0.2287
    115  O          3.0740   57.1340   15.7060 O.2   341  ALA341     -0.2864
    116  CB         2.9850   53.9110   16.6340 C.3   341  ALA341      0.0319
    117  N          2.1830   45.3020   11.8060 N.3   370  PHE370     -0.1241
    118  CA         2.7800   43.9740   11.7390 C.3   370  PHE370      0.1605
    119  C          2.0590   43.0980   10.7210 C.2   370  PHE370      0.2264
    120  O          0.9230   42.6770   10.9430 O.2   370  PHE370     -0.2867
    121  CB         2.7660   43.3050   13.1140 C.3   370  PHE370      0.0534
    122  CG         3.5320   42.0140   13.1650 C.ar  370  PHE370     -0.0203
    123  CD1        4.9010   42.0150   13.3750 C.ar  370  PHE370     -0.0042
    124  CD2        2.8840   40.8010   13.0000 C.ar  370  PHE370     -0.0042
    125  CE1        5.6100   40.8300   13.4210 C.ar  370  PHE370     -0.0003
    126  CE2        3.5880   39.6120   13.0440 C.ar  370  PHE370     -0.0003
    127  CZ         4.9520   39.6270   13.2560 C.ar  370  PHE370     -0.0000
@<TRIPOS>BOND
     1   119   120    2
     2   119   118    1
     3   118   117    1
     4   118   121    1
     5   124   126   ar
     6   124   122   ar
     7    96    94    1
     8   126   127   ar
     9   121   122    1
    10   122   123   ar
    11   127   125   ar
    12   123   125   ar
    13     1     2    1
    14    93    94    2
    15    93    92    1
    16    94    95    1
    17    84    83    2
    18    91    92    1
    19    91    90    1
    20     2     3    1
    21     2     5    1
    22    83    82    1
    23    83    85   am
    24    82    79    1
    25     3     4    2
    26    62    63    1
    27   115   114    2
    28    90    87    1
    29     6     5    1
    30     6     7    1
    31     8     7   ar
    32     7     9   ar
    33   114   113    1
    34   116   113    1
    35    79    78    1
    36    79    80    1
    37    86    87    1
    38    86    80   am
    39    78    68   am
    40    63    64    1
    41    87    88    1
    42    80    81    2
    43   113   112    1
    44    66    64   am
    45    66    67    1
    46    70    67    1
    47    70    71    1
    48    73    71   ar
    49    73    75   ar
    50    64    65    2
    51    68    67    1
    52    68    69    2
    53    71    72   ar
    54    88    97   am
    55    88    89    2
    56    75    76   ar
    57   112   110   am
    58   100    99    2
    59    97    98    1
    60   111   110    2
    61    15    14    1
    62    15    16    1
    63    72    74   ar
    64   110   109    1
    65    76    74   ar
    66    76    77    1
    67   104   103    2
    68    14    11    1
    69    18    16   am
    70    99    98    1
    71    99   101   am
    72    16    17    2
    73   103   102    1
    74   103   108   am
    75    10    11    1
    76   102   101    1
    77   102   105    1
    78   109   108    1
    79    11    12    1
    80    13    12    2
    81    12    19   am
    82   105   107    1
    83   105   106    1
    84    58    59    2
    85    58    57    1
    86    19    20    1
    87    34    32   ar
    88    25    23    1
    89    61    60    1
    90    60    57    1
    91    20    23    1
    92    20    21    1
    93    57    56    1
    94    32    31    1
    95    32    33   ar
    96    31    30    1
    97    46    44   am
    98    23    24    1
    99    21    26   am
   100    21    22    2
   101    26    27    1
   102    44    45    2
   103    44    43    1
   104    30    27    1
   105    27    28    1
   106    43    40    1
   107    28    29    2
   108    40    39    1
   109    40    41    1
   110    39    37   am
   111    41    42    2
   112    37    36    1
   113    37    38    2
   114    35    36    1
   115    52    51    1
   116    52    53    1
   117    51    48    1
   118    55    53   am
   119    49    48    1
   120    49    50    2
   121    53    54    2
   122    48    47    1
