@<TRIPOS>MOLECULE
tmp/5xszA02.pdb
 87 81 0 0 0
SMALL
GASTEIGER

@<TRIPOS>ATOM
      1  N        -14.8450   13.0200  -21.0260 N.3    36  LEU36      -0.1245
      2  CA       -14.0810   14.1270  -21.6100 C.3    36  LEU36       0.1561
      3  C        -12.7410   14.2800  -20.8880 C.2    36  LEU36       0.2260
      4  O        -12.4820   15.2580  -20.1880 O.2    36  LEU36      -0.2867
      5  CB       -14.8810   15.4340  -21.5570 C.3    36  LEU36       0.0270
      6  CG       -14.5470   16.5740  -22.4970 C.3    36  LEU36       0.0019
      7  CD1      -14.7630   16.1940  -23.9560 C.3    36  LEU36       0.0001
      8  CD2      -15.4040   17.7910  -22.1380 C.3    36  LEU36       0.0001
      9  N         -9.0740   16.1970  -26.6600 N.3    42  THR42      -0.1218
     10  CA        -9.7650   17.0190  -27.6450 C.3    42  THR42       0.1862
     11  C         -8.9930   17.0600  -28.9560 C.2    42  THR42       0.2287
     12  O         -9.5820   16.9190  -30.0340 O.2    42  THR42      -0.2866
     13  CB        -9.9880   18.4210  -27.0810 C.3    42  THR42       0.1770
     14  OG1      -11.0500   18.3840  -26.1140 O.3    42  THR42      -0.2211
     15  CG2      -10.3500   19.3930  -28.1810 C.3    42  THR42       0.0375
     16  N         -9.4860   13.6680  -30.8440 N.3    45  MET45      -0.1230
     17  CA       -10.7900   13.4070  -31.4430 C.3    45  MET45       0.1702
     18  C        -10.9400   14.1140  -32.7890 C.2    45  MET45       0.2592
     19  O        -11.5440   13.5680  -33.7210 O.2    45  MET45      -0.2718
     20  CB       -11.8870   13.8370  -30.4720 C.3    45  MET45       0.0401
     21  CG       -13.0510   12.8750  -30.3610 C.3    45  MET45       0.0596
     22  SD       -13.8400   13.0630  -28.7510 S.3    45  MET45      -0.1393
     23  CE       -13.9970   14.8460  -28.6700 C.3    45  MET45       0.0692
     24  N        -10.3960   15.3290  -32.9060 N.am   46  ASN46      -0.1974
     25  CA       -10.4140   16.0380  -34.1820 C.3    46  ASN46       0.1688
     26  C         -9.5980   15.3000  -35.2280 C.2    46  ASN46       0.2292
     27  O         -9.9360   15.3070  -36.4180 O.2    46  ASN46      -0.2864
     28  CB        -9.8660   17.4520  -34.0060 C.3    46  ASN46       0.1181
     29  CG       -10.8250   18.3620  -33.2850 C.2    46  ASN46       0.2629
     30  OD1      -11.3000   19.3490  -33.8500 O.2    46  ASN46      -0.2716
     31  ND2      -11.1180   18.0410  -32.0330 N.am   46  ASN46      -0.0877
     32  N        -11.7110   12.4700  -36.7080 N.3    49  VAL49      -0.1245
     33  CA       -12.7280   12.9130  -37.6630 C.3    49  VAL49       0.1561
     34  C        -12.1130   13.1390  -39.0410 C.2    49  VAL49       0.2260
     35  O        -12.6190   12.6420  -40.0550 O.2    49  VAL49      -0.2867
     36  CB       -13.4380   14.1790  -37.1470 C.3    49  VAL49       0.0252
     37  CG1      -14.2030   14.8540  -38.2720 C.3    49  VAL49       0.0019
     38  CG2      -14.3790   13.8230  -36.0130 C.3    49  VAL49       0.0019
     39  N        -10.1100   23.5480  -27.8530 N.3   122  LYS122     -0.1245
     40  CA       -11.1470   23.6120  -28.8770 C.3   122  LYS122      0.1561
     41  C        -10.9110   24.7760  -29.8300 C.2   122  LYS122      0.2260
     42  O        -11.0880   24.6400  -31.0470 O.2   122  LYS122     -0.2867
     43  CB       -12.5260   23.7170  -28.2270 C.3   122  LYS122      0.0271
     44  CG       -12.9580   22.4700  -27.4700 C.3   122  LYS122      0.0035
     45  CD       -14.3260   22.6660  -26.8490 C.3   122  LYS122      0.0206
     46  CE       -14.7380   21.4750  -26.0000 C.3   122  LYS122      0.1093
     47  NZ       -16.0020   21.7450  -25.2420 N.3   122  LYS122     -0.1314
     48  N         -8.3070   23.8010  -32.1780 N.3   125  CYS125     -0.1221
     49  CA        -8.8630   22.8500  -33.1400 C.3   125  CYS125      0.1808
     50  C         -9.7000   23.5560  -34.2000 C.2   125  CYS125      0.2601
     51  O         -9.5930   23.2510  -35.3950 O.2   125  CYS125     -0.2717
     52  CB        -9.6950   21.7910  -32.4190 C.3   125  CYS125      0.0970
     53  SG        -8.7150   20.6120  -31.4650 S.3   125  CYS125     -0.0800
     54  N        -10.5390   24.5060  -33.7850 N.am  126  ALA126     -0.1979
     55  CA       -11.2720   25.3030  -34.7620 C.3   126  ALA126      0.1597
     56  C        -10.3200   26.0860  -35.6620 C.2   126  ALA126      0.2287
     57  O        -10.5840   26.2530  -36.8580 O.2   126  ALA126     -0.2864
     58  CB       -12.2380   26.2450  -34.0500 C.3   126  ALA126      0.0319
     59  N         -8.9510   23.6210  -38.1790 N.3   129  TRP129     -0.1227
     60  CA       -10.0160   23.3200  -39.1320 C.3   129  TRP129      0.1737
     61  C        -10.2620   24.4850  -40.0850 C.2   129  TRP129      0.2595
     62  O        -10.4590   24.2770  -41.2880 O.2   129  TRP129     -0.2718
     63  CB       -11.3020   22.9630  -38.3930 C.3   129  TRP129      0.0564
     64  CG       -11.3820   21.5270  -37.9480 C.ar  129  TRP129      0.0003
     65  CD1      -11.5040   21.0670  -36.6670 C.ar  129  TRP129      0.0946
     66  CD2      -11.3650   20.3660  -38.7880 C.ar  129  TRP129      0.0152
     67  NE1      -11.5610   19.6930  -36.6590 N.ar  129  TRP129     -0.2442
     68  CE2      -11.4740   19.2400  -37.9480 C.ar  129  TRP129      0.0810
     69  CE3      -11.2680   20.1690  -40.1670 C.ar  129  TRP129      0.0012
     70  CZ2      -11.4870   17.9380  -38.4420 C.ar  129  TRP129      0.0191
     71  CZ3      -11.2810   18.8760  -40.6530 C.ar  129  TRP129      0.0001
     72  CH2      -11.3910   17.7780  -39.7950 C.ar  129  TRP129      0.0015
     73  N        -10.2520   25.7180  -39.5720 N.am  130  VAL130     -0.1980
     74  CA       -10.4860   26.8760  -40.4340 C.3   130  VAL130      0.1595
     75  C         -9.4040   26.9740  -41.5030 C.2   130  VAL130      0.2287
     76  O         -9.7040   27.0440  -42.6970 O.2   130  VAL130     -0.2864
     77  CB       -10.5880   28.1670  -39.5990 C.3   130  VAL130      0.0276
     78  CG1      -10.3460   29.3810  -40.4690 C.3   130  VAL130      0.0022
     79  CG2      -11.9580   28.2540  -38.9490 C.3   130  VAL130      0.0022
     80  N         -9.5460   23.6380  -43.9440 N.3   133  LEU133     -0.1245
     81  CA       -10.6990   23.6020  -44.8400 C.3   133  LEU133      0.1561
     82  C        -10.7050   24.7880  -45.8010 C.2   133  LEU133      0.2260
     83  O        -11.0460   24.6320  -46.9790 O.2   133  LEU133     -0.2867
     84  CB       -11.9940   23.5520  -44.0370 C.3   133  LEU133      0.0270
     85  CG       -12.2480   22.2480  -43.2850 C.3   133  LEU133      0.0019
     86  CD1      -13.7170   22.1340  -42.9050 C.3   133  LEU133      0.0001
     87  CD2      -11.8030   21.0470  -44.1040 C.3   133  LEU133      0.0001
@<TRIPOS>BOND
     1    83    82    2
     2    82    81    1
     3    81    84    1
     4    81    80    1
     5    87    85    1
     6    84    85    1
     7    85    86    1
     8    76    75    2
     9    75    74    1
    10    62    61    2
    11    71    69   ar
    12    71    72   ar
    13    78    77    1
    14    74    77    1
    15    74    73    1
    16    69    66   ar
    17    61    73   am
    18    61    60    1
    19    35    34    2
    20    72    70   ar
    21    77    79    1
    22    60    63    1
    23    60    59    1
    24    34    33    1
    25    66    64   ar
    26    66    68   ar
    27    70    68   ar
    28    63    64    1
    29    37    36    1
    30    64    65   ar
    31    68    67   ar
    32    33    36    1
    33    33    32    1
    34    36    38    1
    35    57    56    2
    36    65    67   ar
    37    27    26    2
    38    56    55    1
    39    51    50    2
    40    26    25    1
    41    55    58    1
    42    55    54    1
    43    50    54   am
    44    50    49    1
    45    25    28    1
    46    25    24    1
    47    28    29    1
    48    30    29    2
    49    19    18    2
    50    29    31   am
    51    49    52    1
    52    49    48    1
    53    24    18   am
    54    18    17    1
    55    52    53    1
    56    17    16    1
    57    17    20    1
    58    42    41    2
    59    20    21    1
    60    21    22    1
    61    12    11    2
    62    41    40    1
    63    11    10    1
    64    40    43    1
    65    40    39    1
    66    22    23    1
    67    43    44    1
    68    15    13    1
    69    10    13    1
    70    10     9    1
    71    44    45    1
    72    13    14    1
    73    45    46    1
    74    46    47    1
    75     7     6    1
    76     6     8    1
    77     6     5    1
    78     2     5    1
    79     2     1    1
    80     2     3    1
    81     3     4    2
