@<TRIPOS>MOLECULE
tmp/5xszA01.pdb
 160 148 0 0 0
SMALL
GASTEIGER

@<TRIPOS>ATOM
      1  N         -7.6070   17.8350  -22.1090 N.3    39  GLU39      -0.1245
      2  CA        -7.4100   18.7210  -23.2510 C.3    39  GLU39       0.1567
      3  C         -6.7430   17.9810  -24.3950 C.2    39  GLU39       0.2260
      4  O         -7.0660   18.2100  -25.5670 O.2    39  GLU39      -0.2867
      5  CB        -6.5680   19.9290  -22.8490 C.3    39  GLU39       0.0388
      6  CG        -6.4710   20.1640  -21.3500 C.3    39  GLU39       0.1160
      7  CD        -5.1770   19.6340  -20.7460 C.2    39  GLU39       0.3649
      8  OE1       -5.1970   19.2470  -19.5570 O.co2  39  GLU39      -0.2457
      9  OE2       -4.1440   19.6050  -21.4560 O.co2  39  GLU39      -0.2457
     10  N         -7.6700   17.2180  -28.8860 N.3    43  TYR43      -0.1241
     11  CA        -6.8580   17.1900  -30.1000 C.3    43  TYR43       0.1605
     12  C         -6.9850   15.8540  -30.8200 C.2    43  TYR43       0.2264
     13  O         -7.0380   15.8050  -32.0550 O.2    43  TYR43      -0.2867
     14  CB        -5.3900   17.4660  -29.7740 C.3    43  TYR43       0.0534
     15  CG        -5.1320   18.8570  -29.2500 C.ar   43  TYR43      -0.0201
     16  CD1       -5.3140   19.9630  -30.0650 C.ar   43  TYR43      -0.0009
     17  CD2       -4.6910   19.0650  -27.9490 C.ar   43  TYR43      -0.0009
     18  CE1       -5.0760   21.2390  -29.6000 C.ar   43  TYR43       0.0417
     19  CE2       -4.4500   20.3430  -27.4730 C.ar   43  TYR43       0.0417
     20  CZ        -4.6460   21.4260  -28.3070 C.ar   43  TYR43       0.1957
     21  OH        -4.4160   22.7050  -27.8600 O.3    43  TYR43      -0.2866
     22  N         -0.8330   19.2990  -38.2240 N.3    93  LEU93      -0.1245
     23  CA        -1.0460   20.3070  -37.1950 C.3    93  LEU93       0.1561
     24  C         -1.5610   19.6860  -35.9060 C.2    93  LEU93       0.2260
     25  O         -1.0810   20.0220  -34.8200 O.2    93  LEU93      -0.2867
     26  CB        -1.9990   21.3780  -37.7120 C.3    93  LEU93       0.0270
     27  CG        -1.3460   22.2330  -38.7940 C.3    93  LEU93       0.0019
     28  CD1       -2.3050   23.2910  -39.3040 C.3    93  LEU93       0.0001
     29  CD2       -0.0710   22.8730  -38.2620 C.3    93  LEU93       0.0001
     30  N          1.1930   17.9670  -34.1490 N.3    96  THR96      -0.1203
     31  CA         2.0660   18.9760  -33.5620 C.3    96  THR96       0.1994
     32  C          1.4490   19.5560  -32.2960 C.2    96  THR96       0.2618
     33  O          2.1330   19.7190  -31.2800 O.2    96  THR96      -0.2717
     34  CB         2.3660   20.0700  -34.5910 C.3    96  THR96       0.1784
     35  OG1        3.4230   19.6220  -35.4480 O.3    96  THR96      -0.2211
     36  CG2        2.7920   21.3600  -33.9120 C.3    96  THR96       0.0376
     37  N          0.1460   19.8410  -32.3250 N.am   97  CYS97      -0.1969
     38  CA        -0.5220   20.3620  -31.1380 C.3    97  CYS97       0.1712
     39  C         -0.4470   19.3720  -29.9860 C.2    97  CYS97       0.2296
     40  O         -0.2170   19.7600  -28.8370 O.2    97  CYS97      -0.2864
     41  CB        -1.9730   20.6940  -31.4670 C.3    97  CYS97       0.0983
     42  SG        -2.1170   22.0880  -32.5850 S.3    97  CYS97      -0.0798
     43  N          2.9730   19.6980  -28.6520 N.3   100  VAL100     -0.1231
     44  CA         3.1210   20.9330  -27.8940 C.3   100  VAL100      0.1692
     45  C          2.4100   20.8170  -26.5550 C.2   100  VAL100      0.2592
     46  O          2.9250   21.2640  -25.5230 O.2   100  VAL100     -0.2718
     47  CB         2.6030   22.1280  -28.7130 C.3   100  VAL100      0.0266
     48  CG1        2.6200   23.3930  -27.8740 C.3   100  VAL100      0.0020
     49  CG2        3.4390   22.3050  -29.9710 C.3   100  VAL100      0.0020
     50  N          1.2240   20.2050  -26.5440 N.am  101  ASP101     -0.1974
     51  CA         0.4860   20.0480  -25.2940 C.3   101  ASP101      0.1709
     52  C          1.2590   19.1860  -24.2990 C.2   101  ASP101      0.2293
     53  O          1.3560   19.5260  -23.1160 O.2   101  ASP101     -0.2864
     54  CB        -0.8950   19.4520  -25.5720 C.3   101  ASP101      0.1436
     55  CG        -1.7780   19.4050  -24.3290 C.2   101  ASP101      0.3671
     56  OD1       -2.3920   20.4450  -23.9890 O.co2 101  ASP101     -0.2456
     57  OD2       -1.8570   18.3280  -23.6920 O.co2 101  ASP101     -0.2456
     58  N          4.2400   21.1270  -22.9450 N.3   104  LEU104     -0.1245
     59  CA         3.8390   22.0740  -21.9120 C.3   104  LEU104      0.1561
     60  C          3.5390   21.3590  -20.6020 C.2   104  LEU104      0.2260
     61  O          3.9840   21.7890  -19.5330 O.2   104  LEU104     -0.2867
     62  CB         2.6220   22.8690  -22.3790 C.3   104  LEU104      0.0270
     63  CG         2.8830   23.8260  -23.5400 C.3   104  LEU104      0.0019
     64  CD1        1.6170   24.5950  -23.8830 C.3   104  LEU104      0.0001
     65  CD2        4.0340   24.7760  -23.2080 C.3   104  LEU104      0.0001
     66  N         -2.5760   27.9400  -19.7110 N.3   115  LEU115     -0.1231
     67  CA        -2.5760   27.8630  -21.1650 C.3   115  LEU115      0.1693
     68  C         -3.4100   26.6890  -21.6530 C.2   115  LEU115      0.2592
     69  O         -4.2720   26.8510  -22.5230 O.2   115  LEU115     -0.2718
     70  CB        -1.1430   27.7630  -21.6830 C.3   115  LEU115      0.0284
     71  CG        -0.8690   28.3790  -23.0450 C.3   115  LEU115      0.0019
     72  CD1       -1.5440   29.7320  -23.1700 C.3   115  LEU115      0.0001
     73  CD2        0.6230   28.5130  -23.2380 C.3   115  LEU115      0.0001
     74  N         -3.1780   25.4990  -21.1030 N.am  116  ARG116     -0.1966
     75  CA        -3.8190   24.2850  -21.6070 C.3   116  ARG116      0.1729
     76  C         -5.0980   24.0090  -20.8230 C.2   116  ARG116      0.2616
     77  O         -5.0530   23.7010  -19.6340 O.2   116  ARG116     -0.2715
     78  CB        -2.8590   23.0950  -21.5650 C.3   116  ARG116      0.0348
     79  CG        -2.1880   22.8600  -20.2400 C.3   116  ARG116      0.0492
     80  CD        -1.3090   21.6210  -20.2740 C.3   116  ARG116      0.2205
     81  NE        -1.2520   20.9870  -18.9610 N.pl3 116  ARG116     -0.0865
     82  CZ        -0.5280   21.4390  -17.9400 C.cat 116  ARG116      0.5346
     83  NH1       -0.5440   20.7970  -16.7780 N.pl3 116  ARG116      0.1354
     84  NH2        0.2110   22.5340  -18.0800 N.pl3 116  ARG116      0.1354
     85  N         -6.2380   24.1320  -21.5010 N.am  117  THR117     -0.1951
     86  CA        -7.5450   23.8020  -20.9510 C.3   117  THR117      0.1897
     87  C         -8.4340   23.3580  -22.1020 C.2   117  THR117      0.2313
     88  O         -8.1250   23.5910  -23.2700 O.2   117  THR117     -0.2863
     89  CB        -8.1530   24.9850  -20.1860 C.3   117  THR117      0.1794
     90  OG1       -9.5800   24.9780  -20.3350 O.3   117  THR117     -0.2208
     91  CG2       -7.5990   26.3030  -20.7000 C.3   117  THR117      0.0378
     92  N         -9.4280   26.2480  -24.4670 N.3   120  ASN120     -0.1225
     93  CA        -8.3960   26.7200  -25.3860 C.3   120  ASN120      0.1785
     94  C         -8.0330   25.6790  -26.4370 C.2   120  ASN120      0.2597
     95  O         -7.6980   26.0420  -27.5710 O.2   120  ASN120     -0.2718
     96  CB        -7.1580   27.1390  -24.5980 C.3   120  ASN120      0.1169
     97  CG        -7.3450   28.4640  -23.8860 C.2   120  ASN120      0.2627
     98  OD1       -7.9920   28.5420  -22.8410 O.2   120  ASN120     -0.2716
     99  ND2       -6.7740   29.5190  -24.4540 N.am  120  ASN120     -0.0877
    100  N         -8.0860   24.3930  -26.0880 N.am  121  ALA121     -0.1979
    101  CA        -7.8040   23.3620  -27.0790 C.3   121  ALA121      0.1597
    102  C         -8.8310   23.3900  -28.2010 C.2   121  ALA121      0.2287
    103  O         -8.4770   23.2860  -29.3820 O.2   121  ALA121     -0.2864
    104  CB        -7.7690   21.9840  -26.4220 C.3   121  ALA121      0.0319
    105  N         -8.0480   26.1400  -30.6350 N.3   124  VAL124     -0.1245
    106  CA        -6.9670   25.7410  -31.5260 C.3   124  VAL124      0.1561
    107  C         -7.4880   24.7770  -32.5840 C.2   124  VAL124      0.2260
    108  O         -7.1850   24.9230  -33.7730 O.2   124  VAL124     -0.2867
    109  CB        -5.7980   25.1450  -30.7200 C.3   124  VAL124      0.0252
    110  CG1       -4.8670   24.3720  -31.6280 C.3   124  VAL124      0.0019
    111  CG2       -5.0380   26.2540  -30.0070 C.3   124  VAL124      0.0019
    112  N         -7.2390   25.1760  -36.5700 N.3   128  VAL128     -0.1245
    113  CA        -6.6800   24.2290  -37.5290 C.3   128  VAL128      0.1561
    114  C         -7.7120   23.9000  -38.6010 C.2   128  VAL128      0.2260
    115  O         -7.4160   23.9300  -39.8030 O.2   128  VAL128     -0.2867
    116  CB        -6.1750   22.9700  -36.8010 C.3   128  VAL128      0.0252
    117  CG1       -5.9330   21.8390  -37.7800 C.3   128  VAL128      0.0019
    118  CG2       -4.8960   23.2900  -36.0410 C.3   128  VAL128      0.0019
    119  N         -8.1320   26.9680  -41.0970 N.3   131  LEU131     -0.1245
    120  CA        -7.0490   27.0410  -42.0750 C.3   131  LEU131      0.1561
    121  C         -7.1500   25.9120  -43.0860 C.2   131  LEU131      0.2260
    122  O         -7.1350   26.1380  -44.3020 O.2   131  LEU131     -0.2867
    123  CB        -5.6850   26.9730  -41.3920 C.3   131  LEU131      0.0270
    124  CG        -5.3280   27.8840  -40.2320 C.3   131  LEU131      0.0019
    125  CD1       -3.8700   27.6510  -39.8720 C.3   131  LEU131      0.0001
    126  CD2       -5.5820   29.3410  -40.5840 C.3   131  LEU131      0.0001
    127  N          5.7640   26.2220  -44.6060 N.3   173  VAL173     -0.1231
    128  CA         5.3140   26.6160  -43.2750 C.3   173  VAL173      0.1692
    129  C          4.3270   25.5940  -42.7280 C.2   173  VAL173      0.2592
    130  O          4.3300   25.2940  -41.5290 O.2   173  VAL173     -0.2718
    131  CB         4.7060   28.0330  -43.2870 C.3   173  VAL173      0.0266
    132  CG1        3.7400   28.1920  -44.4470 C.3   173  VAL173      0.0020
    133  CG2        4.0090   28.3320  -41.9740 C.3   173  VAL173      0.0020
    134  N          3.4880   25.0380  -43.6030 N.am  174  GLY174     -0.1957
    135  CA         2.5480   24.0260  -43.1630 C.3   174  GLY174      0.1869
    136  C          3.2070   22.7290  -42.7260 C.2   174  GLY174      0.2309
    137  O          2.5980   21.9620  -41.9780 O.2   174  GLY174     -0.2863
    138  N          7.7520   24.0300  -40.4210 N.3   177  ILE177     -0.1231
    139  CA         7.6040   24.6570  -39.1090 C.3   177  ILE177      0.1678
    140  C          7.0170   23.6860  -38.0890 C.2   177  ILE177      0.2434
    141  O          7.5590   23.5980  -36.9750 O.2   177  ILE177     -0.2733
    142  CB         6.8130   25.9720  -39.2360 C.3   177  ILE177      0.0265
    143  CG1        7.7720   27.1590  -39.3720 C.3   177  ILE177      0.0019
    144  CG2        5.9040   26.1900  -38.0410 C.3   177  ILE177      0.0020
    145  CD1        8.6060   27.1490  -40.6390 C.3   177  ILE177      0.0001
    146  N          5.9590   22.9130  -38.3900 N.am  178  PRO178     -0.2729
    147  CA         5.5300   21.8940  -37.4140 C.3   178  PRO178      0.1401
    148  C          6.5760   20.8300  -37.1420 C.2   178  PRO178      0.2269
    149  O          6.7920   20.4720  -35.9770 O.2   178  PRO178     -0.2865
    150  CB         4.2770   21.2910  -38.0650 C.3   178  PRO178      0.0296
    151  CG         3.7430   22.3820  -38.8820 C.3   178  PRO178      0.0237
    152  CD         4.9630   23.0480  -39.4670 C.3   178  PRO178      0.0939
    153  N          9.0990   22.2220  -34.8930 N.3   181  LEU181     -0.1245
    154  CA         8.4770   22.4400  -33.5930 C.3   181  LEU181      0.1561
    155  C          8.3650   21.1330  -32.8160 C.2   181  LEU181      0.2260
    156  O          8.5980   21.1000  -31.6040 O.2   181  LEU181     -0.2867
    157  CB         7.1050   23.0750  -33.7900 C.3   181  LEU181      0.0270
    158  CG         6.5290   23.9080  -32.6510 C.3   181  LEU181      0.0019
    159  CD1        7.4890   25.0110  -32.2470 C.3   181  LEU181      0.0001
    160  CD2        5.2010   24.4900  -33.0930 C.3   181  LEU181      0.0001
@<TRIPOS>BOND
     1   127   128    1
     2   132   131    1
     3   122   121    2
     4   134   135    1
     5   134   129   am
     6   131   128    1
     7   131   133    1
     8   128   129    1
     9   135   136    1
    10   121   120    1
    11   129   130    2
    12   136   137    2
    13   120   123    1
    14   120   119    1
    15   123   124    1
    16   145   143    1
    17   126   124    1
    18   138   139    1
    19   124   125    1
    20   115   114    2
    21   152   151    1
    22   152   146    1
    23   143   142    1
    24    28    27    1
    25   142   139    1
    26   142   144    1
    27   139   140    1
    28   151   150    1
    29    27    29    1
    30    27    26    1
    31   114   113    1
    32   146   140   am
    33   146   147    1
    34    22    23    1
    35   140   141    2
    36   150   147    1
    37   117   116    1
    38    26    23    1
    39   113   116    1
    40   113   112    1
    41   147   148    1
    42    23    24    1
    43   148   149    2
    44   116   118    1
    45    24    25    2
    46    35    34    1
    47   153   154    1
    48    34    36    1
    49    34    31    1
    50    30    31    1
    51   157   154    1
    52   157   158    1
    53   108   107    2
    54   154   155    1
    55    31    32    1
    56   160   158    1
    57   155   156    2
    58   158   159    1
    59    42    41    1
    60   107   106    1
    61    37    32   am
    62    37    38    1
    63    32    33    2
    64    13    12    2
    65   110   109    1
    66   106   109    1
    67   106   105    1
    68    41    38    1
    69    38    39    1
    70    12    11    1
    71   109   111    1
    72    11    14    1
    73    11    10    1
    74    16    18   ar
    75    16    15   ar
    76    39    40    2
    77    49    47    1
    78    14    15    1
    79    18    20   ar
    80   103   102    2
    81    15    17   ar
    82    47    44    1
    83    47    48    1
    84    43    44    1
    85    20    21    1
    86    20    19   ar
    87   102   101    1
    88    17    19   ar
    89    44    45    1
    90    95    94    2
    91   101   104    1
    92   101   100    1
    93    45    50   am
    94    45    46    2
    95    50    51    1
    96    94   100   am
    97    94    93    1
    98    54    51    1
    99    54    55    1
   100     4     3    2
   101    93    96    1
   102    93    92    1
   103    51    52    1
   104    96    97    1
   105    99    97   am
   106     3     2    1
   107    55    56   ar
   108    55    57   ar
   109    52    53    2
   110    97    98    2
   111    64    63    1
   112    63    65    1
   113    63    62    1
   114    88    87    2
   115     2     5    1
   116     2     1    1
   117    73    71    1
   118    72    71    1
   119    71    70    1
   120    58    59    1
   121     5     6    1
   122    69    68    2
   123    62    59    1
   124    87    86    1
   125    59    60    1
   126    70    67    1
   127    68    67    1
   128    68    74   am
   129    75    78    1
   130    75    74    1
   131    75    76    1
   132    78    79    1
   133    85    86    1
   134    85    76   am
   135     9     7   ar
   136     6     7    1
   137    67    66    1
   138    86    89    1
   139    76    77    2
   140     7     8   ar
   141    91    89    1
   142    60    61    2
   143    90    89    1
   144    80    79    1
   145    80    81    1
   146    81    82    2
   147    84    82    1
   148    82    83    1
