@<TRIPOS>MOLECULE
tmp/5xszA00.pdb
 101 95 0 0 0
SMALL
GASTEIGER

@<TRIPOS>ATOM
      1  N         -5.7990   16.3710  -49.1410 N.3    85  TYR85      -0.1241
      2  CA        -4.9440   17.4440  -48.6470 C.3    85  TYR85       0.1605
      3  C         -5.4440   17.9680  -47.3060 C.2    85  TYR85       0.2264
      4  O         -4.6420   18.3600  -46.4490 O.2    85  TYR85      -0.2867
      5  CB        -4.8600   18.5660  -49.6830 C.3    85  TYR85       0.0534
      6  CG        -4.0600   18.1920  -50.9090 C.ar   85  TYR85      -0.0201
      7  CD1       -2.6810   18.3400  -50.9250 C.ar   85  TYR85      -0.0009
      8  CD2       -4.6800   17.6790  -52.0430 C.ar   85  TYR85      -0.0009
      9  CE1       -1.9370   17.9990  -52.0350 C.ar   85  TYR85       0.0417
     10  CE2       -3.9440   17.3300  -53.1600 C.ar   85  TYR85       0.0417
     11  CZ        -2.5710   17.4940  -53.1500 C.ar   85  TYR85       0.1957
     12  OH        -1.8230   17.1530  -54.2550 O.3    85  TYR85      -0.2866
     13  N         -2.7540   17.7170  -43.9910 N.3    89  TYR89      -0.1241
     14  CA        -2.2680   18.9070  -43.3010 C.3    89  TYR89       0.1605
     15  C         -2.9170   19.0630  -41.9320 C.2    89  TYR89       0.2264
     16  O         -2.2620   19.4920  -40.9740 O.2    89  TYR89      -0.2867
     17  CB        -2.5030   20.1410  -44.1680 C.3    89  TYR89       0.0534
     18  CG        -1.5680   20.1850  -45.3480 C.ar   89  TYR89      -0.0201
     19  CD1       -0.1930   20.2770  -45.1600 C.ar   89  TYR89      -0.0009
     20  CD2       -2.0510   20.1200  -46.6480 C.ar   89  TYR89      -0.0009
     21  CE1        0.6750   20.3100  -46.2370 C.ar   89  TYR89       0.0417
     22  CE2       -1.1920   20.1540  -47.7290 C.ar   89  TYR89       0.0417
     23  CZ         0.1660   20.2490  -47.5190 C.ar   89  TYR89       0.1957
     24  OH         1.0070   20.2830  -48.6000 O.3    89  TYR89      -0.2866
     25  N         -0.8330   19.2990  -38.2240 N.3    93  LEU93      -0.1245
     26  CA        -1.0460   20.3070  -37.1950 C.3    93  LEU93       0.1561
     27  C         -1.5610   19.6860  -35.9060 C.2    93  LEU93       0.2260
     28  O         -1.0810   20.0220  -34.8200 O.2    93  LEU93      -0.2867
     29  CB        -1.9990   21.3780  -37.7120 C.3    93  LEU93       0.0270
     30  CG        -1.3460   22.2330  -38.7940 C.3    93  LEU93       0.0019
     31  CD1       -2.3050   23.2910  -39.3040 C.3    93  LEU93       0.0001
     32  CD2       -0.0710   22.8730  -38.2620 C.3    93  LEU93       0.0001
     33  N         -8.1320   26.9680  -41.0970 N.3   131  LEU131     -0.1231
     34  CA        -7.0490   27.0410  -42.0750 C.3   131  LEU131      0.1693
     35  C         -7.1500   25.9120  -43.0860 C.2   131  LEU131      0.2591
     36  O         -7.1350   26.1380  -44.3020 O.2   131  LEU131     -0.2718
     37  CB        -5.6850   26.9730  -41.3920 C.3   131  LEU131      0.0284
     38  CG        -5.3280   27.8840  -40.2320 C.3   131  LEU131      0.0019
     39  CD1       -3.8700   27.6510  -39.8720 C.3   131  LEU131      0.0001
     40  CD2       -5.5820   29.3410  -40.5840 C.3   131  LEU131      0.0001
     41  N         -7.2540   24.6820  -42.5880 N.am  132  VAL132     -0.1980
     42  CA        -7.1530   23.5180  -43.4610 C.3   132  VAL132      0.1595
     43  C         -8.3170   23.4840  -44.4430 C.2   132  VAL132      0.2287
     44  O         -8.1190   23.3430  -45.6550 O.2   132  VAL132     -0.2864
     45  CB        -7.0660   22.2310  -42.6250 C.3   132  VAL132      0.0276
     46  CG1       -7.3930   21.0270  -43.4720 C.3   132  VAL132      0.0022
     47  CG2       -5.6690   22.1010  -42.0320 C.3   132  VAL132      0.0022
     48  N         -8.1070   26.3220  -46.9290 N.3   135  GLY135     -0.1210
     49  CA        -7.0750   26.1000  -47.9260 C.3   135  GLY135      0.1956
     50  C         -7.4410   24.9980  -48.9000 C.2   135  GLY135      0.2612
     51  O         -7.2290   25.1240  -50.1090 O.2   135  GLY135     -0.2717
     52  N         -8.0230   23.9190  -48.3930 N.am  136  SER136     -0.1952
     53  CA        -8.2110   22.7180  -49.1910 C.3   136  SER136      0.1924
     54  C         -9.5050   22.7220  -49.9950 C.2   136  SER136      0.2314
     55  O         -9.5060   22.2820  -51.1480 O.2   136  SER136     -0.2863
     56  CB        -8.1720   21.4800  -48.2940 C.3   136  SER136      0.2116
     57  OG        -7.1570   21.5880  -47.3190 O.3   136  SER136     -0.2180
     58  N         -9.2690   25.2420  -53.3480 N.3   139  THR139     -0.1218
     59  CA        -8.3970   24.7220  -54.3960 C.3   139  THR139      0.1862
     60  C         -8.9570   23.4290  -54.9740 C.2   139  THR139      0.2287
     61  O         -9.0380   23.2680  -56.1950 O.2   139  THR139     -0.2866
     62  CB        -6.9770   24.5110  -53.8660 C.3   139  THR139      0.1770
     63  OG1       -6.9340   23.3500  -53.0270 O.3   139  THR139     -0.2211
     64  CG2       -6.5170   25.7330  -53.0800 C.3   139  THR139      0.0375
     65  N          2.6010   26.0880  -53.7950 N.3   167  VAL167     -0.1245
     66  CA         2.8620   24.7880  -53.1730 C.3   167  VAL167      0.1561
     67  C          4.0730   24.8710  -52.2540 C.2   167  VAL167      0.2260
     68  O          4.0750   24.3080  -51.1550 O.2   167  VAL167     -0.2867
     69  CB         3.0450   23.6940  -54.2450 C.3   167  VAL167      0.0252
     70  CG1        3.6940   22.4410  -53.6410 C.3   167  VAL167      0.0019
     71  CG2        1.7100   23.3390  -54.8770 C.3   167  VAL167      0.0019
     72  N          5.1960   27.4680  -50.5930 N.3   169  PHE169     -0.1227
     73  CA         4.8510   28.1920  -49.3700 C.3   169  PHE169      0.1736
     74  C          4.1390   27.2780  -48.3760 C.2   169  PHE169      0.2595
     75  O          4.6270   27.0500  -47.2630 O.2   169  PHE169     -0.2718
     76  CB         3.9890   29.4190  -49.6940 C.3   169  PHE169      0.0547
     77  CG         3.6530   30.2720  -48.4870 C.ar  169  PHE169     -0.0202
     78  CD1        2.5900   29.9400  -47.6570 C.ar  169  PHE169     -0.0042
     79  CD2        4.3900   31.4130  -48.1910 C.ar  169  PHE169     -0.0042
     80  CE1        2.2780   30.7160  -46.5490 C.ar  169  PHE169     -0.0003
     81  CE2        4.0780   32.1950  -47.0810 C.ar  169  PHE169     -0.0003
     82  CZ         3.0220   31.8440  -46.2630 C.ar  169  PHE169     -0.0000
     83  N          2.9820   26.7300  -48.7710 N.am  170  ILE170     -0.1980
     84  CA         2.1950   25.9030  -47.8570 C.3   170  ILE170      0.1595
     85  C          3.0020   24.7030  -47.3830 C.2   170  ILE170      0.2287
     86  O          2.8860   24.2790  -46.2290 O.2   170  ILE170     -0.2864
     87  CB         0.8670   25.4760  -48.5130 C.3   170  ILE170      0.0276
     88  CG1        1.0990   24.8270  -49.8830 C.3   170  ILE170      0.0022
     89  CG2       -0.0700   26.6680  -48.6470 C.3   170  ILE170      0.0022
     90  CD1        1.0020   23.3080  -49.8960 C.3   170  ILE170      0.0001
     91  N          5.7640   26.2220  -44.6060 N.3   173  VAL173     -0.1231
     92  CA         5.3140   26.6160  -43.2750 C.3   173  VAL173      0.1692
     93  C          4.3270   25.5940  -42.7280 C.2   173  VAL173      0.2592
     94  O          4.3300   25.2940  -41.5290 O.2   173  VAL173     -0.2718
     95  CB         4.7060   28.0330  -43.2870 C.3   173  VAL173      0.0266
     96  CG1        3.7400   28.1920  -44.4470 C.3   173  VAL173      0.0020
     97  CG2        4.0090   28.3320  -41.9740 C.3   173  VAL173      0.0020
     98  N          3.4880   25.0380  -43.6030 N.am  174  GLY174     -0.1957
     99  CA         2.5480   24.0260  -43.1630 C.3   174  GLY174      0.1869
    100  C          3.2070   22.7290  -42.7260 C.2   174  GLY174      0.2309
    101  O          2.5980   21.9620  -41.9780 O.2   174  GLY174     -0.2863
@<TRIPOS>BOND
     1    61    60    2
     2    60    59    1
     3    71    69    1
     4    59    62    1
     5    59    58    1
     6    12    11    1
     7    69    70    1
     8    69    66    1
     9    62    64    1
    10    62    63    1
    11    65    66    1
    12    66    67    1
    13    10    11   ar
    14    10     8   ar
    15    11     9   ar
    16    67    68    2
    17     8     6   ar
    18     9     7   ar
    19    55    54    2
    20     7     6   ar
    21     6     5    1
    22    72    73    1
    23    51    50    2
    24    54    53    1
    25    90    88    1
    26    88    87    1
    27    76    73    1
    28    76    77    1
    29     5     2    1
    30    73    74    1
    31    53    52    1
    32    53    56    1
    33     1     2    1
    34    50    52   am
    35    50    49    1
    36    83    74   am
    37    83    84    1
    38     2     3    1
    39    89    87    1
    40    24    23    1
    41    87    84    1
    42    77    79   ar
    43    77    78   ar
    44    74    75    2
    45    56    57    1
    46    79    81   ar
    47    49    48    1
    48    84    85    1
    49    22    23   ar
    50    22    20   ar
    51    78    80   ar
    52    23    21   ar
    53    85    86    2
    54     3     4    2
    55    81    82   ar
    56    20    18   ar
    57    80    82   ar
    58    21    19   ar
    59    44    43    2
    60    18    19   ar
    61    18    17    1
    62    91    92    1
    63    96    95    1
    64    43    42    1
    65    36    35    2
    66    17    14    1
    67    13    14    1
    68    98    99    1
    69    98    93   am
    70    46    45    1
    71    42    45    1
    72    42    41    1
    73    14    15    1
    74    95    92    1
    75    95    97    1
    76    92    93    1
    77    99   100    1
    78    35    41   am
    79    35    34    1
    80    93    94    2
    81   100   101    2
    82    45    47    1
    83    34    37    1
    84    34    33    1
    85    15    16    2
    86    37    38    1
    87    40    38    1
    88    38    39    1
    89    31    30    1
    90    30    32    1
    91    30    29    1
    92    25    26    1
    93    29    26    1
    94    26    27    1
    95    27    28    2
