@<TRIPOS>MOLECULE
tmp/5xt0A05.pdb
 158 149 0 0 0
SMALL
GASTEIGER

@<TRIPOS>ATOM
      1  N        -25.0080   34.3470  -24.0760 N.3    25  HIS25      -0.1241
      2  CA       -25.5230   35.6470  -24.4960 C.3    25  HIS25       0.1621
      3  C        -24.7580   36.7500  -23.7980 C.2    25  HIS25       0.2264
      4  O        -24.9690   37.0100  -22.6020 O.2    25  HIS25      -0.2867
      5  CB       -27.0170   35.7650  -24.1600 C.3    25  HIS25       0.0745
      6  CG       -27.8580   34.7250  -24.8160 C.ar   25  HIS25       0.0817
      7  ND1      -27.9270   33.4320  -24.3490 N.ar   25  HIS25      -0.2268
      8  CD2      -28.6990   34.8260  -25.8800 C.ar   25  HIS25       0.1154
      9  CE1      -28.7550   32.7710  -25.1470 C.ar   25  HIS25       0.1986
     10  NE2      -29.2530   33.5940  -26.0570 N.ar   25  HIS25      -0.2212
     11  N        -26.7480   41.5960  -23.6810 N.3    28  ALA28      -0.1245
     12  CA       -27.5180   42.2520  -22.6330 C.3    28  ALA28       0.1562
     13  C        -26.7470   42.3110  -21.3190 C.2    28  ALA28       0.2260
     14  O        -26.8340   43.3300  -20.6280 O.2    28  ALA28      -0.2867
     15  CB       -28.9000   41.6170  -22.4820 C.3    28  ALA28       0.0290
     16  N        -35.5200   38.9340  -18.8620 N.3    62  ASN62      -0.1240
     17  CA       -34.7240   38.6100  -20.0500 C.3    62  ASN62       0.1653
     18  C        -33.6930   37.5710  -19.6410 C.2    62  ASN62       0.2266
     19  O        -32.4970   37.8440  -19.5100 O.2    62  ASN62      -0.2867
     20  CB       -34.1230   39.8710  -20.6820 C.3    62  ASN62       0.1155
     21  CG       -33.4370   40.8090  -19.7210 C.2    62  ASN62       0.2627
     22  OD1      -33.5970   40.7620  -18.4960 O.2    62  ASN62      -0.2716
     23  ND2      -32.6070   41.6910  -20.2970 N.am   62  ASN62      -0.0877
     24  N        -32.1310   35.0580  -20.8110 N.3    64  HIS64      -0.1241
     25  CA       -30.9330   34.7510  -21.5820 C.3    64  HIS64       0.1621
     26  C        -29.7350   35.5440  -21.0900 C.2    64  HIS64       0.2264
     27  O        -28.6010   35.1110  -21.3080 O.2    64  HIS64      -0.2867
     28  CB       -31.1710   34.9880  -23.0630 C.3    64  HIS64       0.0745
     29  CG       -31.5460   36.3920  -23.4190 C.ar   64  HIS64       0.0817
     30  ND1      -32.8410   36.8780  -23.3320 N.ar   64  HIS64      -0.2268
     31  CD2      -30.7660   37.3990  -23.8740 C.ar   64  HIS64       0.1154
     32  CE1      -32.8240   38.1380  -23.7650 C.ar   64  HIS64       0.1986
     33  NE2      -31.5790   38.4850  -24.0690 N.ar   64  HIS64      -0.2212
     34  N        -23.4360   26.7890  -18.4380 N.3    89  ARG89      -0.1245
     35  CA       -24.0070   26.0350  -19.5470 C.3    89  ARG89       0.1563
     36  C        -23.4770   24.6040  -19.6580 C.2    89  ARG89       0.2260
     37  O        -23.7150   23.9600  -20.6740 O.2    89  ARG89      -0.2867
     38  CB       -23.9600   26.7960  -20.8810 C.3    89  ARG89       0.0307
     39  CG       -24.9820   27.8950  -20.9540 C.3    89  ARG89       0.0489
     40  CD       -24.7910   28.8470  -22.1480 C.3    89  ARG89       0.2205
     41  NE       -25.9550   29.7000  -22.2940 N.pl3  89  ARG89      -0.0865
     42  CZ       -26.9960   29.4800  -23.1200 C.cat  89  ARG89       0.5346
     43  NH1      -26.8350   28.6650  -24.1660 N.pl3  89  ARG89       0.1354
     44  NH2      -28.1350   30.1030  -22.9120 N.pl3  89  ARG89       0.1354
     45  N        -30.2930   29.2840  -18.7570 N.3    98  HIS98      -0.1241
     46  CA       -31.3210   30.2130  -18.3040 C.3    98  HIS98       0.1621
     47  C        -31.5210   29.9280  -16.8130 C.2    98  HIS98       0.2264
     48  O        -31.3130   28.7920  -16.3610 O.2    98  HIS98      -0.2867
     49  CB       -32.6290   30.0370  -19.1160 C.3    98  HIS98       0.0745
     50  CG       -32.4450   30.4280  -20.5550 C.ar   98  HIS98       0.0817
     51  ND1      -31.9950   29.5710  -21.5400 N.ar   98  HIS98      -0.2268
     52  CD2      -32.5860   31.6340  -21.1630 C.ar   98  HIS98       0.1154
     53  CE1      -31.8950   30.2560  -22.6710 C.ar   98  HIS98       0.1986
     54  NE2      -32.2570   31.5140  -22.4750 N.ar   98  HIS98      -0.2212
     55  N        -36.3170   32.6740  -19.0720 N.3   112  GLY112     -0.1210
     56  CA       -35.8420   32.0620  -20.3130 C.3   112  GLY112      0.1940
     57  C        -36.9330   32.1210  -21.3640 C.2   112  GLY112      0.2454
     58  O        -36.7120   32.5190  -22.5020 O.2   112  GLY112     -0.2732
     59  N        -38.1450   31.7430  -20.9900 N.am  113  PRO113     -0.2717
     60  CA       -39.3250   31.9660  -21.8430 C.3   113  PRO113      0.1535
     61  C        -39.7390   33.4230  -21.6570 C.2   113  PRO113      0.2598
     62  O        -40.0930   33.8470  -20.5500 O.2   113  PRO113     -0.2715
     63  CB       -40.3390   30.9390  -21.2960 C.3   113  PRO113      0.0310
     64  CG       -39.4770   29.8940  -20.5920 C.3   113  PRO113      0.0237
     65  CD       -38.4270   30.7470  -19.9470 C.3   113  PRO113      0.0939
     66  N        -39.6330   34.2040  -22.7290 N.am  114  LEU114     -0.1978
     67  CA       -39.7760   35.6430  -22.6140 C.3   114  LEU114      0.1596
     68  C        -41.1720   36.0250  -22.1260 C.2   114  LEU114      0.2287
     69  O        -42.1830   35.3630  -22.4230 O.2   114  LEU114     -0.2864
     70  CB       -39.4740   36.2930  -23.9770 C.3   114  LEU114      0.0297
     71  CG       -37.9810   36.2010  -24.3430 C.3   114  LEU114      0.0022
     72  CD1      -37.7990   36.3400  -25.8500 C.3   114  LEU114      0.0001
     73  CD2      -37.1440   37.2630  -23.6080 C.3   114  LEU114      0.0001
     74  N        -36.5080   43.0250  -21.3670 N.3   152  GLY152     -0.1210
     75  CA       -36.0930   43.5520  -22.6510 C.3   152  GLY152      0.1956
     76  C        -37.2360   43.6990  -23.6280 C.2   152  GLY152      0.2612
     77  O        -38.4250   43.5260  -23.3240 O.2   152  GLY152     -0.2717
     78  N        -36.8620   44.0280  -24.8670 N.am  153  ASP153     -0.1959
     79  CA       -37.8390   44.2210  -25.9310 C.3   153  ASP153      0.1840
     80  C        -38.6540   42.9500  -26.1550 C.2   153  ASP153      0.2622
     81  O        -39.8560   43.0230  -26.4590 O.2   153  ASP153     -0.2715
     82  CB       -37.1110   44.5920  -27.2340 C.3   153  ASP153      0.1450
     83  CG       -36.2980   45.8720  -27.1120 C.2   153  ASP153      0.3671
     84  OD1      -36.8430   46.8700  -26.5900 O.co2 153  ASP153     -0.2456
     85  OD2      -35.1250   45.8640  -27.5320 O.co2 153  ASP153     -0.2456
     86  N        -38.0130   41.7710  -26.0340 N.am  154  GLY154     -0.1954
     87  CA       -38.7380   40.5440  -26.2600 C.3   154  GLY154      0.1869
     88  C        -39.8550   40.3290  -25.2520 C.2   154  GLY154      0.2309
     89  O        -40.9690   39.9360  -25.5980 O.2   154  GLY154     -0.2863
     90  N        -44.1550   40.1310  -25.9500 N.3   158  GLU158     -0.1245
     91  CA       -44.9790   38.9910  -25.5690 C.3   158  GLU158      0.1567
     92  C        -46.2630   39.4640  -24.9060 C.2   158  GLU158      0.2260
     93  O        -46.2390   40.2270  -23.9390 O.2   158  GLU158     -0.2867
     94  CB       -44.2270   38.0740  -24.6110 C.3   158  GLU158      0.0388
     95  CG       -43.2130   37.2080  -25.3160 C.3   158  GLU158      0.1160
     96  CD       -43.8190   36.0770  -26.1230 C.2   158  GLU158      0.3649
     97  OE1      -45.0480   35.9670  -26.2360 O.co2 158  GLU158     -0.2457
     98  OE2      -42.9710   35.2930  -26.6950 O.co2 158  GLU158     -0.2457
     99  N        -34.6530   47.3610  -20.7570 N.3   181  ASP181     -0.1239
    100  CA       -33.3900   47.4680  -21.4640 C.3   181  ASP181      0.1674
    101  C        -33.6810   47.9410  -22.8830 C.2   181  ASP181      0.2266
    102  O        -33.9360   47.1640  -23.8190 O.2   181  ASP181     -0.2867
    103  CB       -32.6530   46.1440  -21.4660 C.3   181  ASP181      0.1410
    104  CG       -31.2980   46.2720  -22.1160 C.2   181  ASP181      0.3668
    105  OD1      -30.9480   47.4280  -22.4420 O.co2 181  ASP181     -0.2456
    106  OD2      -30.6010   45.2470  -22.2690 O.co2 181  ASP181     -0.2456
    107  N        -32.4930   48.8600  -25.8780 N.3   183  ASN183     -0.1240
    108  CA       -31.2920   48.7720  -26.6920 C.3   183  ASN183      0.1653
    109  C        -31.5980   48.6480  -28.1760 C.2   183  ASN183      0.2266
    110  O        -30.6720   48.6080  -28.9880 O.2   183  ASN183     -0.2867
    111  CB       -30.3560   47.6510  -26.2220 C.3   183  ASN183      0.1155
    112  CG       -30.9590   46.2660  -26.3210 C.2   183  ASN183      0.2627
    113  OD1      -31.9350   46.0530  -27.0670 O.2   183  ASN183     -0.2716
    114  ND2      -30.3960   45.3060  -25.5940 N.am  183  ASN183     -0.0877
    115  N        -32.5010   46.3660  -30.1640 N.3   185  ILE185     -0.1231
    116  CA       -31.9800   45.1950  -30.8710 C.3   185  ILE185      0.1692
    117  C        -32.6260   43.9320  -30.3410 C.2   185  ILE185      0.2593
    118  O        -32.6100   43.7060  -29.1220 O.2   185  ILE185     -0.2718
    119  CB       -30.4490   45.0810  -30.7210 C.3   185  ILE185      0.0266
    120  CG1      -29.7190   46.2120  -31.4540 C.3   185  ILE185      0.0019
    121  CG2      -29.9580   43.6850  -31.1400 C.3   185  ILE185      0.0020
    122  CD1      -29.7350   46.0930  -32.9670 C.3   185  ILE185      0.0001
    123  N        -33.1300   43.0890  -31.2350 N.am  186  SER186     -0.1938
    124  CA       -33.5850   41.7560  -30.8750 C.3   186  SER186      0.2055
    125  C        -32.9420   40.7890  -31.8560 C.2   186  SER186      0.2642
    126  O        -32.0470   41.1720  -32.6190 O.2   186  SER186     -0.2714
    127  CB       -35.1060   41.6810  -30.8240 C.3   186  SER186      0.2130
    128  OG       -35.6780   41.7850  -32.1330 O.3   186  SER186     -0.2179
    129  N        -33.3800   39.5310  -31.8760 N.am  187  ILE187     -0.1977
    130  CA       -32.6630   38.5520  -32.7180 C.3   187  ILE187      0.1596
    131  C        -32.7410   38.8910  -34.1920 C.2   187  ILE187      0.2287
    132  O        -31.7530   38.7050  -34.9280 O.2   187  ILE187     -0.2864
    133  CB       -33.1570   37.1360  -32.4220 C.3   187  ILE187      0.0276
    134  CG1      -32.5730   36.6940  -31.0700 C.3   187  ILE187      0.0022
    135  CG2      -32.7950   36.1740  -33.5250 C.3   187  ILE187      0.0022
    136  CD1      -32.9900   35.3170  -30.6350 C.3   187  ILE187      0.0001
    137  N        -26.5520   47.5250  -26.6340 N.3   246  ILE246     -0.1245
    138  CA       -26.3480   46.0900  -26.4540 C.3   246  ILE246      0.1561
    139  C        -24.8700   45.7950  -26.6800 C.2   246  ILE246      0.2260
    140  O        -24.2470   46.3210  -27.6050 O.2   246  ILE246     -0.2867
    141  CB       -27.2700   45.2590  -27.3580 C.3   246  ILE246      0.0252
    142  CG1      -27.3190   43.8130  -26.8450 C.3   246  ILE246      0.0019
    143  CG2      -26.9170   45.3650  -28.8380 C.3   246  ILE246      0.0019
    144  CD1      -28.2550   42.9170  -27.6260 C.3   246  ILE246      0.0001
    145  N        -26.0290   39.6830  -29.4480 N.3   259  HIS259     -0.1226
    146  CA       -27.0930   39.2120  -28.5690 C.3   259  HIS259      0.1752
    147  C        -26.7900   37.8370  -28.0050 C.2   259  HIS259      0.2596
    148  O        -26.9710   37.6110  -26.8080 O.2   259  HIS259     -0.2718
    149  CB       -28.4160   39.1810  -29.3360 C.3   259  HIS259      0.0759
    150  CG       -29.3910   38.1690  -28.8160 C.ar  259  HIS259      0.0818
    151  ND1      -30.1850   38.3950  -27.7140 N.ar  259  HIS259     -0.2268
    152  CD2      -29.6620   36.9060  -29.2250 C.ar  259  HIS259      0.1154
    153  CE1      -30.8980   37.3090  -27.4630 C.ar  259  HIS259      0.1986
    154  NE2      -30.6120   36.3970  -28.3760 N.ar  259  HIS259     -0.2212
    155  N        -26.3770   36.9070  -28.8690 N.am  260  GLY260     -0.1957
    156  CA       -26.5370   35.4960  -28.5550 C.3   260  GLY260      0.1869
    157  C        -25.4400   34.5710  -28.9320 C.2   260  GLY260      0.2309
    158  O        -25.6740   33.3580  -29.0200 O.2   260  GLY260     -0.2863
@<TRIPOS>BOND
     1   132   131    2
     2   131   130    1
     3   135   133    1
     4   122   120    1
     5   130   133    1
     6   130   129    1
     7   126   125    2
     8   133   134    1
     9   128   127    1
    10   129   125   am
    11   125   124    1
    12   120   119    1
    13   123   124    1
    14   123   117   am
    15   121   119    1
    16   134   136    1
    17   124   127    1
    18   116   119    1
    19   116   117    1
    20   116   115    1
    21   117   118    2
    22   145   146    1
    23   149   150    1
    24   149   146    1
    25   152   150   ar
    26   152   154   ar
    27   158   157    2
    28   110   109    2
    29   157   156    1
    30   155   156    1
    31   155   147   am
    32   143   141    1
    33   150   151   ar
    34   146   147    1
    35   154   153   ar
    36   109   108    1
    37   147   148    2
    38   151   153   ar
    39   144   142    1
    40   140   139    2
    41    85    83   ar
    42   141   142    1
    43   141   138    1
    44    82    83    1
    45    82    79    1
    46    83    84   ar
    47   113   112    2
    48    98    96   ar
    49   108   111    1
    50   108   107    1
    51   139   138    1
    52   137   138    1
    53    81    80    2
    54   112   111    1
    55   112   114   am
    56    87    86    1
    57    87    88    1
    58    97    96   ar
    59    80    86   am
    60    80    79    1
    61    96    95    1
    62    10     8   ar
    63    10     9   ar
    64    90    91    1
    65    79    78    1
    66     8     6   ar
    67    72    71    1
    68    89    88    2
    69    91    92    1
    70    91    94    1
    71    95    94    1
    72     9     7   ar
    73    92    93    2
    74    78    76   am
    75     6     7   ar
    76     6     5    1
    77     2     5    1
    78     2     1    1
    79     2     3    1
    80    71    70    1
    81    71    73    1
    82    43    42    1
    83    33    31   ar
    84    33    32   ar
    85    70    67    1
    86    31    29   ar
    87   102   101    2
    88     3     4    2
    89    32    30   ar
    90    11    12    1
    91    76    77    2
    92    76    75    1
    93    29    30   ar
    94    29    28    1
    95    42    44    1
    96    42    41    2
    97    28    25    1
    98   101   100    1
    99    66    67    1
   100    66    61   am
   101    53    54   ar
   102    53    51   ar
   103    75    74    1
   104    12    15    1
   105    12    13    1
   106    67    68    1
   107    58    57    2
   108    54    52   ar
   109   105   104   ar
   110    69    68    2
   111    41    40    1
   112   106   104   ar
   113    40    39    1
   114   104   103    1
   115    60    61    1
   116    60    63    1
   117    60    59    1
   118    61    62    2
   119    25    26    1
   120    25    24    1
   121    51    50   ar
   122   103   100    1
   123   100    99    1
   124    57    59   am
   125    57    56    1
   126    13    14    2
   127    27    26    2
   128    63    64    1
   129    52    50   ar
   130    59    65    1
   131    39    38    1
   132    38    35    1
   133    20    17    1
   134    20    21    1
   135    37    36    2
   136    64    65    1
   137    50    49    1
   138    56    55    1
   139    23    21   am
   140    17    18    1
   141    17    16    1
   142    21    22    2
   143    36    35    1
   144    18    19    2
   145    35    34    1
   146    49    46    1
   147    45    46    1
   148    46    47    1
   149    47    48    2
