@<TRIPOS>MOLECULE
tmp/5xt3B00.pdb
 135 128 0 0 0
SMALL
GASTEIGER

@<TRIPOS>ATOM
      1  N         19.2940    8.3740   28.9960 N.3   181  ARG181     -0.1245
      2  CA        20.3730    7.6490   29.6820 C.3   181  ARG181      0.1563
      3  C         20.8220    6.4380   28.8630 C.2   181  ARG181      0.2260
      4  O         20.7380    5.3010   29.3180 O.2   181  ARG181     -0.2867
      5  CB        19.9590    7.2030   31.0880 C.3   181  ARG181      0.0307
      6  CG        19.5480    8.3220   32.0300 C.3   181  ARG181      0.0489
      7  CD        19.4880    7.7980   33.4720 C.3   181  ARG181      0.2205
      8  NE        18.7950    8.6950   34.4020 N.pl3 181  ARG181     -0.0865
      9  CZ        19.3510    9.7630   34.9760 C.cat 181  ARG181      0.5346
     10  NH1       20.6140   10.0820   34.7080 N.pl3 181  ARG181      0.1354
     11  NH2       18.6440   10.5210   35.8100 N.pl3 181  ARG181      0.1354
     12  N         26.3560   16.3260   47.2570 N.3   249  PRO249     -0.2102
     13  CA        25.0110   15.7600   47.1230 C.3   249  PRO249      0.1504
     14  C         24.8280   14.9670   45.8290 C.2   249  PRO249      0.2575
     15  O         23.9460   14.1100   45.7550 O.2   249  PRO249     -0.2718
     16  CB        24.1190   17.0060   47.0890 C.3   249  PRO249      0.0282
     17  CG        24.8720   18.0120   47.8620 C.3   249  PRO249      0.0208
     18  CD        26.3190   17.7690   47.5450 C.3   249  PRO249      0.0893
     19  N         25.6370   15.2610   44.8160 N.am  250  VAL250     -0.1980
     20  CA        25.4870   14.6040   43.5210 C.3   250  VAL250      0.1595
     21  C         26.2840   13.2960   43.4970 C.2   250  VAL250      0.2287
     22  O         25.8360   12.2960   42.9350 O.2   250  VAL250     -0.2864
     23  CB        25.8480   15.5480   42.3390 C.3   250  VAL250      0.0276
     24  CG1       25.1540   16.9000   42.5210 C.3   250  VAL250      0.0022
     25  CG2       27.3470   15.7510   42.2260 C.3   250  VAL250      0.0022
     26  N         23.8950   11.0470   45.4380 N.3   253  ALA253     -0.1231
     27  CA        22.7610   10.6510   44.6160 C.3   253  ALA253      0.1694
     28  C         23.1760    9.6600   43.5300 C.2   253  ALA253      0.2591
     29  O         22.4170    8.7530   43.1760 O.2   253  ALA253     -0.2718
     30  CB        22.0910   11.8710   44.0020 C.3   253  ALA253      0.0304
     31  N         24.3820    9.8350   43.0040 N.am  254  GLN254     -0.1979
     32  CA        24.9060    8.9370   41.9800 C.3   254  GLN254      0.1601
     33  C         25.2310    7.5400   42.5210 C.2   254  GLN254      0.2287
     34  O         24.9030    6.5440   41.8900 O.2   254  GLN254     -0.2864
     35  CB        26.1360    9.5460   41.3170 C.3   254  GLN254      0.0394
     36  CG        25.8310   10.7410   40.4410 C.3   254  GLN254      0.0908
     37  CD        27.0950   11.4620   40.0100 C.2   254  GLN254      0.2608
     38  OE1       28.1910   11.1700   40.4960 O.2   254  GLN254     -0.2717
     39  NE2       26.9480   12.4120   39.0960 N.am  254  GLN254     -0.0878
     40  N         22.1070    5.7500   43.0970 N.3   257  ASP257     -0.1239
     41  CA        21.6630    5.3680   41.7650 C.3   257  ASP257      0.1674
     42  C         22.4290    4.1540   41.2420 C.2   257  ASP257      0.2266
     43  O         21.8480    3.2500   40.6490 O.2   257  ASP257     -0.2867
     44  CB        21.8280    6.5410   40.7980 C.3   257  ASP257      0.1410
     45  CG        20.6490    7.4910   40.8260 C.2   257  ASP257      0.3668
     46  OD1       19.5080    7.0230   41.0530 O.co2 257  ASP257     -0.2456
     47  OD2       20.8630    8.7050   40.6080 O.co2 257  ASP257     -0.2456
     48  N         27.0710   15.5240   55.0290 N.3   274  ARG274     -0.1245
     49  CA        26.6360   16.4610   54.0000 C.3   274  ARG274      0.1563
     50  C         27.1350   17.8790   54.2590 C.2   274  ARG274      0.2260
     51  O         27.3100   18.6580   53.3220 O.2   274  ARG274     -0.2867
     52  CB        25.1170   16.4730   53.8980 C.3   274  ARG274      0.0307
     53  CG        24.5960   16.8070   52.5250 C.3   274  ARG274      0.0489
     54  CD        23.2830   17.5310   52.6410 C.3   274  ARG274      0.2205
     55  NE        22.2550   17.0080   51.7480 N.pl3 274  ARG274     -0.0865
     56  CZ        21.9270   17.5570   50.5840 C.cat 274  ARG274      0.5346
     57  NH1       22.5550   18.6470   50.1650 N.pl3 274  ARG274      0.1354
     58  NH2       20.9700   17.0210   49.8400 N.pl3 274  ARG274      0.1354
     59  N         20.3430    9.4030   50.7470 N.3   282  SER282     -0.1217
     60  CA        19.7110    9.2300   49.4470 C.3   282  SER282      0.1889
     61  C         19.1510    7.8140   49.3210 C.2   282  SER282      0.2288
     62  O         19.8130    6.8310   49.6750 O.2   282  SER282     -0.2866
     63  CB        20.7010    9.5340   48.3180 C.3   282  SER282      0.2089
     64  OG        20.9990   10.9180   48.2640 O.3   282  SER282     -0.2183
     65  N         16.7830    5.0020   46.8450 N.3   284  ARG284     -0.1245
     66  CA        16.3020    4.6540   45.5130 C.3   284  ARG284      0.1563
     67  C         15.8010    3.2200   45.5250 C.2   284  ARG284      0.2260
     68  O         16.2680    2.4010   46.3130 O.2   284  ARG284     -0.2867
     69  CB        17.4290    4.7710   44.4770 C.3   284  ARG284      0.0307
     70  CG        18.4480    5.8730   44.7350 C.3   284  ARG284      0.0489
     71  CD        17.9310    7.2290   44.2750 C.3   284  ARG284      0.2205
     72  NE        18.6580    8.3170   44.9270 N.pl3 284  ARG284     -0.0865
     73  CZ        18.5210    9.6030   44.6290 C.cat 284  ARG284      0.5346
     74  NH1       17.6850    9.9790   43.6760 N.pl3 284  ARG284      0.1354
     75  NH2       19.2320   10.5090   45.2800 N.pl3 284  ARG284      0.1354
     76  N         11.7290   12.6380   58.5400 N.3   299  GLY299     -0.1210
     77  CA        11.6720   14.0660   58.3000 C.3   299  GLY299      0.1956
     78  C         12.1310   14.4050   56.8990 C.2   299  GLY299      0.2612
     79  O         12.5860   15.5200   56.6300 O.2   299  GLY299     -0.2717
     80  N         12.0180   13.4320   56.0030 N.am  300  GLY300     -0.1942
     81  CA        12.3490   13.6380   54.6070 C.3   300  GLY300      0.2014
     82  C         11.1590   13.3290   53.7240 C.2   300  GLY300      0.2639
     83  O         10.0130   13.5680   54.1030 O.2   300  GLY300     -0.2714
     84  N         11.4300   12.7970   52.5380 N.am  301  GLY301     -0.1939
     85  CA        10.3710   12.4070   51.6290 C.3   301  GLY301      0.2014
     86  C         10.7970   12.4850   50.1790 C.2   301  GLY301      0.2639
     87  O         11.9120   12.8950   49.8720 O.2   301  GLY301     -0.2714
     88  N          9.9010   12.0840   49.2860 N.am  302  GLY302     -0.1939
     89  CA        10.1500   12.1740   47.8630 C.3   302  GLY302      0.2014
     90  C          9.1310   11.3750   47.0790 C.2   302  GLY302      0.2638
     91  O          7.9490   11.7100   47.0430 O.2   302  GLY302     -0.2714
     92  N          9.5930   10.3030   46.4510 N.am  303  HIS303     -0.1973
     93  CA         8.7190    9.4680   45.6520 C.3   303  HIS303      0.1656
     94  C          9.0710    8.0160   45.9010 C.2   303  HIS303      0.2291
     95  O         10.1290    7.7230   46.4570 O.2   303  HIS303     -0.2864
     96  CB         8.8550    9.8390   44.1800 C.3   303  HIS303      0.0771
     97  CG         8.7970   11.3140   43.9390 C.ar  303  HIS303      0.0820
     98  ND1        9.7910   12.1750   44.3540 N.ar  303  HIS303     -0.2267
     99  CD2        7.8510   12.0880   43.3530 C.ar  303  HIS303      0.1154
    100  CE1        9.4670   13.4130   44.0240 C.ar  303  HIS303      0.1986
    101  NE2        8.2950   13.3870   43.4140 N.ar  303  HIS303     -0.2212
    102  N         12.3450    7.4860   44.3570 N.3   306  ASN306     -0.1225
    103  CA        13.3360    8.5310   44.5370 C.3   306  ASN306      0.1785
    104  C         12.9860    9.5100   45.6590 C.2   306  ASN306      0.2597
    105  O         12.2670   10.4940   45.4410 O.2   306  ASN306     -0.2718
    106  CB        13.5200    9.2810   43.2150 C.3   306  ASN306      0.1169
    107  CG        14.5910   10.3630   43.2880 C.2   306  ASN306      0.2627
    108  OD1       14.8210   10.9690   44.3380 O.2   306  ASN306     -0.2716
    109  ND2       15.2450   10.6170   42.1580 N.am  306  ASN306     -0.0877
    110  N         13.5080    9.2500   46.8530 N.am  307  ALA307     -0.1966
    111  CA        13.2900   10.1370   47.9910 C.3   307  ALA307      0.1728
    112  C         14.5860   10.3070   48.7600 C.2   307  ALA307      0.2616
    113  O         15.5760    9.6620   48.4400 O.2   307  ALA307     -0.2715
    114  CB        12.1990    9.5860   48.8960 C.3   307  ALA307      0.0334
    115  N         14.5800   11.1710   49.7730 N.am  308  ALA308     -0.1963
    116  CA        15.7840   11.4300   50.5610 C.3   308  ALA308      0.1728
    117  C         15.5030   12.2320   51.8210 C.2   308  ALA308      0.2617
    118  O         14.3900   12.7230   52.0230 O.2   308  ALA308     -0.2715
    119  CB        16.8160   12.1450   49.7230 C.3   308  ALA308      0.0334
    120  N         16.5290   12.3590   52.6630 N.am  309  THR309     -0.1937
    121  CA        16.4540   13.1820   53.8710 C.3   309  THR309      0.2028
    122  C         17.8160   13.6890   54.3560 C.2   309  THR309      0.2642
    123  O         18.8740   13.1420   54.0180 O.2   309  THR309     -0.2714
    124  CB        15.7960   12.4260   55.0480 C.3   309  THR309      0.1808
    125  OG1       14.7040   11.6410   54.5660 O.3   309  THR309     -0.2208
    126  CG2       15.2850   13.4100   56.1010 C.3   309  THR309      0.0379
    127  N         17.7690   14.7410   55.1680 N.am  310  GLN310     -0.1976
    128  CA        18.9440   15.2280   55.8770 C.3   310  GLN310      0.1601
    129  C         18.6410   15.2180   57.3770 C.2   310  GLN310      0.2287
    130  O         17.4930   15.4090   57.7870 O.2   310  GLN310     -0.2864
    131  CB        19.3190   16.6480   55.4160 C.3   310  GLN310      0.0394
    132  CG        19.1250   16.9340   53.9230 C.3   310  GLN310      0.0908
    133  CD        17.6570   16.9760   53.5320 C.2   310  GLN310      0.2608
    134  OE1       16.7790   16.9990   54.3950 O.2   310  GLN310     -0.2717
    135  NE2       17.3840   16.9740   52.2290 N.am  310  GLN310     -0.0878
@<TRIPOS>BOND
     1     3     4    2
     2     3     2    1
     3     1     2    1
     4     2     5    1
     5     5     6    1
     6     6     7    1
     7     7     8    1
     8     8     9    2
     9    10     9    1
    10     9    11    1
    11    39    37   am
    12    37    36    1
    13    37    38    2
    14    36    35    1
    15    47    45   ar
    16    43    42    2
    17    44    45    1
    18    44    41    1
    19    45    46   ar
    20    42    41    1
    21    35    32    1
    22    41    40    1
    23    34    33    2
    24    32    33    1
    25    32    31    1
    26   109   107   am
    27    25    23    1
    28    23    24    1
    29    23    20    1
    30    22    21    2
    31    31    28   am
    32    29    28    2
    33   106   107    1
    34   106   103    1
    35   107   108    2
    36    99   101   ar
    37    99    97   ar
    38   101   100   ar
    39    21    20    1
    40    20    19    1
    41    28    27    1
    42    74    73    1
    43    97    96    1
    44    97    98   ar
    45    30    27    1
    46   100    98   ar
    47    96    93    1
    48    71    70    1
    49    71    72    1
    50   102   103    1
    51    69    70    1
    52    69    66    1
    53   103   104    1
    54    27    26    1
    55    73    72    2
    56    73    75    1
    57    19    14   am
    58   105   104    2
    59    66    67    1
    60    66    65    1
    61    67    68    2
    62    93    94    1
    63    93    92    1
    64   104   110   am
    65    15    14    2
    66    14    13    1
    67    94    95    2
    68    92    90   am
    69   110   111    1
    70    91    90    2
    71    90    89    1
    72    16    13    1
    73    16    17    1
    74    13    12    1
    75    12    18    1
    76    18    17    1
    77    89    88    1
    78   111   112    1
    79   111   114    1
    80    64    63    1
    81    63    60    1
    82   113   112    2
    83   112   115   am
    84    88    86   am
    85    61    60    1
    86    61    62    2
    87    60    59    1
    88   119   116    1
    89   115   116    1
    90    58    56    1
    91    87    86    2
    92    57    56    1
    93    86    85    1
    94   116   117    1
    95    56    55    2
    96    85    84    1
    97    55    54    1
    98   117   118    2
    99   117   120   am
   100   135   133   am
   101    53    54    1
   102    53    52    1
   103    84    82   am
   104   120   121    1
   105    51    50    2
   106   133   132    1
   107   133   134    2
   108    82    83    2
   109    82    81    1
   110   121   122    1
   111   121   124    1
   112    52    49    1
   113   132   131    1
   114    49    50    1
   115    49    48    1
   116   123   122    2
   117   122   127   am
   118   125   124    1
   119    81    80    1
   120   124   126    1
   121   127   128    1
   122   131   128    1
   123   128   129    1
   124    80    78   am
   125    79    78    2
   126    78    77    1
   127   129   130    2
   128    77    76    1
