@<TRIPOS>MOLECULE
tmp/5xteT10.pdb
 103 99 0 0 0
SMALL
GASTEIGER

@<TRIPOS>ATOM
      1  N        209.9480  284.3970  268.7120 N.3     2  PRO2       -0.2102
      2  CA       209.6530  284.6570  267.3000 C.3     2  PRO2        0.1504
      3  C        210.8020  284.2580  266.3810 C.2     2  PRO2        0.2576
      4  O        211.9640  284.3860  266.7610 O.2     2  PRO2       -0.2718
      5  CB       209.4110  286.1680  267.2670 C.3     2  PRO2        0.0282
      6  CG       210.1510  286.6940  268.4350 C.3     2  PRO2        0.0208
      7  CD       210.0500  285.6400  269.4920 C.3     2  PRO2        0.0893
      8  N        210.4680  283.7720  265.1890 N.am    3  MET3       -0.1966
      9  CA       211.4710  283.2900  264.2460 C.3     3  MET3        0.1736
     10  C        212.3360  284.4090  263.6780 C.2     3  MET3        0.2616
     11  O        213.4270  284.1530  263.1700 O.2     3  MET3       -0.2715
     12  CB       210.8040  282.5250  263.1040 C.3     3  MET3        0.0427
     13  CG       210.1480  281.2300  263.5400 C.3     3  MET3        0.0599
     14  SD       211.3270  280.1050  264.3110 S.3     3  MET3       -0.1393
     15  CE       212.4030  279.7370  262.9290 C.3     3  MET3        0.0692
     16  N        211.8480  285.6440  263.7550 N.am    4  ARG4       -0.1977
     17  CA       212.6060  286.7850  263.2580 C.3     4  ARG4        0.1597
     18  C        213.9160  286.9010  264.0170 C.2     4  ARG4        0.2287
     19  O        214.9350  287.3220  263.4720 O.2     4  ARG4       -0.2864
     20  CB       211.8280  288.0870  263.4310 C.3     4  ARG4        0.0334
     21  CG       210.5140  288.1910  262.6980 C.3     4  ARG4        0.0492
     22  CD       209.8700  289.5050  263.0920 C.3     4  ARG4        0.2205
     23  NE       209.6720  289.5740  264.5370 N.pl3   4  ARG4       -0.0865
     24  CZ       209.1950  290.6340  265.1790 C.cat   4  ARG4        0.5346
     25  NH1      208.8760  291.7270  264.5060 N.pl3   4  ARG4        0.1354
     26  NH2      209.0520  290.6070  266.4970 N.pl3   4  ARG4        0.1354
     27  N        216.4070  286.9030  258.6180 N.3    10  MET10      -0.1245
     28  CA       215.2660  287.4640  259.3170 C.3    10  MET10       0.1570
     29  C        215.7220  288.3570  260.4580 C.2    10  MET10       0.2261
     30  O        214.9920  289.2510  260.8670 O.2    10  MET10      -0.2867
     31  CB       214.3460  286.3630  259.8390 C.3    10  MET10       0.0387
     32  CG       213.6280  285.5960  258.7460 C.3    10  MET10       0.0595
     33  SD       212.6270  286.6910  257.7250 S.3    10  MET10      -0.1393
     34  CE       211.4290  287.2600  258.9260 C.3    10  MET10       0.0692
     35  N        216.6230  291.6850  258.5430 N.3    13  ILE13      -0.1245
     36  CA       215.3800  292.3390  258.1600 C.3    13  ILE13       0.1561
     37  C        214.6410  292.8470  259.3980 C.2    13  ILE13       0.2260
     38  O        213.9990  293.8940  259.3630 O.2    13  ILE13      -0.2867
     39  CB       214.4830  291.4020  257.3340 C.3    13  ILE13       0.0252
     40  CG1      215.1330  291.1240  255.9820 C.3    13  ILE13       0.0019
     41  CG2      213.1110  292.0070  257.1090 C.3    13  ILE13       0.0019
     42  CD1      214.3980  290.1120  255.1550 C.3    13  ILE13       0.0001
     43  N        214.3380  296.9500  259.0360 N.3    17  PHE17      -0.1227
     44  CA       212.9690  297.2780  258.6590 C.3    17  PHE17       0.1736
     45  C        211.9460  297.1310  259.7870 C.2    17  PHE17       0.2595
     46  O        211.4430  298.1200  260.3030 O.2    17  PHE17      -0.2718
     47  CB       212.5470  296.4150  257.4670 C.3    17  PHE17       0.0547
     48  CG       213.3090  296.7120  256.2060 C.ar   17  PHE17      -0.0202
     49  CD1      213.8910  297.9530  256.0050 C.ar   17  PHE17      -0.0042
     50  CD2      213.4700  295.7430  255.2310 C.ar   17  PHE17      -0.0042
     51  CE1      214.6000  298.2270  254.8520 C.ar   17  PHE17      -0.0003
     52  CE2      214.1810  296.0120  254.0770 C.ar   17  PHE17      -0.0003
     53  CZ       214.7460  297.2550  253.8870 C.ar   17  PHE17      -0.0000
     54  N        211.6460  295.8930  260.1640 N.am   18  ILE18      -0.1980
     55  CA       210.4690  295.5950  260.9780 C.3    18  ILE18       0.1595
     56  C        210.4690  296.1790  262.3990 C.2    18  ILE18       0.2287
     57  O        209.4120  296.5330  262.9220 O.2    18  ILE18      -0.2864
     58  CB       210.2790  294.0630  261.0720 C.3    18  ILE18       0.0276
     59  CG1      210.0430  293.4780  259.6820 C.3    18  ILE18       0.0022
     60  CG2      209.1040  293.7030  261.9590 C.3    18  ILE18       0.0022
     61  CD1      210.0710  291.9690  259.6480 C.3    18  ILE18       0.0001
     62  N        213.7700  307.5650  251.7150 N.3    34  SER34      -0.1217
     63  CA       213.3490  306.2340  251.3190 C.3    34  SER34       0.1889
     64  C        212.9650  306.2460  249.8550 C.2    34  SER34       0.2288
     65  O        213.1720  305.2600  249.1490 O.2    34  SER34      -0.2866
     66  CB       212.1780  305.7530  252.1680 C.3    34  SER34       0.2089
     67  OG       211.0460  306.5770  251.9640 O.3    34  SER34      -0.2183
     68  N        209.3020  300.6690  263.2330 N.3   219  PHE219     -0.1227
     69  CA       209.1760  301.1670  261.8720 C.3   219  PHE219      0.1736
     70  C        208.0160  300.5360  261.0960 C.2   219  PHE219      0.2595
     71  O        207.3120  301.2300  260.3640 O.2   219  PHE219     -0.2718
     72  CB       210.4970  300.9260  261.1350 C.3   219  PHE219      0.0547
     73  CG       210.5300  301.4440  259.7270 C.ar  219  PHE219     -0.0202
     74  CD1      210.8590  302.7630  259.4710 C.ar  219  PHE219     -0.0042
     75  CD2      210.2540  300.6090  258.6570 C.ar  219  PHE219     -0.0042
     76  CE1      210.9050  303.2410  258.1790 C.ar  219  PHE219     -0.0003
     77  CE2      210.2930  301.0830  257.3640 C.ar  219  PHE219     -0.0003
     78  CZ       210.6170  302.4010  257.1240 C.ar  219  PHE219     -0.0000
     79  N        207.8140  299.2310  261.2560 N.am  220  HIS220     -0.1975
     80  CA       206.8340  298.5010  260.4390 C.3   220  HIS220      0.1656
     81  C        205.3750  298.9840  260.4590 C.2   220  HIS220      0.2291
     82  O        204.7830  299.1580  259.3960 O.2   220  HIS220     -0.2864
     83  CB       206.8310  297.0180  260.8110 C.3   220  HIS220      0.0771
     84  CG       205.7460  296.2440  260.1320 C.ar  220  HIS220      0.0820
     85  ND1      205.7030  296.0580  258.7670 N.ar  220  HIS220     -0.2267
     86  CD2      204.6310  295.6570  260.6260 C.ar  220  HIS220      0.1154
     87  CE1      204.6250  295.3620  258.4540 C.ar  220  HIS220      0.1986
     88  NE2      203.9580  295.1060  259.5640 N.ar  220  HIS220     -0.2212
     89  N        205.9870  302.1670  257.1430 N.3   224  THR224     -0.1218
     90  CA       205.8660  301.3740  255.9280 C.3   224  THR224      0.1862
     91  C        204.6810  301.8310  255.0870 C.2   224  THR224      0.2287
     92  O        204.7600  301.8610  253.8590 O.2   224  THR224     -0.2866
     93  CB       205.7260  299.8800  256.2330 C.3   224  THR224      0.1770
     94  OG1      204.5820  299.6630  257.0660 O.3   224  THR224     -0.2211
     95  CG2      206.9660  299.3700  256.9340 C.3   224  THR224      0.0375
     96  N        205.4500  305.5010  253.9440 N.3   227  ASP227     -0.1239
     97  CA       206.3150  305.4300  252.7720 C.3   227  ASP227      0.1674
     98  C        205.6180  304.7640  251.5960 C.2   227  ASP227      0.2266
     99  O        206.0400  304.9270  250.4550 O.2   227  ASP227     -0.2867
    100  CB       207.6050  304.6830  253.0970 C.3   227  ASP227      0.1410
    101  CG       208.5030  305.4560  254.0390 C.2   227  ASP227      0.3668
    102  OD1      208.2690  306.6680  254.2230 O.co2 227  ASP227     -0.2456
    103  OD2      209.4420  304.8530  254.5960 O.co2 227  ASP227     -0.2456
@<TRIPOS>BOND
     1    65    64    2
     2    64    63    1
     3    99    98    2
     4    63    62    1
     5    63    66    1
     6    98    97    1
     7    67    66    1
     8    97   100    1
     9    97    96    1
    10   100   101    1
    11    92    91    2
    12    53    52   ar
    13    53    51   ar
    14   101   102   ar
    15   101   103   ar
    16    52    50   ar
    17    51    49   ar
    18    91    90    1
    19    42    40    1
    20    50    48   ar
    21    90    93    1
    22    90    89    1
    23    40    39    1
    24    49    48   ar
    25    48    47    1
    26    93    95    1
    27    93    94    1
    28    41    39    1
    29    78    77   ar
    30    78    76   ar
    31    39    36    1
    32    77    75   ar
    33    47    44    1
    34    33    32    1
    35    33    34    1
    36    36    35    1
    37    36    37    1
    38    76    74   ar
    39    87    85   ar
    40    87    88   ar
    41    27    28    1
    42    75    73   ar
    43    44    43    1
    44    44    45    1
    45    32    31    1
    46    85    84   ar
    47    28    31    1
    48    28    29    1
    49    38    37    2
    50    82    81    2
    51    74    73   ar
    52    88    86   ar
    53    61    59    1
    54    59    58    1
    55    73    72    1
    56    45    54   am
    57    45    46    2
    58    84    86   ar
    59    84    83    1
    60    54    55    1
    61    71    70    2
    62    80    81    1
    63    80    83    1
    64    80    79    1
    65    29    30    2
    66    55    58    1
    67    55    56    1
    68    58    60    1
    69    70    79   am
    70    70    69    1
    71    72    69    1
    72    69    68    1
    73    56    57    2
    74    21    22    1
    75    21    20    1
    76    15    14    1
    77    22    23    1
    78    12    13    1
    79    12     9    1
    80    11    10    2
    81    17    20    1
    82    17    16    1
    83    17    18    1
    84    19    18    2
    85    13    14    1
    86    10    16   am
    87    10     9    1
    88     9     8    1
    89    25    24    1
    90    23    24    2
    91    24    26    1
    92     8     3   am
    93     3     4    2
    94     3     2    1
    95     5     2    1
    96     5     6    1
    97     2     1    1
    98     6     7    1
    99     1     7    1
