@<TRIPOS>MOLECULE
tmp/5xteT02.pdb
 107 103 0 0 0
SMALL
GASTEIGER

@<TRIPOS>ATOM
      1  N        218.9950  286.0980  258.3690 N.3     9  LEU9       -0.1245
      2  CA       218.4470  286.9650  257.3340 C.3     9  LEU9        0.1561
      3  C        217.2190  287.6670  257.8950 C.2     9  LEU9        0.2260
      4  O        217.0220  288.8730  257.7040 O.2     9  LEU9       -0.2867
      5  CB       218.1090  286.1620  256.0760 C.3     9  LEU9        0.0270
      6  CG       217.7360  286.9360  254.8090 C.3     9  LEU9        0.0019
      7  CD1      218.2580  286.2090  253.5880 C.3     9  LEU9        0.0001
      8  CD2      216.2360  287.1050  254.7010 C.3     9  LEU9        0.0001
      9  N        216.9220  288.1150  260.9780 N.3    11  LYS11      -0.1231
     10  CA       217.4870  289.0370  261.9540 C.3    11  LYS11       0.1693
     11  C        217.7680  290.3870  261.3200 C.2    11  LYS11       0.2591
     12  O        217.3600  291.4170  261.8500 O.2    11  LYS11      -0.2718
     13  CB       218.7800  288.5000  262.5710 C.3    11  LYS11       0.0285
     14  CG       218.6290  287.3610  263.5580 C.3    11  LYS11       0.0035
     15  CD       220.0020  286.9350  264.0630 C.3    11  LYS11       0.0206
     16  CE       219.9140  285.8480  265.1180 C.3    11  LYS11       0.1093
     17  NZ       221.2560  285.3830  265.5670 N.3    11  LYS11      -0.1314
     18  N        218.4670  290.3910  260.1890 N.am   12  LEU12      -0.1980
     19  CA       218.8250  291.6600  259.5720 C.3    12  LEU12       0.1596
     20  C        217.6040  292.4100  259.0660 C.2    12  LEU12       0.2287
     21  O        217.5520  293.6360  259.1460 O.2    12  LEU12      -0.2864
     22  CB       219.8110  291.4580  258.4240 C.3    12  LEU12       0.0297
     23  CG       221.1990  290.9400  258.7860 C.3    12  LEU12       0.0022
     24  CD1      222.0250  290.7960  257.5290 C.3    12  LEU12       0.0001
     25  CD2      221.8900  291.8520  259.7860 C.3    12  LEU12       0.0001
     26  N        216.1050  294.0250  261.9480 N.3    15  HIS15      -0.1226
     27  CA       216.7910  295.2610  262.2930 C.3    15  HIS15       0.1752
     28  C        216.4020  296.3850  261.3550 C.2    15  HIS15       0.2597
     29  O        215.7010  297.3040  261.7490 O.2    15  HIS15      -0.2718
     30  CB       218.3090  295.0820  262.2690 C.3    15  HIS15       0.0759
     31  CG       218.8330  294.1970  263.3540 C.ar   15  HIS15       0.0818
     32  ND1      218.8270  294.5680  264.6810 N.ar   15  HIS15      -0.2268
     33  CD2      219.4010  292.9700  263.3110 C.ar   15  HIS15       0.1154
     34  CE1      219.3570  293.6030  265.4090 C.ar   15  HIS15       0.1986
     35  NE2      219.7120  292.6200  264.6020 N.ar   15  HIS15      -0.2212
     36  N        216.8270  296.2820  260.1010 N.am   16  SER16      -0.1938
     37  CA       216.7330  297.3970  259.1690 C.3    16  SER16       0.2055
     38  C        215.3000  297.8600  258.9220 C.2    16  SER16       0.2643
     39  O        215.0650  299.0320  258.6380 O.2    16  SER16      -0.2714
     40  CB       217.3800  297.0200  257.8360 C.3    16  SER16       0.2130
     41  OG       216.6750  295.9640  257.2090 O.3    16  SER16      -0.2179
     42  N        214.3380  296.9500  259.0360 N.am   17  PHE17      -0.1973
     43  CA       212.9690  297.2780  258.6590 C.3    17  PHE17       0.1639
     44  C        211.9460  297.1310  259.7870 C.2    17  PHE17       0.2290
     45  O        211.4430  298.1200  260.3030 O.2    17  PHE17      -0.2864
     46  CB       212.5470  296.4150  257.4670 C.3    17  PHE17       0.0560
     47  CG       213.3090  296.7120  256.2060 C.ar   17  PHE17      -0.0200
     48  CD1      213.8910  297.9530  256.0050 C.ar   17  PHE17      -0.0042
     49  CD2      213.4700  295.7430  255.2310 C.ar   17  PHE17      -0.0042
     50  CE1      214.6000  298.2270  254.8520 C.ar   17  PHE17      -0.0003
     51  CE2      214.1810  296.0120  254.0770 C.ar   17  PHE17      -0.0003
     52  CZ       214.7460  297.2550  253.8870 C.ar   17  PHE17      -0.0000
     53  N        225.6600  299.8530  246.8970 N.3   190  ALA190     -0.1245
     54  CA       226.4990  299.3810  247.9940 C.3   190  ALA190      0.1562
     55  C        226.8630  300.5240  248.9410 C.2   190  ALA190      0.2260
     56  O        226.8900  300.3540  250.1700 O.2   190  ALA190     -0.2867
     57  CB       227.7510  298.7240  247.4550 C.3   190  ALA190      0.0290
     58  N        224.0960  301.0480  251.1410 N.3   193  THR193     -0.1203
     59  CA       224.0910  300.0910  252.2410 C.3   193  THR193      0.1994
     60  C        225.0340  300.5400  253.3480 C.2   193  THR193      0.2617
     61  O        224.7190  300.4040  254.5320 O.2   193  THR193     -0.2717
     62  CB       224.4950  298.6810  251.7850 C.3   193  THR193      0.1784
     63  OG1      225.8190  298.7090  251.2440 O.3   193  THR193     -0.2211
     64  CG2      223.5300  298.1660  250.7320 C.3   193  THR193      0.0376
     65  N        226.1690  301.0990  252.9750 N.am  194  LEU194     -0.1979
     66  CA       227.0780  301.6640  253.9480 C.3   194  LEU194      0.1596
     67  C        226.3820  302.8180  254.6470 C.2   194  LEU194      0.2287
     68  O        226.5480  303.0390  255.8370 O.2   194  LEU194     -0.2864
     69  CB       228.3300  302.1660  253.2530 C.3   194  LEU194      0.0297
     70  CG       229.6460  301.6880  253.8400 C.3   194  LEU194      0.0022
     71  CD1      230.7830  302.0890  252.9220 C.3   194  LEU194      0.0001
     72  CD2      229.8230  302.3030  255.2140 C.3   194  LEU194      0.0001
     73  N        223.1510  303.5300  255.1770 N.3   196  LEU196     -0.1231
     74  CA       222.2080  303.0650  256.1790 C.3   196  LEU196      0.1693
     75  C        222.9310  302.3640  257.3220 C.2   196  LEU196      0.2591
     76  O        222.4340  302.3270  258.4460 O.2   196  LEU196     -0.2718
     77  CB       221.1700  302.1300  255.5600 C.3   196  LEU196      0.0284
     78  CG       219.9380  302.7710  254.9150 C.3   196  LEU196      0.0019
     79  CD1      220.2990  303.5670  253.6760 C.3   196  LEU196      0.0001
     80  CD2      218.8940  301.7160  254.5910 C.3   196  LEU196      0.0001
     81  N        224.1010  301.8010  257.0350 N.am  197  LEU197     -0.1980
     82  CA       224.8650  301.1180  258.0720 C.3   197  LEU197      0.1596
     83  C        225.3700  302.0930  259.1240 C.2   197  LEU197      0.2287
     84  O        225.2020  301.8620  260.3200 O.2   197  LEU197     -0.2864
     85  CB       226.0420  300.3640  257.4600 C.3   197  LEU197      0.0297
     86  CG       226.8680  299.4490  258.3610 C.3   197  LEU197      0.0022
     87  CD1      227.3590  298.3010  257.5300 C.3   197  LEU197      0.0001
     88  CD2      228.0510  300.1760  258.9720 C.3   197  LEU197      0.0001
     89  N        222.2020  303.7500  261.2660 N.3   200  HIS200     -0.1226
     90  CA       221.3230  303.0880  262.2370 C.3   200  HIS200      0.1752
     91  C        221.8680  302.8650  263.6480 C.2   200  HIS200      0.2595
     92  O        221.1060  302.5000  264.5400 O.2   200  HIS200     -0.2718
     93  CB       220.8610  301.7390  261.6780 C.3   200  HIS200      0.0759
     94  CG       219.8860  301.8540  260.5470 C.ar  200  HIS200      0.0818
     95  ND1      219.5950  300.8020  259.7080 N.ar  200  HIS200     -0.2268
     96  CD2      219.1160  302.8880  260.1350 C.ar  200  HIS200      0.1154
     97  CE1      218.6990  301.1860  258.8160 C.ar  200  HIS200      0.1986
     98  NE2      218.3900  302.4480  259.0540 N.ar  200  HIS200     -0.2212
     99  N        223.1610  303.0710  263.8740 N.am  201  GLU201     -0.1979
    100  CA       223.6890  302.8720  265.2220 C.3   201  GLU201      0.1602
    101  C        223.4320  304.0730  266.1240 C.2   201  GLU201      0.2287
    102  O        223.6770  304.0170  267.3280 O.2   201  GLU201     -0.2864
    103  CB       225.1820  302.5530  265.1850 C.3   201  GLU201      0.0415
    104  CG       225.4780  301.1850  264.5960 C.3   201  GLU201      0.1163
    105  CD       226.9510  300.8380  264.6210 C.2   201  GLU201      0.3649
    106  OE1      227.7700  301.7250  264.9410 O.co2 201  GLU201     -0.2457
    107  OE2      227.2820  299.6700  264.3240 O.co2 201  GLU201     -0.2457
@<TRIPOS>BOND
     1    53    54    1
     2    57    54    1
     3    54    55    1
     4    55    56    2
     5    64    62    1
     6    58    59    1
     7    63    62    1
     8    62    59    1
     9    59    60    1
    10    71    70    1
    11    65    60   am
    12    65    66    1
    13    69    70    1
    14    69    66    1
    15    60    61    2
    16     7     6    1
    17    79    78    1
    18    70    72    1
    19    52    51   ar
    20    52    50   ar
    21    66    67    1
    22    51    49   ar
    23    80    78    1
    24    67    68    2
    25     8     6    1
    26     6     5    1
    27    50    48   ar
    28    78    77    1
    29    73    74    1
    30    49    47   ar
    31    77    74    1
    32    48    47   ar
    33     5     2    1
    34    74    75    1
    35    47    46    1
    36    81    75   am
    37    81    82    1
    38    41    40    1
    39    75    76    2
    40     2     3    1
    41     2     1    1
    42    85    82    1
    43    85    86    1
    44    46    43    1
    45    24    23    1
    46    87    86    1
    47     4     3    2
    48    40    37    1
    49    82    83    1
    50    86    88    1
    51    22    23    1
    52    22    19    1
    53    39    38    2
    54    43    42    1
    55    43    44    1
    56    23    25    1
    57    97    98   ar
    58    97    95   ar
    59    38    42   am
    60    38    37    1
    61    98    96   ar
    62    20    21    2
    63    20    19    1
    64    83    84    2
    65    37    36    1
    66    19    18    1
    67    95    94   ar
    68    44    45    2
    69    36    28   am
    70    96    94   ar
    71    18    11   am
    72    94    93    1
    73     9    10    1
    74    89    90    1
    75    11    12    2
    76    11    10    1
    77    28    29    2
    78    28    27    1
    79    93    90    1
    80    26    27    1
    81    10    13    1
    82    90    91    1
    83    30    27    1
    84    30    31    1
    85    13    14    1
    86    33    31   ar
    87    33    35   ar
    88    31    32   ar
    89    14    15    1
    90    91    99   am
    91    91    92    2
    92    99   100    1
    93    15    16    1
    94   107   105   ar
    95   104   105    1
    96   104   103    1
    97    35    34   ar
    98   105   106   ar
    99    32    34   ar
   100    16    17    1
   101   103   100    1
   102   100   101    1
   103   101   102    2
