@<TRIPOS>MOLECULE
tmp/5xteT05.pdb
 86 78 0 0 0
SMALL
GASTEIGER

@<TRIPOS>ATOM
      1  N        214.0200  301.6160  240.2800 N.3    42  LEU42      -0.1245
      2  CA       213.3450  301.8940  239.0310 C.3    42  LEU42       0.1561
      3  C        214.4100  302.1500  237.9820 C.2    42  LEU42       0.2260
      4  O        214.4050  301.5330  236.9120 O.2    42  LEU42      -0.2867
      5  CB       212.4030  303.0860  239.1720 C.3    42  LEU42       0.0270
      6  CG       211.6270  303.4740  237.9180 C.3    42  LEU42       0.0019
      7  CD1      210.7100  302.3420  237.4960 C.3    42  LEU42       0.0001
      8  CD2      210.8310  304.7280  238.1820 C.3    42  LEU42       0.0001
      9  N        215.7690  298.8640  236.9330 N.3    45  THR45      -0.1218
     10  CA       214.8990  297.9130  236.2540 C.3    45  THR45       0.1862
     11  C        214.5480  298.4330  234.8800 C.2    45  THR45       0.2287
     12  O        214.8110  297.7820  233.8670 O.2    45  THR45      -0.2866
     13  CB       213.6080  297.6550  237.0450 C.3    45  THR45       0.1770
     14  OG1      212.9060  298.8880  237.2300 O.3    45  THR45      -0.2211
     15  CG2      213.9280  297.0550  238.4010 C.3    45  THR45       0.0375
     16  N        216.0400  297.3270  230.7940 N.3    49  PHE49      -0.1241
     17  CA       215.3160  296.9570  229.5860 C.3    49  PHE49       0.1605
     18  C        215.5830  297.9040  228.4200 C.2    49  PHE49       0.2264
     19  O        215.0810  297.6940  227.3180 O.2    49  PHE49      -0.2867
     20  CB       213.8220  296.8680  229.8870 C.3    49  PHE49       0.0534
     21  CG       213.4700  295.7430  230.8180 C.ar   49  PHE49      -0.0203
     22  CD1      214.3160  294.6600  230.9530 C.ar   49  PHE49      -0.0042
     23  CD2      212.3170  295.7750  231.5700 C.ar   49  PHE49      -0.0042
     24  CE1      214.0090  293.6240  231.8080 C.ar   49  PHE49      -0.0003
     25  CE2      212.0080  294.7420  232.4300 C.ar   49  PHE49      -0.0003
     26  CZ       212.8540  293.6660  232.5480 C.ar   49  PHE49      -0.0000
     27  N        205.9050  298.7400  223.4970 N.3    74  TYR74      -0.1241
     28  CA       205.9310  299.4300  224.7860 C.3    74  TYR74       0.1605
     29  C        207.3050  299.9770  225.1600 C.2    74  TYR74       0.2264
     30  O        207.6220  300.0980  226.3380 O.2    74  TYR74      -0.2867
     31  CB       205.4410  298.5030  225.8980 C.3    74  TYR74       0.0534
     32  CG       204.0120  298.0500  225.7260 C.ar   74  TYR74      -0.0201
     33  CD1      202.9580  298.8670  226.1000 C.ar   74  TYR74      -0.0009
     34  CD2      203.7180  296.7970  225.2120 C.ar   74  TYR74      -0.0009
     35  CE1      201.6520  298.4600  225.9480 C.ar   74  TYR74       0.0417
     36  CE2      202.4130  296.3770  225.0600 C.ar   74  TYR74       0.0417
     37  CZ       201.3850  297.2130  225.4300 C.ar   74  TYR74       0.1957
     38  OH       200.0810  296.8060  225.2820 O.3    74  TYR74      -0.2866
     39  N        207.3760  304.0040  226.6990 N.3    77  ILE77      -0.1245
     40  CA       207.0570  304.2090  228.1050 C.3    77  ILE77       0.1561
     41  C        208.2730  303.9270  228.9710 C.2    77  ILE77       0.2260
     42  O        208.5010  304.6090  229.9590 O.2    77  ILE77      -0.2867
     43  CB       205.8590  303.3350  228.5600 C.3    77  ILE77       0.0252
     44  CG1      205.4960  303.6310  230.0140 C.3    77  ILE77       0.0019
     45  CG2      206.1420  301.8640  228.3850 C.3    77  ILE77       0.0019
     46  CD1      205.0150  305.0260  230.2500 C.3    77  ILE77       0.0001
     47  N        209.8840  306.8230  231.1850 N.3    81  LEU81      -0.1245
     48  CA       209.9750  306.5420  232.6140 C.3    81  LEU81       0.1561
     49  C        211.4120  306.6150  233.0740 C.2    81  LEU81       0.2260
     50  O        211.6990  307.0130  234.2000 O.2    81  LEU81      -0.2867
     51  CB       209.4080  305.1640  232.9560 C.3    81  LEU81       0.0270
     52  CG       207.8990  304.9650  232.9590 C.3    81  LEU81       0.0019
     53  CD1      207.5820  303.4950  233.1210 C.3    81  LEU81       0.0001
     54  CD2      207.2970  305.7590  234.0960 C.3    81  LEU81       0.0001
     55  N        203.5500  306.1130  246.4940 N.3   232  LEU232     -0.1245
     56  CA       202.4030  306.1660  245.6020 C.3   232  LEU232      0.1561
     57  C        202.2720  307.5560  245.0000 C.2   232  LEU232      0.2260
     58  O        201.9800  307.7000  243.8160 O.2   232  LEU232     -0.2867
     59  CB       201.1280  305.7660  246.3470 C.3   232  LEU232      0.0270
     60  CG       199.8550  305.5680  245.5240 C.3   232  LEU232      0.0019
     61  CD1      199.0300  304.4450  246.1130 C.3   232  LEU232      0.0001
     62  CD2      199.0340  306.8430  245.4810 C.3   232  LEU232      0.0001
     63  N        205.0330  307.8260  242.3830 N.3   235  LEU235     -0.1245
     64  CA       204.6550  307.1980  241.1280 C.3   235  LEU235      0.1561
     65  C        203.5970  308.0320  240.4300 C.2   235  LEU235      0.2260
     66  O        203.5370  308.0690  239.2060 O.2   235  LEU235     -0.2867
     67  CB       204.1420  305.7780  241.3590 C.3   235  LEU235      0.0270
     68  CG       205.1700  304.7730  241.8680 C.3   235  LEU235      0.0019
     69  CD1      204.5020  303.4460  242.1720 C.3   235  LEU235      0.0001
     70  CD2      206.2720  304.5960  240.8440 C.3   235  LEU235      0.0001
     71  N        204.3820  309.3940  236.7660 N.3   239  MET239     -0.1245
     72  CA       203.5220  308.9820  235.6670 C.3   239  MET239      0.1570
     73  C        202.8220  310.1800  235.0290 C.2   239  MET239      0.2261
     74  O        202.5710  310.1840  233.8230 O.2   239  MET239     -0.2867
     75  CB       202.4910  307.9570  236.1460 C.3   239  MET239      0.0387
     76  CG       203.0750  306.6110  236.5450 C.3   239  MET239      0.0595
     77  SD       203.8440  305.7120  235.1900 S.3   239  MET239     -0.1393
     78  CE       202.4060  305.2820  234.2190 C.3   239  MET239      0.0692
     79  N        203.2950  310.5850  231.0340 N.3   243  LEU243     -0.1245
     80  CA       202.1810  310.3090  230.1260 C.3   243  LEU243      0.1561
     81  C        201.4560  311.5400  229.5850 C.2   243  LEU243      0.2260
     82  O        200.5640  311.4110  228.7490 O.2   243  LEU243     -0.2867
     83  CB       201.1610  309.3910  230.8060 C.3   243  LEU243      0.0270
     84  CG       201.3880  307.8850  230.6550 C.3   243  LEU243      0.0019
     85  CD1      202.6550  307.4550  231.3370 C.3   243  LEU243      0.0001
     86  CD2      200.2180  307.1070  231.2080 C.3   243  LEU243      0.0001
@<TRIPOS>BOND
     1    27    28    1
     2    28    29    1
     3    28    31    1
     4    36    34   ar
     5    36    37   ar
     6    29    30    2
     7    34    32   ar
     8    38    37    1
     9    37    35   ar
    10    32    31    1
    11    32    33   ar
    12    35    33   ar
    13    39    40    1
    14    19    18    2
    15    40    43    1
    16    40    41    1
    17    45    43    1
    18    18    17    1
    19    43    44    1
    20    82    81    2
    21    41    42    2
    22    81    80    1
    23    17    20    1
    24    17    16    1
    25    20    21    1
    26    44    46    1
    27    80    83    1
    28    80    79    1
    29    84    83    1
    30    84    86    1
    31    84    85    1
    32    21    22   ar
    33    21    23   ar
    34    22    24   ar
    35    47    48    1
    36    23    25   ar
    37    24    26   ar
    38    25    26   ar
    39    48    51    1
    40    48    49    1
    41    51    52    1
    42    52    53    1
    43    52    54    1
    44    49    50    2
    45    74    73    2
    46    12    11    2
    47    78    77    1
    48    11    10    1
    49    73    72    1
    50    77    76    1
    51    72    75    1
    52    72    71    1
    53    75    76    1
    54    10     9    1
    55    10    13    1
    56     4     3    2
    57    13    14    1
    58    13    15    1
    59     7     6    1
    60     6     8    1
    61     6     5    1
    62     3     2    1
    63     2     5    1
    64     2     1    1
    65    66    65    2
    66    65    64    1
    67    70    68    1
    68    64    67    1
    69    64    63    1
    70    67    68    1
    71    68    69    1
    72    58    57    2
    73    57    56    1
    74    62    60    1
    75    60    61    1
    76    60    59    1
    77    56    59    1
    78    56    55    1
