@<TRIPOS>MOLECULE
tmp/5xteH01.pdb
 218 210 0 0 0
SMALL
GASTEIGER

@<TRIPOS>ATOM
      1  N        254.5440  285.8030  199.1350 N.3    32  VAL32      -0.1245
      2  CA       253.7460  284.7780  198.4760 C.3    32  VAL32       0.1561
      3  C        252.2700  285.1680  198.4880 C.2    32  VAL32       0.2260
      4  O        251.5490  284.9450  197.5150 O.2    32  VAL32      -0.2867
      5  CB       253.9060  283.4030  199.1410 C.3    32  VAL32       0.0252
      6  CG1      253.0180  282.3890  198.4480 C.3    32  VAL32       0.0019
      7  CG2      255.3510  282.9530  199.0960 C.3    32  VAL32       0.0019
      8  N        249.9110  284.9010  194.6580 N.3    36  VAL36      -0.1231
      9  CA       249.1500  283.6680  194.4910 C.3    36  VAL36       0.1692
     10  C        247.8900  283.6460  195.3540 C.2    36  VAL36       0.2592
     11  O        246.8550  283.1150  194.9500 O.2    36  VAL36      -0.2718
     12  CB       250.0050  282.4350  194.8390 C.3    36  VAL36       0.0266
     13  CG1      249.2370  281.1510  194.5640 C.3    36  VAL36       0.0020
     14  CG2      251.3140  282.4620  194.0750 C.3    36  VAL36       0.0020
     15  N        247.9740  284.2410  196.5390 N.am   37  CYS37      -0.1970
     16  CA       246.8580  284.2160  197.4760 C.3    37  CYS37       0.1712
     17  C        245.8560  285.3380  197.2470 C.2    37  CYS37       0.2296
     18  O        244.6470  285.1150  197.2320 O.2    37  CYS37      -0.2864
     19  CB       247.3650  284.3250  198.9070 C.3    37  CYS37       0.0983
     20  SG       248.5030  283.0680  199.4960 S.3    37  CYS37      -0.0798
     21  N        244.7570  287.1430  194.9570 N.3    39  SER39      -0.1202
     22  CA       243.8320  287.1720  193.8360 C.3    39  SER39       0.2020
     23  C        242.4610  286.6260  194.2190 C.2    39  SER39       0.2619
     24  O        241.4480  287.0390  193.6580 O.2    39  SER39      -0.2717
     25  CB       244.4040  286.3840  192.6550 C.3    39  SER39       0.2103
     26  OG       244.5870  285.0210  192.9910 O.3    39  SER39      -0.2182
     27  N        242.4250  285.7090  195.1820 N.am   40  CYS40      -0.1955
     28  CA       241.1700  285.0590  195.5460 C.3    40  CYS40       0.1843
     29  C        241.0130  284.7750  197.0390 C.2    40  CYS40       0.2625
     30  O        240.3210  283.8330  197.4190 O.2    40  CYS40      -0.2714
     31  CB       241.0260  283.7550  194.7620 C.3    40  CYS40       0.0997
     32  SG       240.8850  283.9830  192.9730 S.3    40  CYS40      -0.0797
     33  N        241.6440  285.5870  197.8830 N.am   41  HIS41      -0.1973
     34  CA       241.4670  285.4680  199.3330 C.3    41  HIS41       0.1656
     35  C        241.5540  286.7870  200.0850 C.2    41  HIS41       0.2291
     36  O        242.5620  287.4890  200.0340 O.2    41  HIS41      -0.2864
     37  CB       242.4890  284.5050  199.9310 C.3    41  HIS41       0.0771
     38  CG       242.2860  283.0820  199.5280 C.ar   41  HIS41       0.0820
     39  ND1      241.1950  282.3460  199.9330 N.ar   41  HIS41      -0.2267
     40  CD2      243.0430  282.2520  198.7750 C.ar   41  HIS41       0.1154
     41  CE1      241.2820  281.1260  199.4360 C.ar   41  HIS41       0.1986
     42  NE2      242.3950  281.0440  198.7300 N.ar   41  HIS41      -0.2212
     43  N        233.9000  280.8100  191.5630 N.3   105  ASN105     -0.1240
     44  CA       234.4750  279.5640  192.0520 C.3   105  ASN105      0.1653
     45  C        233.4860  278.4090  192.1010 C.2   105  ASN105      0.2266
     46  O        233.5300  277.5910  193.0190 O.2   105  ASN105     -0.2867
     47  CB       235.0670  279.7830  193.4420 C.3   105  ASN105      0.1155
     48  CG       236.2740  280.6860  193.4160 C.2   105  ASN105      0.2627
     49  OD1      237.3680  280.2680  193.0430 O.2   105  ASN105     -0.2716
     50  ND2      236.0820  281.9410  193.8070 N.am  105  ASN105     -0.0877
     51  N        231.6290  277.7180  195.2860 N.3   108  ALA108     -0.1231
     52  CA       232.4830  277.6330  196.4630 C.3   108  ALA108      0.1694
     53  C        232.8990  279.0200  196.9370 C.2   108  ALA108      0.2592
     54  O        233.1870  279.9010  196.1290 O.2   108  ALA108     -0.2718
     55  CB       233.7040  276.7860  196.1700 C.3   108  ALA108      0.0304
     56  N        232.9310  279.2070  198.2500 N.am  109  LEU109     -0.1966
     57  CA       233.3800  280.4650  198.8340 C.3   109  LEU109      0.1713
     58  C        234.7190  280.2930  199.5360 C.2   109  LEU109      0.2458
     59  O        234.8090  279.5770  200.5300 O.2   109  LEU109     -0.2730
     60  CB       232.3410  280.9990  199.8180 C.3   109  LEU109      0.0310
     61  CG       232.7200  282.2700  200.5800 C.3   109  LEU109      0.0022
     62  CD1      232.9050  283.4350  199.6280 C.3   109  LEU109      0.0001
     63  CD2      231.6760  282.5970  201.6340 C.3   109  LEU109      0.0001
     64  N        235.7690  280.9480  199.0210 N.am  110  PRO110     -0.2716
     65  CA       237.0750  280.9000  199.6840 C.3   110  PRO110      0.1521
     66  C        237.0530  281.6100  201.0350 C.2   110  PRO110      0.2440
     67  O        236.7540  282.8000  201.0970 O.2   110  PRO110     -0.2731
     68  CB       237.9930  281.6190  198.6930 C.3   110  PRO110      0.0310
     69  CG       237.0910  282.5210  197.9360 C.3   110  PRO110      0.0237
     70  CD       235.7960  281.7760  197.8050 C.3   110  PRO110      0.0939
     71  N        237.3720  280.8760  202.1090 N.am  111  PRO111     -0.2727
     72  CA       237.3540  281.3790  203.4870 C.3   111  PRO111      0.1402
     73  C        238.3530  282.5050  203.7170 C.2   111  PRO111      0.2269
     74  O        239.4100  282.5150  203.0980 O.2   111  PRO111     -0.2865
     75  CB       237.7430  280.1470  204.3090 C.3   111  PRO111      0.0296
     76  CG       237.3440  278.9960  203.4660 C.3   111  PRO111      0.0237
     77  CD       237.6450  279.4310  202.0660 C.3   111  PRO111      0.0939
     78  N        241.3390  284.3240  205.3170 N.3   113  LEU113     -0.1245
     79  CA       242.5800  283.7510  205.8340 C.3   113  LEU113      0.1561
     80  C        243.0720  284.4270  207.1090 C.2   113  LEU113      0.2260
     81  O        244.0910  284.0350  207.6720 O.2   113  LEU113     -0.2867
     82  CB       243.6760  283.8030  204.7680 C.3   113  LEU113      0.0270
     83  CG       243.7540  282.6180  203.7980 C.3   113  LEU113      0.0019
     84  CD1      242.5280  282.5310  202.9240 C.3   113  LEU113      0.0001
     85  CD2      245.0050  282.6950  202.9420 C.3   113  LEU113      0.0001
     86  N        242.3130  281.6900  209.5200 N.3   116  ILE116     -0.1245
     87  CA       242.1820  280.3560  208.9530 C.3   116  ILE116      0.1561
     88  C        243.0120  279.3260  209.7210 C.2   116  ILE116      0.2260
     89  O        242.6550  278.1510  209.7720 O.2   116  ILE116     -0.2867
     90  CB       242.5790  280.3410  207.4630 C.3   116  ILE116      0.0252
     91  CG1      242.1630  279.0210  206.8160 C.3   116  ILE116      0.0019
     92  CG2      244.0690  280.5960  207.2870 C.3   116  ILE116      0.0019
     93  CD1      240.6690  278.8050  206.7960 C.3   116  ILE116      0.0001
     94  N        240.7940  276.0310  212.0240 N.3   120  ARG120     -0.1245
     95  CA       240.8370  274.6070  211.6960 C.3   120  ARG120      0.1563
     96  C        241.5000  273.7680  212.7870 C.2   120  ARG120      0.2260
     97  O        242.4950  274.1830  213.3790 O.2   120  ARG120     -0.2867
     98  CB       241.5700  274.4010  210.3700 C.3   120  ARG120      0.0307
     99  CG       240.9440  275.1490  209.2070 C.3   120  ARG120      0.0489
    100  CD       239.5960  274.5630  208.8420 C.3   120  ARG120      0.2205
    101  NE       238.9820  275.2580  207.7150 N.pl3 120  ARG120     -0.0865
    102  CZ       238.1520  276.2880  207.8390 C.cat 120  ARG120      0.5346
    103  NH1      237.8370  276.7460  209.0410 N.pl3 120  ARG120      0.1354
    104  NH2      237.6370  276.8610  206.7610 N.pl3 120  ARG120      0.1354
    105  N        247.1740  271.6600  209.7040 N.3   126  TYR126     -0.1227
    106  CA       246.1740  271.3120  208.7010 C.3   126  TYR126      0.1736
    107  C        246.4840  271.9620  207.3640 C.2   126  TYR126      0.2595
    108  O        246.2300  271.3810  206.3130 O.2   126  TYR126     -0.2718
    109  CB       244.7740  271.7270  209.1510 C.3   126  TYR126      0.0548
    110  CG       243.7270  271.5600  208.0730 C.ar  126  TYR126     -0.0200
    111  CD1      243.1690  270.3220  207.8060 C.ar  126  TYR126     -0.0009
    112  CD2      243.3160  272.6420  207.3060 C.ar  126  TYR126     -0.0009
    113  CE1      242.2190  270.1660  206.8150 C.ar  126  TYR126      0.0417
    114  CE2      242.3740  272.4970  206.3160 C.ar  126  TYR126      0.0417
    115  CZ       241.8260  271.2600  206.0730 C.ar  126  TYR126      0.1957
    116  OH       240.8830  271.1230  205.0810 O.3   126  TYR126     -0.2866
    117  N        247.0470  273.1640  207.4150 N.am  127  VAL127     -0.1980
    118  CA       247.2650  273.9780  206.2240 C.3   127  VAL127      0.1595
    119  C        248.4050  273.4940  205.3290 C.2   127  VAL127      0.2287
    120  O        248.2050  273.2890  204.1320 O.2   127  VAL127     -0.2864
    121  CB       247.5490  275.4410  206.6160 C.3   127  VAL127      0.0276
    122  CG1      247.8770  276.2670  205.3890 C.3   127  VAL127      0.0022
    123  CG2      246.3640  276.0280  207.3620 C.3   127  VAL127      0.0022
    124  N        247.7330  270.4190  203.7050 N.3   130  LEU130     -0.1231
    125  CA       246.6630  270.6110  202.7380 C.3   130  LEU130      0.1693
    126  C        247.2410  271.0730  201.4070 C.2   130  LEU130      0.2591
    127  O        246.7170  270.7460  200.3440 O.2   130  LEU130     -0.2718
    128  CB       245.6390  271.6230  203.2530 C.3   130  LEU130      0.0284
    129  CG       244.4210  271.9020  202.3720 C.3   130  LEU130      0.0019
    130  CD1      243.5290  270.6760  202.2780 C.3   130  LEU130      0.0001
    131  CD2      243.6470  273.0890  202.8990 C.3   130  LEU130      0.0001
    132  N        248.3270  271.8390  201.4750 N.am  131  LEU131     -0.1980
    133  CA       248.9390  272.3920  200.2740 C.3   131  LEU131      0.1596
    134  C        249.9330  271.4110  199.6730 C.2   131  LEU131      0.2287
    135  O        249.9910  271.2230  198.4590 O.2   131  LEU131     -0.2864
    136  CB       249.6380  273.7140  200.5910 C.3   131  LEU131      0.0297
    137  CG       248.7500  274.8480  201.1010 C.3   131  LEU131      0.0022
    138  CD1      249.5900  276.0640  201.4500 C.3   131  LEU131      0.0001
    139  CD2      247.6880  275.1980  200.0760 C.3   131  LEU131      0.0001
    140  N        241.4770  267.3900  203.0400 N.3   153  PHE153     -0.1228
    141  CA       240.2270  268.1360  203.0850 C.3   153  PHE153      0.1721
    142  C        239.1270  267.1960  203.5700 C.2   153  PHE153      0.2437
    143  O        239.0240  266.0700  203.0930 O.2   153  PHE153     -0.2733
    144  CB       239.8990  268.7140  201.7070 C.3   153  PHE153      0.0547
    145  CG       238.6530  269.5480  201.6750 C.ar  153  PHE153     -0.0202
    146  CD1      238.6850  270.8760  202.0610 C.ar  153  PHE153     -0.0042
    147  CD2      237.4540  269.0090  201.2520 C.ar  153  PHE153     -0.0042
    148  CE1      237.5410  271.6480  202.0260 C.ar  153  PHE153     -0.0003
    149  CE2      236.3060  269.7740  201.2180 C.ar  153  PHE153     -0.0003
    150  CZ       236.3510  271.0950  201.6040 C.ar  153  PHE153     -0.0000
    151  N        238.3150  267.6460  204.5410 N.am  154  PRO154     -0.2729
    152  CA       237.2960  266.7830  205.1540 C.3   154  PRO154      0.1401
    153  C        236.2800  266.2260  204.1650 C.2   154  PRO154      0.2269
    154  O        235.8180  265.0990  204.3340 O.2   154  PRO154     -0.2865
    155  CB       236.6170  267.7180  206.1630 C.3   154  PRO154      0.0296
    156  CG       236.8790  269.0910  205.6440 C.3   154  PRO154      0.0237
    157  CD       238.2660  269.0120  205.0820 C.3   154  PRO154      0.0939
    158  N        237.4180  266.4380  198.5880 N.3   157  ALA157     -0.1231
    159  CA       237.1910  266.8910  197.2210 C.3   157  ALA157      0.1694
    160  C        237.1490  268.4110  197.1790 C.2   157  ALA157      0.2592
    161  O        236.1060  269.0020  196.9060 O.2   157  ALA157     -0.2718
    162  CB       235.9030  266.3090  196.6690 C.3   157  ALA157      0.0304
    163  N        238.2820  269.0430  197.4660 N.am  158  ILE158     -0.1966
    164  CA       238.3300  270.4950  197.5670 C.3   158  ILE158      0.1727
    165  C        238.1180  271.1630  196.2090 C.2   158  ILE158      0.2616
    166  O        238.6250  270.7010  195.1880 O.2   158  ILE158     -0.2715
    167  CB       239.6650  270.9630  198.1870 C.3   158  ILE158      0.0290
    168  CG1      239.6270  272.4630  198.4720 C.3   158  ILE158      0.0022
    169  CG2      240.8440  270.6150  197.2900 C.3   158  ILE158      0.0023
    170  CD1      240.7420  272.9370  199.3620 C.3   158  ILE158      0.0001
    171  N        237.3460  272.2440  196.2060 N.am  159  ALA159     -0.1963
    172  CA       237.0770  272.9920  194.9860 C.3   159  ALA159      0.1728
    173  C        238.3090  273.7490  194.5080 C.2   159  ALA159      0.2616
    174  O        238.4260  274.0700  193.3280 O.2   159  ALA159     -0.2715
    175  CB       235.9200  273.9490  195.1960 C.3   159  ALA159      0.0334
    176  N        239.2270  274.0320  195.4260 N.am  160  MET160     -0.1963
    177  CA       240.4370  274.7690  195.0810 C.3   160  MET160      0.1736
    178  C        241.3250  273.9900  194.1210 C.2   160  MET160      0.2616
    179  O        241.5650  272.7980  194.3070 O.2   160  MET160     -0.2715
    180  CB       241.2200  275.1160  196.3510 C.3   160  MET160      0.0427
    181  CG       242.5950  275.7070  196.1030 C.3   160  MET160      0.0599
    182  SD       243.4660  276.1690  197.6100 S.3   160  MET160     -0.1393
    183  CE       243.7750  274.5760  198.3520 C.3   160  MET160      0.0692
    184  N        241.8150  274.6750  193.0930 N.am  161  ALA161     -0.1977
    185  CA       242.8340  274.1210  192.2180 C.3   161  ALA161      0.1597
    186  C        244.1630  274.1970  192.9410 C.2   161  ALA161      0.2287
    187  O        244.3820  275.1380  193.6930 O.2   161  ALA161     -0.2864
    188  CB       242.8850  274.8770  190.9020 C.3   161  ALA161      0.0319
    189  N        247.0530  275.3770  194.2190 N.3   163  PRO163     -0.2102
    190  CA       247.4670  276.7800  194.1580 C.3   163  PRO163      0.1504
    191  C        248.9200  277.0010  193.7670 C.2   163  PRO163      0.2575
    192  O        249.2250  278.0040  193.1250 O.2   163  PRO163     -0.2718
    193  CB       247.2250  277.2680  195.5900 C.3   163  PRO163      0.0282
    194  CG       247.3630  276.0570  196.4200 C.3   163  PRO163      0.0208
    195  CD       246.7820  274.9490  195.6010 C.3   163  PRO163      0.0893
    196  N        249.8030  276.0850  194.1490 N.am  164  ILE164     -0.1980
    197  CA       251.2340  276.3200  193.9890 C.3   164  ILE164      0.1595
    198  C        252.0110  275.1360  193.4180 C.2   164  ILE164      0.2287
    199  O        251.6260  273.9770  193.5620 O.2   164  ILE164     -0.2864
    200  CB       251.8870  276.7130  195.3340 C.3   164  ILE164      0.0276
    201  CG1      251.6910  275.6080  196.3700 C.3   164  ILE164      0.0022
    202  CG2      251.3310  278.0310  195.8500 C.3   164  ILE164      0.0022
    203  CD1      252.4410  275.8530  197.6550 C.3   164  ILE164      0.0001
    204  N        254.2050  280.3550  203.6120 N.3   186  VAL186     -0.1245
    205  CA       252.7900  280.6880  203.6770 C.3   186  VAL186      0.1561
    206  C        252.2350  280.3680  205.0500 C.2   186  VAL186      0.2260
    207  O        251.5760  281.2000  205.6610 O.2   186  VAL186     -0.2867
    208  CB       251.9700  279.9370  202.6200 C.3   186  VAL186      0.0252
    209  CG1      250.4880  280.1380  202.8650 C.3   186  VAL186      0.0019
    210  CG2      252.3220  280.4260  201.2430 C.3   186  VAL186      0.0019
    211  N        250.7480  283.0200  207.7210 N.3   190  LEU190     -0.1245
    212  CA       249.3690  282.9010  208.1740 C.3   190  LEU190      0.1561
    213  C        249.3290  282.7260  209.6830 C.2   190  LEU190      0.2260
    214  O        248.4320  283.2410  210.3610 O.2   190  LEU190     -0.2867
    215  CB       248.6630  281.7330  207.4860 C.3   190  LEU190      0.0270
    216  CG       248.4700  281.8340  205.9720 C.3   190  LEU190      0.0019
    217  CD1      247.8430  280.5640  205.4300 C.3   190  LEU190      0.0001
    218  CD2      247.6340  283.0450  205.6110 C.3   190  LEU190      0.0001
@<TRIPOS>BOND
     1   188   185    1
     2    43    44    1
     3    44    45    1
     4    44    47    1
     5    45    46    2
     6   185   186    1
     7   185   184    1
     8    25    26    1
     9    25    22    1
    10   186   187    2
    11    32    31    1
    12    49    48    2
    13   184   178   am
    14   192   191    2
    15   174   173    2
    16    48    47    1
    17    48    50   am
    18   198   199    2
    19   198   197    1
    20    24    23    2
    21   191   196   am
    22   191   190    1
    23    22    23    1
    24    22    21    1
    25   197   196    1
    26   197   200    1
    27    14    12    1
    28   178   179    2
    29   178   177    1
    30   190   189    1
    31   190   193    1
    32    23    27   am
    33   189   195    1
    34     9     8    1
    35     9    12    1
    36     9    10    1
    37   173   172    1
    38   173   176   am
    39    13    12    1
    40    31    28    1
    41    11    10    2
    42   172   175    1
    43   172   171    1
    44   177   176    1
    45   177   180    1
    46    27    28    1
    47   166   165    2
    48    51    52    1
    49   200   202    1
    50   200   201    1
    51    10    15   am
    52    28    29    1
    53   193   194    1
    54   195   194    1
    55   181   180    1
    56   181   182    1
    57    54    53    2
    58    55    52    1
    59   171   165   am
    60   165   164    1
    61   201   203    1
    62    52    53    1
    63    15    16    1
    64   162   159    1
    65   161   160    2
    66    53    56   am
    67    29    30    2
    68    29    33   am
    69   160   159    1
    70   160   163   am
    71   159   158    1
    72    18    17    2
    73    17    16    1
    74   169   167    1
    75   163   164    1
    76    16    19    1
    77     4     3    2
    78   164   167    1
    79   182   183    1
    80    70    69    1
    81    70    64    1
    82    33    34    1
    83    69    68    1
    84   167   168    1
    85    56    57    1
    86     6     5    1
    87   135   134    2
    88   168   170    1
    89     2     3    1
    90     2     1    1
    91     2     5    1
    92    68    65    1
    93    42    40   ar
    94    42    41   ar
    95    40    38   ar
    96    57    58    1
    97    57    60    1
    98    19    20    1
    99    64    58   am
   100    64    65    1
   101     7     5    1
   102    34    37    1
   103    34    35    1
   104    41    39   ar
   105    38    37    1
   106    38    39   ar
   107    58    59    2
   108    62    61    1
   109   134   133    1
   110    65    66    1
   111    60    61    1
   112    36    35    2
   113   139   137    1
   114   133   136    1
   115   133   132    1
   116   127   126    2
   117    61    63    1
   118   136   137    1
   119    66    67    2
   120    66    71   am
   121   137   138    1
   122   149   147   ar
   123   149   150   ar
   124   210   208    1
   125   147   145   ar
   126   126   132   am
   127   126   125    1
   128   150   148   ar
   129   145   144    1
   130   145   146   ar
   131   144   141    1
   132   148   146   ar
   133    77    71    1
   134    77    76    1
   135    71    72    1
   136   130   129    1
   137   129   131    1
   138   129   128    1
   139   208   209    1
   140   208   205    1
   141   125   128    1
   142   125   124    1
   143    84    83    1
   144    85    83    1
   145   140   141    1
   146   141   142    1
   147   143   142    2
   148    74    73    2
   149    76    75    1
   150    72    73    1
   151    72    75    1
   152   142   151   am
   153   204   205    1
   154   205   206    1
   155    83    82    1
   156   120   119    2
   157   153   154    2
   158   153   152    1
   159   151   157    1
   160   151   152    1
   161    82    79    1
   162   206   207    2
   163   116   115    1
   164   157   156    1
   165   152   155    1
   166    78    79    1
   167   119   118    1
   168   122   121    1
   169   217   216    1
   170   218   216    1
   171   156   155    1
   172    79    80    1
   173   216   215    1
   174   115   114   ar
   175   115   113   ar
   176   118   121    1
   177   118   117    1
   178   108   107    2
   179   114   112   ar
   180   121   123    1
   181   104   102    1
   182    93    91    1
   183   113   111   ar
   184    91    90    1
   185    80    81    2
   186    92    90    1
   187   112   110   ar
   188   107   117   am
   189   107   106    1
   190    90    87    1
   191   215   212    1
   192   101   102    2
   193   101   100    1
   194   211   212    1
   195   111   110   ar
   196   102   103    1
   197   110   109    1
   198   212   213    1
   199   106   109    1
   200   106   105    1
   201   100    99    1
   202    87    86    1
   203    87    88    1
   204    99    98    1
   205   213   214    2
   206    88    89    2
   207    98    95    1
   208    95    94    1
   209    95    96    1
   210    96    97    2
