@<TRIPOS>MOLECULE
tmp/5xteT09.pdb
 257 251 0 0 0
SMALL
GASTEIGER

@<TRIPOS>ATOM
      1  N        209.2150  314.9150  255.1100 N.3    29  TRP29      -0.1241
      2  CA       210.4720  315.1810  254.4200 C.3    29  TRP29       0.1605
      3  C        211.4280  313.9890  254.4610 C.2    29  TRP29       0.2264
      4  O        212.0510  313.6530  253.4490 O.2    29  TRP29      -0.2867
      5  CB       211.1300  316.4270  255.0100 C.3    29  TRP29       0.0550
      6  CG       210.3270  317.6640  254.7340 C.ar   29  TRP29       0.0003
      7  CD1      209.4500  318.2790  255.5780 C.ar   29  TRP29       0.0946
      8  CD2      210.2980  318.4080  253.5150 C.ar   29  TRP29       0.0152
      9  NE1      208.8930  319.3750  254.9640 N.ar   29  TRP29      -0.2442
     10  CE2      209.3970  319.4740  253.6950 C.ar   29  TRP29       0.0810
     11  CE3      210.9560  318.2820  252.2900 C.ar   29  TRP29       0.0012
     12  CZ2      209.1370  320.4050  252.6980 C.ar   29  TRP29       0.0191
     13  CZ3      210.6970  319.2060  251.3020 C.ar   29  TRP29       0.0001
     14  CH2      209.7970  320.2540  251.5100 C.ar   29  TRP29       0.0015
     15  N        215.3590  315.3480  241.9210 N.3    91  ILE91      -0.1245
     16  CA       214.4760  316.1990  242.7110 C.3    91  ILE91       0.1561
     17  C        214.3910  315.6930  244.1470 C.2    91  ILE91       0.2260
     18  O        214.5780  316.4590  245.1040 O.2    91  ILE91      -0.2867
     19  CB       213.0690  316.2810  242.1070 C.3    91  ILE91       0.0252
     20  CG1      213.1060  317.0680  240.7990 C.3    91  ILE91       0.0019
     21  CG2      212.1120  316.9330  243.0840 C.3    91  ILE91       0.0019
     22  CD1      211.8180  317.0190  240.0220 C.3    91  ILE91       0.0001
     23  N        217.7600  316.4740  245.8160 N.3    94  PHE94      -0.1227
     24  CA       217.9240  317.8470  246.2880 C.3    94  PHE94       0.1736
     25  C        217.0830  318.1370  247.5200 C.2    94  PHE94       0.2595
     26  O        217.5430  318.7950  248.4540 O.2    94  PHE94      -0.2718
     27  CB       217.5620  318.8370  245.1830 C.3    94  PHE94       0.0547
     28  CG       218.5360  318.8630  244.0460 C.ar   94  PHE94      -0.0202
     29  CD1      219.8370  318.4290  244.2210 C.ar   94  PHE94      -0.0042
     30  CD2      218.1490  319.3240  242.8020 C.ar   94  PHE94      -0.0042
     31  CE1      220.7350  318.4560  243.1760 C.ar   94  PHE94      -0.0003
     32  CE2      219.0410  319.3510  241.7530 C.ar   94  PHE94      -0.0003
     33  CZ       220.3350  318.9150  241.9390 C.ar   94  PHE94      -0.0000
     34  N        215.8550  317.6330  247.5250 N.am   95  LEU95      -0.1980
     35  CA       214.9940  317.8070  248.6880 C.3    95  LEU95       0.1596
     36  C        215.5570  317.0800  249.9000 C.2    95  LEU95       0.2287
     37  O        215.4120  317.5280  251.0380 O.2    95  LEU95      -0.2864
     38  CB       213.5840  317.3180  248.3780 C.3    95  LEU95       0.0297
     39  CG       212.8830  318.1680  247.3260 C.3    95  LEU95       0.0022
     40  CD1      211.5640  317.5480  246.9360 C.3    95  LEU95       0.0001
     41  CD2      212.6770  319.5650  247.8720 C.3    95  LEU95       0.0001
     42  N        218.8430  316.3950  250.5060 N.3    97  ILE97      -0.1231
     43  CA       219.9920  317.1430  250.9920 C.3    97  ILE97       0.1692
     44  C        219.5650  318.4270  251.6960 C.2    97  ILE97       0.2593
     45  O        220.1750  318.8350  252.6850 O.2    97  ILE97      -0.2718
     46  CB       220.9470  317.4710  249.8400 C.3    97  ILE97       0.0266
     47  CG1      221.4780  316.1770  249.2290 C.3    97  ILE97       0.0019
     48  CG2      222.1070  318.3070  250.3270 C.3    97  ILE97       0.0020
     49  CD1      222.2070  316.3710  247.9320 C.3    97  ILE97       0.0001
     50  N        218.4930  319.0470  251.2100 N.am   98  GLY98      -0.1942
     51  CA       218.0000  320.2610  251.8320 C.3    98  GLY98       0.2014
     52  C        217.4340  319.9370  253.1950 C.2    98  GLY98       0.2638
     53  O        217.5940  320.6990  254.1480 O.2    98  GLY98      -0.2714
     54  N        216.7890  318.7800  253.2890 N.am   99  ARG99      -0.1977
     55  CA       216.2810  318.3090  254.5640 C.3    99  ARG99       0.1597
     56  C        217.4100  318.0770  255.5480 C.2    99  ARG99       0.2287
     57  O        217.2870  318.3750  256.7330 O.2    99  ARG99      -0.2864
     58  CB       215.5260  317.0000  254.3960 C.3    99  ARG99       0.0334
     59  CG       215.0470  316.4510  255.7110 C.3    99  ARG99       0.0492
     60  CD       214.5980  315.0260  255.5700 C.3    99  ARG99       0.2205
     61  NE       215.7280  314.1880  255.1880 N.pl3  99  ARG99      -0.0865
     62  CZ       216.6650  313.7710  256.0320 C.cat  99  ARG99       0.5346
     63  NH1      216.6170  314.1280  257.3050 N.pl3  99  ARG99       0.1354
     64  NH2      217.6600  313.0130  255.6030 N.pl3  99  ARG99       0.1354
     65  N        220.2840  319.5080  255.5180 N.3   101  LEU101     -0.1231
     66  CA       220.9460  320.7660  255.8130 C.3   101  LEU101      0.1693
     67  C        220.1050  321.5930  256.7770 C.2   101  LEU101      0.2592
     68  O        220.6330  322.3780  257.5620 O.2   101  LEU101     -0.2718
     69  CB       221.2110  321.5440  254.5210 C.3   101  LEU101      0.0284
     70  CG       222.1120  322.7770  254.6060 C.3   101  LEU101      0.0019
     71  CD1      222.8890  322.9570  253.3150 C.3   101  LEU101      0.0001
     72  CD2      221.3220  324.0340  254.9150 C.3   101  LEU101      0.0001
     73  N        218.7900  321.4120  256.7140 N.am  102  TYR102     -0.1962
     74  CA       217.8790  322.2500  257.4820 C.3   102  TYR102      0.1771
     75  C        217.7530  321.8010  258.9330 C.2   102  TYR102      0.2619
     76  O        217.8020  322.6170  259.8450 O.2   102  TYR102     -0.2715
     77  CB       216.4970  322.2610  256.8310 C.3   102  TYR102      0.0574
     78  CG       215.5060  323.1770  257.5100 C.ar  102  TYR102     -0.0198
     79  CD1      215.4870  324.5340  257.2270 C.ar  102  TYR102     -0.0009
     80  CD2      214.6020  322.6910  258.4400 C.ar  102  TYR102     -0.0009
     81  CE1      214.5870  325.3780  257.8410 C.ar  102  TYR102      0.0417
     82  CE2      213.7030  323.5320  259.0640 C.ar  102  TYR102      0.0417
     83  CZ       213.7010  324.8730  258.7590 C.ar  102  TYR102      0.1957
     84  OH       212.8050  325.7110  259.3760 O.3   102  TYR102     -0.2866
     85  N        217.6010  320.4990  259.1460 N.am  103  TYR103     -0.1974
     86  CA       217.3110  319.9780  260.4780 C.3   103  TYR103      0.1639
     87  C        218.5570  319.6090  261.2720 C.2   103  TYR103      0.2290
     88  O        218.4550  319.0000  262.3330 O.2   103  TYR103     -0.2864
     89  CB       216.3820  318.7690  260.3840 C.3   103  TYR103      0.0560
     90  CG       214.9860  319.1130  259.9230 C.ar  103  TYR103     -0.0198
     91  CD1      214.0170  319.5100  260.8290 C.ar  103  TYR103     -0.0009
     92  CD2      214.6390  319.0410  258.5850 C.ar  103  TYR103     -0.0009
     93  CE1      212.7400  319.8230  260.4140 C.ar  103  TYR103      0.0417
     94  CE2      213.3660  319.3530  258.1620 C.ar  103  TYR103      0.0417
     95  CZ       212.4200  319.7430  259.0800 C.ar  103  TYR103      0.1957
     96  OH       211.1480  320.0550  258.6650 O.3   103  TYR103     -0.2866
     97  N        226.5740  311.1240  246.2380 N.3   119  LEU119     -0.1245
     98  CA       226.1070  312.2200  245.4040 C.3   119  LEU119      0.1561
     99  C        226.9600  312.3700  244.1590 C.2   119  LEU119      0.2260
    100  O        226.4360  312.4730  243.0460 O.2   119  LEU119     -0.2867
    101  CB       226.1150  313.5280  246.1910 C.3   119  LEU119      0.0270
    102  CG       225.8400  314.8030  245.3990 C.3   119  LEU119      0.0019
    103  CD1      224.4470  314.7820  244.8100 C.3   119  LEU119      0.0001
    104  CD2      226.0420  316.0280  246.2750 C.3   119  LEU119      0.0001
    105  N        225.9150  311.7910  240.2340 N.3   123  MET123     -0.1245
    106  CA       226.1480  312.8400  239.2490 C.3   123  MET123      0.1570
    107  C        226.8900  312.3040  238.0340 C.2   123  MET123      0.2261
    108  O        226.4900  312.5570  236.8930 O.2   123  MET123     -0.2867
    109  CB       226.9220  314.0030  239.8660 C.3   123  MET123      0.0387
    110  CG       226.1220  314.8050  240.8690 C.3   123  MET123      0.0595
    111  SD       227.0780  316.1230  241.6410 S.3   123  MET123     -0.1393
    112  CE       227.2720  317.2560  240.2720 C.3   123  MET123      0.0692
    113  N        212.5150  316.3050  263.8660 N.3   207  PRO207     -0.2116
    114  CA       212.4600  317.7280  263.5130 C.3   207  PRO207      0.1372
    115  C        212.7410  318.6910  264.6650 C.2   207  PRO207      0.2244
    116  O        213.3390  319.7350  264.4220 O.2   207  PRO207     -0.2868
    117  CB       211.0300  317.8960  263.0070 C.3   207  PRO207      0.0268
    118  CG       210.6720  316.5550  262.4820 C.3   207  PRO207      0.0207
    119  CD       211.2960  315.5980  263.4460 C.3   207  PRO207      0.0892
    120  N        218.8600  320.0680  233.2290 N.3   271  TRP271     -0.1241
    121  CA       218.6340  321.1200  234.2190 C.3   271  TRP271      0.1605
    122  C        219.3040  320.9340  235.5730 C.2   271  TRP271      0.2264
    123  O        219.7320  321.9130  236.1830 O.2   271  TRP271     -0.2867
    124  CB       217.1320  321.2940  234.4470 C.3   271  TRP271      0.0550
    125  CG       216.4730  320.0670  234.9690 C.ar  271  TRP271      0.0003
    126  CD1      215.9680  319.0360  234.2390 C.ar  271  TRP271      0.0946
    127  CD2      216.2500  319.7330  236.3420 C.ar  271  TRP271      0.0152
    128  NE1      215.4410  318.0800  235.0710 N.ar  271  TRP271     -0.2442
    129  CE2      215.6020  318.4860  236.3690 C.ar  271  TRP271      0.0810
    130  CE3      216.5340  320.3710  237.5540 C.ar  271  TRP271      0.0012
    131  CZ2      215.2350  317.8610  237.5550 C.ar  271  TRP271      0.0191
    132  CZ3      216.1680  319.7490  238.7310 C.ar  271  TRP271      0.0001
    133  CH2      215.5260  318.5080  238.7230 C.ar  271  TRP271      0.0015
    134  N        222.9780  324.8300  237.5170 N.3   275  PHE275     -0.1241
    135  CA       223.5000  325.8230  238.4420 C.3   275  PHE275      0.1605
    136  C        225.0150  325.7070  238.4930 C.2   275  PHE275      0.2264
    137  O        225.7220  326.7150  238.4670 O.2   275  PHE275     -0.2867
    138  CB       222.8930  325.6600  239.8390 C.3   275  PHE275      0.0534
    139  CG       223.2190  324.3520  240.5020 C.ar  275  PHE275     -0.0203
    140  CD1      224.3450  324.2260  241.3010 C.ar  275  PHE275     -0.0042
    141  CD2      222.4000  323.2510  240.3370 C.ar  275  PHE275     -0.0042
    142  CE1      224.6500  323.0270  241.9100 C.ar  275  PHE275     -0.0003
    143  CE2      222.7000  322.0500  240.9470 C.ar  275  PHE275     -0.0003
    144  CZ       223.8280  321.9390  241.7330 C.ar  275  PHE275     -0.0000
    145  N        231.8400  323.7390  244.5890 N.3   296  SER296     -0.1202
    146  CA       230.3880  323.8860  244.6270 C.3   296  SER296      0.2020
    147  C        229.7010  322.6930  245.2780 C.2   296  SER296      0.2618
    148  O        228.6370  322.8300  245.8790 O.2   296  SER296     -0.2717
    149  CB       229.8340  324.0790  243.2170 C.3   296  SER296      0.2103
    150  OG       228.4190  324.1190  243.2320 O.3   296  SER296     -0.2182
    151  N        230.3160  321.5210  245.1620 N.am  297  ILE297     -0.1979
    152  CA       229.7430  320.3060  245.7200 C.3   297  ILE297      0.1595
    153  C        230.5370  319.8470  246.9410 C.2   297  ILE297      0.2287
    154  O        229.9720  319.3200  247.8980 O.2   297  ILE297     -0.2864
    155  CB       229.6970  319.1810  244.6700 C.3   297  ILE297      0.0276
    156  CG1      228.7790  319.5700  243.5100 C.3   297  ILE297      0.0022
    157  CG2      229.2010  317.8870  245.2840 C.3   297  ILE297      0.0022
    158  CD1      229.5050  320.1180  242.3000 C.3   297  ILE297      0.0001
    159  N        229.8360  321.0410  250.8420 N.3   300  LEU300     -0.1245
    160  CA       228.9100  320.4250  251.7840 C.3   300  LEU300      0.1561
    161  C        229.6380  319.7720  252.9500 C.2   300  LEU300      0.2260
    162  O        229.1180  319.7130  254.0630 O.2   300  LEU300     -0.2867
    163  CB       228.0480  319.3810  251.0760 C.3   300  LEU300      0.0270
    164  CG       227.1110  319.8770  249.9790 C.3   300  LEU300      0.0019
    165  CD1      226.4080  318.7070  249.3160 C.3   300  LEU300      0.0001
    166  CD2      226.1070  320.8660  250.5420 C.3   300  LEU300      0.0001
    167  N        214.2730  325.3860  262.8750 N.3   315  MET315     -0.1245
    168  CA       212.8830  325.7460  263.1560 C.3   315  MET315      0.1570
    169  C        212.7430  326.6050  264.4070 C.2   315  MET315      0.2261
    170  O        211.8310  327.4240  264.5130 O.2   315  MET315     -0.2867
    171  CB       212.0220  324.4870  263.2890 C.3   315  MET315      0.0387
    172  CG       212.3390  323.6350  264.5050 C.3   315  MET315      0.0595
    173  SD       211.2390  322.2190  264.6970 S.3   315  MET315     -0.1393
    174  CE       209.7670  322.9980  265.3470 C.3   315  MET315      0.0692
    175  N        216.8570  330.3800  259.4120 N.3   321  GLN321     -0.1245
    176  CA       215.8500  329.8460  258.5120 C.3   321  GLN321      0.1566
    177  C        215.6820  330.7700  257.3120 C.2   321  GLN321      0.2260
    178  O        215.5800  330.3180  256.1650 O.2   321  GLN321     -0.2867
    179  CB       214.5240  329.6720  259.2520 C.3   321  GLN321      0.0367
    180  CG       213.4310  329.0010  258.4560 C.3   321  GLN321      0.0905
    181  CD       212.2070  328.7200  259.3000 C.2   321  GLN321      0.2608
    182  OE1      212.2160  328.9360  260.5130 O.2   321  GLN321     -0.2717
    183  NE2      211.1440  328.2410  258.6660 N.am  321  GLN321     -0.0878
    184  N        218.4210  330.3780  255.0820 N.3   324  TYR324     -0.1227
    185  CA       218.2800  329.1160  254.3870 C.3   324  TYR324      0.1736
    186  C        217.4150  329.2960  253.1540 C.2   324  TYR324      0.2595
    187  O        217.7620  328.8340  252.0600 O.2   324  TYR324     -0.2718
    188  CB       217.6880  328.0620  255.3190 C.3   324  TYR324      0.0548
    189  CG       217.3940  326.7480  254.6480 C.ar  324  TYR324     -0.0200
    190  CD1      218.4120  325.8720  254.3230 C.ar  324  TYR324     -0.0009
    191  CD2      216.0930  326.3720  254.3580 C.ar  324  TYR324     -0.0009
    192  CE1      218.1480  324.6690  253.7140 C.ar  324  TYR324      0.0417
    193  CE2      215.8190  325.1680  253.7520 C.ar  324  TYR324      0.0417
    194  CZ       216.8510  324.3200  253.4340 C.ar  324  TYR324      0.1957
    195  OH       216.5910  323.1160  252.8280 O.3   324  TYR324     -0.2866
    196  N        216.2930  329.9850  253.3140 N.am  325  TRP325     -0.1976
    197  CA       215.4390  330.1880  252.1550 C.3   325  TRP325      0.1640
    198  C        216.0370  331.2070  251.1810 C.2   325  TRP325      0.2290
    199  O        215.7330  331.1740  249.9850 O.2   325  TRP325     -0.2864
    200  CB       214.0310  330.5910  252.5760 C.3   325  TRP325      0.0576
    201  CG       213.3310  329.5110  253.3280 C.ar  325  TRP325      0.0006
    202  CD1      213.0450  329.4910  254.6570 C.ar  325  TRP325      0.0946
    203  CD2      212.9120  328.2450  252.8090 C.ar  325  TRP325      0.0152
    204  NE1      212.4210  328.3140  254.9900 N.ar  325  TRP325     -0.2442
    205  CE2      212.3350  327.5290  253.8710 C.ar  325  TRP325      0.0810
    206  CE3      212.9500  327.6570  251.5420 C.ar  325  TRP325      0.0012
    207  CZ2      211.8030  326.2570  253.7090 C.ar  325  TRP325      0.0191
    208  CZ3      212.4200  326.3940  251.3840 C.ar  325  TRP325      0.0001
    209  CH2      211.8520  325.7100  252.4590 C.ar  325  TRP325      0.0015
    210  N        219.1320  331.0250  250.5260 N.3   327  LEU327     -0.1231
    211  CA       220.0200  330.1120  249.8290 C.3   327  LEU327      0.1693
    212  C        219.2580  329.3320  248.7710 C.2   327  LEU327      0.2591
    213  O        219.7490  329.1330  247.6570 O.2   327  LEU327     -0.2718
    214  CB       220.6890  329.1630  250.8210 C.3   327  LEU327      0.0284
    215  CG       221.6380  328.1100  250.2550 C.3   327  LEU327      0.0019
    216  CD1      222.8380  328.7760  249.6110 C.3   327  LEU327      0.0001
    217  CD2      222.0700  327.1440  251.3460 C.3   327  LEU327      0.0001
    218  N        218.0400  328.9170  249.1090 N.am  328  ALA328     -0.1980
    219  CA       217.2170  328.1860  248.1520 C.3   328  ALA328      0.1597
    220  C        216.8280  329.0690  246.9730 C.2   328  ALA328      0.2287
    221  O        216.8740  328.6400  245.8110 O.2   328  ALA328     -0.2864
    222  CB       215.9780  327.6370  248.8310 C.3   328  ALA328      0.0319
    223  N        219.7150  329.3510  244.7230 N.3   331  LEU331     -0.1231
    224  CA       219.8610  328.1740  243.8760 C.3   331  LEU331      0.1693
    225  C        218.8760  328.1980  242.7180 C.2   331  LEU331      0.2591
    226  O        219.2040  327.7590  241.6150 O.2   331  LEU331     -0.2718
    227  CB       219.6830  326.8900  244.6870 C.3   331  LEU331      0.0284
    228  CG       220.7850  326.5780  245.6990 C.3   331  LEU331      0.0019
    229  CD1      220.4310  325.3460  246.5010 C.3   331  LEU331      0.0001
    230  CD2      222.1080  326.3860  244.9850 C.3   331  LEU331      0.0001
    231  N        217.6770  328.7200  242.9550 N.am  332  LEU332     -0.1980
    232  CA       216.7290  328.8960  241.8620 C.3   332  LEU332      0.1596
    233  C        217.2530  329.9110  240.8570 C.2   332  LEU332      0.2287
    234  O        217.0450  329.7740  239.6490 O.2   332  LEU332     -0.2864
    235  CB       215.3640  329.3330  242.3860 C.3   332  LEU332      0.0297
    236  CG       214.6090  328.3140  243.2380 C.3   332  LEU332      0.0022
    237  CD1      213.3490  328.9360  243.8090 C.3   332  LEU332      0.0001
    238  CD2      214.2750  327.0780  242.4220 C.3   332  LEU332      0.0001
    239  N        219.9270  328.2300  238.8300 N.3   335  THR335     -0.1218
    240  CA       219.3060  327.1800  238.0370 C.3   335  THR335      0.1862
    241  C        218.5900  327.7810  236.8380 C.2   335  THR335      0.2287
    242  O        218.5480  327.1830  235.7650 O.2   335  THR335     -0.2866
    243  CB       218.3150  326.3560  238.8760 C.3   335  THR335      0.1770
    244  OG1      219.0040  325.7750  239.9880 O.3   335  THR335     -0.2211
    245  CG2      217.7010  325.2460  238.0470 C.3   335  THR335      0.0375
    246  N        226.2660  332.9040  246.8400 N.3   357  TYR357     -0.1241
    247  CA       226.1080  331.4910  247.1770 C.3   357  TYR357      0.1605
    248  C        227.2340  330.9710  248.0520 C.2   357  TYR357      0.2264
    249  O        227.0040  330.1350  248.9220 O.2   357  TYR357     -0.2867
    250  CB       226.0210  330.6340  245.9120 C.3   357  TYR357      0.0534
    251  CG       226.0940  329.1520  246.2000 C.ar  357  TYR357     -0.0201
    252  CD1      225.0030  328.4670  246.7140 C.ar  357  TYR357     -0.0009
    253  CD2      227.2620  328.4380  245.9660 C.ar  357  TYR357     -0.0009
    254  CE1      225.0710  327.1140  246.9830 C.ar  357  TYR357      0.0417
    255  CE2      227.3400  327.0870  246.2340 C.ar  357  TYR357      0.0417
    256  CZ       226.2430  326.4310  246.7420 C.ar  357  TYR357      0.1957
    257  OH       226.3180  325.0830  247.0070 O.3   357  TYR357     -0.2866
@<TRIPOS>BOND
     1   120   121    1
     2   121   124    1
     3   121   122    1
     4   126   125   ar
     5   126   128   ar
     6   124   125    1
     7   125   127   ar
     8   128   129   ar
     9   122   123    2
    10   242   241    2
    11   127   129   ar
    12   127   130   ar
    13   129   131   ar
    14   241   240    1
    15   108   107    2
    16   134   135    1
    17   130   132   ar
    18   131   133   ar
    19   107   106    1
    20   240   239    1
    21   240   243    1
    22   245   243    1
    23   135   136    1
    24   135   138    1
    25   137   136    2
    26   133   132   ar
    27   243   244    1
    28   106   109    1
    29   106   105    1
    30   234   233    2
    31   138   139    1
    32   109   110    1
    33    22    20    1
    34   112   111    1
    35   141   139   ar
    36   141   143   ar
    37   139   140   ar
    38    20    19    1
    39   233   232    1
    40   110   111    1
    41   143   144   ar
    42   140   142   ar
    43   226   225    2
    44   144   142   ar
    45    32    33   ar
    46    32    30   ar
    47   232   235    1
    48   232   231    1
    49    15    16    1
    50    33    31   ar
    51    19    16    1
    52    19    21    1
    53   158   156    1
    54   235   236    1
    55   238   236    1
    56    16    17    1
    57   225   231   am
    58   225   224    1
    59    30    28   ar
    60   100    99    2
    61    31    29   ar
    62   149   150    1
    63   149   146    1
    64   236   237    1
    65   156   155    1
    66   224   227    1
    67   224   223    1
    68    28    29   ar
    69    28    27    1
    70    17    18    2
    71    99    98    1
    72   145   146    1
    73   146   147    1
    74   155   157    1
    75   155   152    1
    76   227   228    1
    77   103   102    1
    78   230   228    1
    79   151   147   am
    80   151   152    1
    81    27    24    1
    82   147   148    2
    83   102   101    1
    84   102   104    1
    85    98   101    1
    86    98    97    1
    87   228   229    1
    88   152   153    1
    89   221   220    2
    90    23    24    1
    91   250   251    1
    92   250   247    1
    93   253   251   ar
    94   253   255   ar
    95   251   252   ar
    96   255   256   ar
    97    24    25    1
    98   252   254   ar
    99   256   254   ar
   100   256   257    1
   101   246   247    1
   102    40    39    1
   103   153   154    2
   104   220   219    1
   105   247   248    1
   106    39    41    1
   107    39    38    1
   108    25    34   am
   109    25    26    2
   110    34    35    1
   111   213   212    2
   112    49    47    1
   113   248   249    2
   114   219   222    1
   115   219   218    1
   116    38    35    1
   117    35    36    1
   118   212   218   am
   119   212   211    1
   120    47    46    1
   121   165   164    1
   122   216   215    1
   123   211   210    1
   124   211   214    1
   125    46    48    1
   126    46    43    1
   127    36    37    2
   128   164   166    1
   129   164   163    1
   130   199   198    2
   131   215   214    1
   132   215   217    1
   133    42    43    1
   134   159   160    1
   135    43    44    1
   136   163   160    1
   137   198   197    1
   138    50    44   am
   139    50    51    1
   140    13    14   ar
   141    13    11   ar
   142   208   206   ar
   143   208   209   ar
   144    14    12   ar
   145   206   203   ar
   146    44    45    2
   147   160   161    1
   148    51    52    1
   149   187   186    2
   150   197   200    1
   151   197   196    1
   152    11     8   ar
   153   209   207   ar
   154   200   201    1
   155    12    10   ar
   156   203   201   ar
   157   203   205   ar
   158   195   194    1
   159   161   162    2
   160   186   196   am
   161   186   185    1
   162    52    54   am
   163    52    53    2
   164    54    55    1
   165    71    70    1
   166   201   202   ar
   167   194   192   ar
   168   194   193   ar
   169     4     3    2
   170     8    10   ar
   171     8     6   ar
   172    10     9   ar
   173   207   205   ar
   174   192   190   ar
   175   193   191   ar
   176   205   204   ar
   177   190   189   ar
   178   191   189   ar
   179   185   184    1
   180   185   188    1
   181    58    55    1
   182    58    59    1
   183     2     3    1
   184     2     5    1
   185     2     1    1
   186    69    70    1
   187    69    66    1
   188    55    56    1
   189    70    72    1
   190   189   188    1
   191   202   204   ar
   192     6     5    1
   193     6     7   ar
   194     9     7   ar
   195    61    60    1
   196    61    62    2
   197    65    66    1
   198    56    57    2
   199    60    59    1
   200    64    62    1
   201    66    67    1
   202    62    63    1
   203   178   177    2
   204    73    67   am
   205    73    74    1
   206    67    68    2
   207    77    74    1
   208    77    78    1
   209    79    78   ar
   210    79    81   ar
   211   177   176    1
   212    74    75    1
   213    78    80   ar
   214    81    83   ar
   215    94    92   ar
   216    94    95   ar
   217    80    82   ar
   218   180   179    1
   219   180   181    1
   220   176   179    1
   221   176   175    1
   222    92    90   ar
   223    96    95    1
   224   183   181   am
   225    83    82   ar
   226    83    84    1
   227    75    85   am
   228    75    76    2
   229    95    93   ar
   230    85    86    1
   231   181   182    2
   232    90    89    1
   233    90    91   ar
   234    89    86    1
   235    93    91   ar
   236    86    87    1
   237    87    88    2
   238   118   117    1
   239   118   119    1
   240   167   168    1
   241   117   114    1
   242   168   171    1
   243   168   169    1
   244   171   172    1
   245   119   113    1
   246   114   113    1
   247   114   115    1
   248   169   170    2
   249   116   115    2
   250   172   173    1
   251   173   174    1
