@<TRIPOS>MOLECULE
tmp/5xteN02.pdb
 85 84 0 0 0
SMALL
GASTEIGER

@<TRIPOS>ATOM
      1  N        196.0810  298.0050  243.7000 N.3    47  VAL47      -0.1245
      2  CA       197.5060  297.7260  243.6100 C.3    47  VAL47       0.1561
      3  C        197.7650  296.4980  242.7440 C.2    47  VAL47       0.2260
      4  O        198.7300  296.4630  241.9860 O.2    47  VAL47      -0.2867
      5  CB       198.1280  297.5170  245.0060 C.3    47  VAL47       0.0252
      6  CG1      199.5900  297.1230  244.8900 C.3    47  VAL47       0.0019
      7  CG2      197.9820  298.7740  245.8400 C.3    47  VAL47       0.0019
      8  N        195.8880  295.4790  240.2240 N.3    49  TYR49      -0.1227
      9  CA       195.6230  295.8200  238.8320 C.3    49  TYR49       0.1736
     10  C        196.7910  296.5860  238.2230 C.2    49  TYR49       0.2595
     11  O        197.2850  296.2380  237.1370 O.2    49  TYR49      -0.2718
     12  CB       194.3280  296.6300  238.7210 C.3    49  TYR49       0.0548
     13  CG       194.0390  297.1670  237.3390 C.ar   49  TYR49      -0.0200
     14  CD1      193.6360  296.3250  236.3130 C.ar   49  TYR49      -0.0009
     15  CD2      194.1320  298.5240  237.0700 C.ar   49  TYR49      -0.0009
     16  CE1      193.3630  296.8190  235.0510 C.ar   49  TYR49       0.0417
     17  CE2      193.8550  299.0270  235.8170 C.ar   49  TYR49       0.0417
     18  CZ       193.4720  298.1710  234.8100 C.ar   49  TYR49       0.1957
     19  OH       193.1970  298.6730  233.5600 O.3    49  TYR49      -0.2866
     20  N        197.2580  297.6080  238.9350 N.am   50  ALA50      -0.1966
     21  CA       198.3950  298.3790  238.4490 C.3    50  ALA50       0.1728
     22  C        199.6430  297.5070  238.3460 C.2    50  ALA50       0.2616
     23  O        200.4560  297.6680  237.4290 O.2    50  ALA50      -0.2715
     24  CB       198.6500  299.5670  239.3500 C.3    50  ALA50       0.0334
     25  N        199.7790  296.5630  239.2750 N.am   51  ALA51      -0.1963
     26  CA       200.9350  295.6790  239.2880 C.3    51  ALA51       0.1728
     27  C        200.9380  294.7670  238.0720 C.2    51  ALA51       0.2616
     28  O        201.9650  294.6250  237.3970 O.2    51  ALA51      -0.2715
     29  CB       200.9660  294.8550  240.5610 C.3    51  ALA51       0.0334
     30  N        199.7880  294.1640  237.7770 N.am   52  LYS52      -0.1963
     31  CA       199.7150  293.3180  236.5960 C.3    52  LYS52       0.1728
     32  C        199.9840  294.1220  235.3450 C.2    52  LYS52       0.2616
     33  O        200.6890  293.6610  234.4490 O.2    52  LYS52      -0.2715
     34  CB       198.3560  292.6450  236.4540 C.3    52  LYS52       0.0311
     35  CG       198.2700  291.8310  235.1700 C.3    52  LYS52       0.0038
     36  CD       196.9560  291.1180  235.0040 C.3    52  LYS52       0.0206
     37  CE       196.9080  290.3880  233.6770 C.3    52  LYS52       0.1093
     38  NZ       196.8420  291.3320  232.5250 N.3    52  LYS52      -0.1314
     39  N        199.4500  295.3380  235.2910 N.am   53  ASN53      -0.1958
     40  CA       199.6520  296.1450  234.0980 C.3    53  ASN53       0.1819
     41  C        201.1250  296.4460  233.8790 C.2    53  ASN53       0.2621
     42  O        201.6370  296.2740  232.7730 O.2    53  ASN53      -0.2715
     43  CB       198.8550  297.4400  234.1790 C.3    53  ASN53       0.1195
     44  CG       197.3720  297.2140  234.0070 C.2    53  ASN53       0.2630
     45  OD1      196.9480  296.2310  233.4010 O.2    53  ASN53      -0.2716
     46  ND2      196.5710  298.1240  234.5420 N.am   53  ASN53      -0.0877
     47  N        201.8210  296.8260  234.9460 N.am   54  ALA54      -0.1963
     48  CA       203.2350  297.1650  234.8270 C.3    54  ALA54       0.1728
     49  C        204.0780  295.9550  234.4360 C.2    54  ALA54       0.2616
     50  O        204.8880  296.0180  233.4970 O.2    54  ALA54      -0.2715
     51  CB       203.7400  297.7570  236.1280 C.3    54  ALA54       0.0334
     52  N        203.8790  294.8440  235.1420 N.am   55  VAL55      -0.1977
     53  CA       204.6780  293.6590  234.8680 C.3    55  VAL55       0.1596
     54  C        204.4210  293.1500  233.4500 C.2    55  VAL55       0.2287
     55  O        205.3470  292.7200  232.7660 O.2    55  VAL55      -0.2864
     56  CB       204.3910  292.5400  235.8830 C.3    55  VAL55       0.0276
     57  CG1      205.1580  291.2820  235.5240 C.3    55  VAL55       0.0022
     58  CG2      204.7510  293.0010  237.2830 C.3    55  VAL55       0.0022
     59  N        203.6820  295.0950  231.0140 N.3    57  GLN57      -0.1231
     60  CA       204.4030  296.0380  230.1600 C.3    57  GLN57       0.1698
     61  C        205.8340  295.5670  229.9570 C.2    57  GLN57       0.2592
     62  O        206.2760  295.3080  228.8240 O.2    57  GLN57      -0.2718
     63  CB       204.4210  297.4440  230.7690 C.3    57  GLN57       0.0381
     64  CG       203.0730  298.1160  230.9020 C.3    57  GLN57       0.0905
     65  CD       202.4700  298.5040  229.5790 C.2    57  GLN57       0.2608
     66  OE1      201.6580  297.7740  229.0160 O.2    57  GLN57      -0.2717
     67  NE2      202.8360  299.6800  229.0870 N.am   57  GLN57      -0.0878
     68  N        206.5530  295.4360  231.0690 N.am   58  PHE58      -0.1962
     69  CA       207.9690  295.1010  230.9890 C.3    58  PHE58       0.1771
     70  C        208.2230  293.7210  230.3860 C.2    58  PHE58       0.2619
     71  O        209.2210  293.5240  229.6960 O.2    58  PHE58      -0.2715
     72  CB       208.6200  295.1950  232.3700 C.3    58  PHE58       0.0574
     73  CG       208.6920  296.5940  232.9160 C.ar   58  PHE58      -0.0200
     74  CD1      209.6910  297.4570  232.5070 C.ar   58  PHE58      -0.0042
     75  CD2      207.7760  297.0390  233.8470 C.ar   58  PHE58      -0.0042
     76  CE1      209.7690  298.7390  233.0040 C.ar   58  PHE58      -0.0003
     77  CE2      207.8470  298.3220  234.3510 C.ar   58  PHE58      -0.0003
     78  CZ       208.8480  299.1730  233.9270 C.ar   58  PHE58      -0.0000
     79  N        207.3270  292.7720  230.6260 N.am   59  VAL59      -0.1977
     80  CA       207.4750  291.4550  230.0110 C.3    59  VAL59       0.1596
     81  C        207.1650  291.5030  228.5190 C.2    59  VAL59       0.2287
     82  O        207.8560  290.8710  227.7200 O.2    59  VAL59      -0.2864
     83  CB       206.5770  290.4060  230.6890 C.3    59  VAL59       0.0276
     84  CG1      206.6190  289.0960  229.9250 C.3    59  VAL59       0.0022
     85  CG2      207.0240  290.1830  232.1180 C.3    59  VAL59       0.0022
@<TRIPOS>BOND
     1    82    81    2
     2    81    80    1
     3    62    61    2
     4    66    65    2
     5    67    65   am
     6    65    64    1
     7    71    70    2
     8    84    83    1
     9    61    60    1
    10    61    68   am
    11    80    79    1
    12    80    83    1
    13    60    63    1
    14    60    59    1
    15    70    79   am
    16    70    69    1
    17    83    85    1
    18    63    64    1
    19    69    68    1
    20    69    72    1
    21    72    73    1
    22    74    73   ar
    23    74    76   ar
    24    38    37    1
    25    55    54    2
    26    42    41    2
    27    73    75   ar
    28    76    78   ar
    29    45    44    2
    30    54    53    1
    31    50    49    2
    32    19    18    1
    33    37    36    1
    34    75    77   ar
    35    41    40    1
    36    41    47   am
    37    78    77   ar
    38    44    43    1
    39    44    46   am
    40    40    43    1
    41    40    39    1
    42    49    48    1
    43    49    52   am
    44    33    32    2
    45    18    16   ar
    46    18    17   ar
    47    48    47    1
    48    48    51    1
    49    53    52    1
    50    53    56    1
    51    36    35    1
    52    16    14   ar
    53    35    34    1
    54    39    32   am
    55    32    31    1
    56    57    56    1
    57    17    15   ar
    58    56    58    1
    59    14    13   ar
    60    34    31    1
    61    31    30    1
    62    15    13   ar
    63    11    10    2
    64    13    12    1
    65    28    27    2
    66    23    22    2
    67    30    27   am
    68    27    26    1
    69    10     9    1
    70    10    20   am
    71    22    21    1
    72    22    25   am
    73    21    20    1
    74    21    24    1
    75    12     9    1
    76     9     8    1
    77    25    26    1
    78    26    29    1
    79     4     3    2
    80     3     2    1
    81     2     1    1
    82     2     5    1
    83     6     5    1
    84     5     7    1
