@<TRIPOS>MOLECULE
tmp/5xteT06.pdb
 108 100 0 0 0
SMALL
GASTEIGER

@<TRIPOS>ATOM
      1  N        207.0330  314.3940  256.6950 N.3    28  ALA28      -0.1245
      2  CA       206.9770  313.9770  255.3010 C.3    28  ALA28       0.1562
      3  C        208.3050  314.1170  254.5660 C.2    28  ALA28       0.2260
      4  O        208.4900  313.5310  253.5030 O.2    28  ALA28      -0.2867
      5  CB       205.9060  314.7680  254.5760 C.3    28  ALA28       0.0290
      6  N        210.7140  311.0480  254.3820 N.3    31  ASN31      -0.1225
      7  CA       210.2040  310.0530  253.4560 C.3    31  ASN31       0.1785
      8  C        210.9800  310.1090  252.1430 C.2    31  ASN31       0.2597
      9  O        211.2230  309.0720  251.5170 O.2    31  ASN31      -0.2718
     10  CB       208.7080  310.2810  253.2180 C.3    31  ASN31       0.1169
     11  CG       208.0370  309.1270  252.4930 C.2    31  ASN31       0.2627
     12  OD1      208.6840  308.3280  251.8200 O.2    31  ASN31      -0.2716
     13  ND2      206.7220  309.0310  252.6430 N.am   31  ASN31      -0.0877
     14  N        211.4390  311.3030  251.7690 N.am   32  PHE32      -0.1976
     15  CA       212.1540  311.4520  250.5060 C.3    32  PHE32       0.1639
     16  C        213.3750  310.5650  250.4630 C.2    32  PHE32       0.2290
     17  O        213.7180  310.0360  249.4050 O.2    32  PHE32      -0.2864
     18  CB       212.5710  312.9020  250.2550 C.3    32  PHE32       0.0560
     19  CG       211.4470  313.7920  249.8370 C.ar   32  PHE32      -0.0200
     20  CD1      211.0180  313.7930  248.5230 C.ar   32  PHE32      -0.0042
     21  CD2      210.8340  314.6400  250.7360 C.ar   32  PHE32      -0.0042
     22  CE1      209.9890  314.6030  248.1170 C.ar   32  PHE32      -0.0003
     23  CE2      209.8020  315.4580  250.3340 C.ar   32  PHE32      -0.0003
     24  CZ       209.3800  315.4390  249.0220 C.ar   32  PHE32      -0.0000
     25  N        212.4250  307.3740  249.3980 N.3    35  LEU35      -0.1245
     26  CA       212.0060  307.4710  248.0100 C.3    35  LEU35       0.1561
     27  C        213.2120  307.3180  247.1060 C.2    35  LEU35       0.2260
     28  O        213.1260  306.6710  246.0630 O.2    35  LEU35      -0.2867
     29  CB       211.2950  308.7960  247.7370 C.3    35  LEU35       0.0270
     30  CG       209.9560  308.9770  248.4460 C.3    35  LEU35       0.0019
     31  CD1      209.3880  310.3590  248.1860 C.3    35  LEU35       0.0001
     32  CD2      208.9880  307.9040  247.9950 C.3    35  LEU35       0.0001
     33  N        213.2160  312.9090  238.5190 N.3    88  MET88      -0.1245
     34  CA       212.5770  312.7400  239.8150 C.3    88  MET88       0.1570
     35  C        213.6120  312.3020  240.8380 C.2    88  MET88       0.2261
     36  O        213.5340  312.6600  242.0130 O.2    88  MET88      -0.2867
     37  CB       211.4440  311.7180  239.7440 C.3    88  MET88       0.0387
     38  CG       210.2640  312.1450  238.8920 C.3    88  MET88       0.0595
     39  SD       209.5120  313.6770  239.4640 S.3    88  MET88      -0.1393
     40  CE       208.9080  313.1740  241.0700 C.3    88  MET88       0.0692
     41  N        215.3590  315.3480  241.9210 N.3    91  ILE91      -0.1231
     42  CA       214.4760  316.1990  242.7110 C.3    91  ILE91       0.1692
     43  C        214.3910  315.6930  244.1470 C.2    91  ILE91       0.2592
     44  O        214.5780  316.4590  245.1040 O.2    91  ILE91      -0.2718
     45  CB       213.0690  316.2810  242.1070 C.3    91  ILE91       0.0266
     46  CG1      213.1060  317.0680  240.7990 C.3    91  ILE91       0.0019
     47  CG2      212.1120  316.9330  243.0840 C.3    91  ILE91       0.0020
     48  CD1      211.8180  317.0190  240.0220 C.3    91  ILE91       0.0001
     49  N        214.1520  314.3930  244.2970 N.am   92  CYS92      -0.1970
     50  CA       214.1010  313.7980  245.6230 C.3    92  CYS92       0.1712
     51  C        215.4610  313.9390  246.2840 C.2    92  CYS92       0.2296
     52  O        215.5590  314.0900  247.5000 O.2    92  CYS92      -0.2864
     53  CB       213.6920  312.3270  245.5560 C.3    92  CYS92       0.0983
     54  SG       212.0200  312.0240  244.9480 S.3    92  CYS92      -0.0798
     55  N        215.8550  317.6330  247.5250 N.3    95  LEU95      -0.1245
     56  CA       214.9940  317.8070  248.6880 C.3    95  LEU95       0.1561
     57  C        215.5570  317.0800  249.9000 C.2    95  LEU95       0.2260
     58  O        215.4120  317.5280  251.0380 O.2    95  LEU95      -0.2867
     59  CB       213.5840  317.3180  248.3780 C.3    95  LEU95       0.0270
     60  CG       212.8830  318.1680  247.3260 C.3    95  LEU95       0.0019
     61  CD1      211.5640  317.5480  246.9360 C.3    95  LEU95       0.0001
     62  CD2      212.6770  319.5650  247.8720 C.3    95  LEU95       0.0001
     63  N        203.3160  304.8610  255.5480 N.3   226  LYS226     -0.1245
     64  CA       203.5870  306.2680  255.2870 C.3   226  LYS226      0.1561
     65  C        204.4590  306.3820  254.0380 C.2   226  LYS226      0.2260
     66  O        204.2220  307.2220  253.1610 O.2   226  LYS226     -0.2867
     67  CB       204.2590  306.9110  256.5000 C.3   226  LYS226      0.0271
     68  CG       204.4260  308.4160  256.4280 C.3   226  LYS226      0.0035
     69  CD       205.0560  308.9350  257.7100 C.3   226  LYS226      0.0206
     70  CE       205.3890  310.4130  257.6240 C.3   226  LYS226      0.1093
     71  NZ       204.1700  311.2480  257.4660 N.3   226  LYS226     -0.1314
     72  N        202.4240  305.4550  250.9540 N.3   229  LEU229     -0.1231
     73  CA       201.7200  306.6200  250.4430 C.3   229  LEU229      0.1693
     74  C        202.6710  307.5740  249.7340 C.2   229  LEU229      0.2592
     75  O        202.3240  308.1440  248.6990 O.2   229  LEU229     -0.2718
     76  CB       201.0030  307.3480  251.5800 C.3   229  LEU229      0.0284
     77  CG       200.3000  308.6520  251.2130 C.3   229  LEU229      0.0019
     78  CD1      199.2190  308.4050  250.1780 C.3   229  LEU229      0.0001
     79  CD2      199.7120  309.2920  252.4520 C.3   229  LEU229      0.0001
     80  N        203.8770  307.7280  250.2720 N.am  230  GLY230     -0.1957
     81  CA       204.8390  308.6160  249.6470 C.3   230  GLY230      0.1869
     82  C        205.3420  308.0670  248.3280 C.2   230  GLY230      0.2309
     83  O        205.5640  308.8140  247.3730 O.2   230  GLY230     -0.2863
     84  N        202.4910  308.5810  245.8200 N.3   233  LEU233     -0.1231
     85  CA       202.4780  309.9480  245.3180 C.3   233  LEU233      0.1693
     86  C        203.6480  310.1810  244.3760 C.2   233  LEU233      0.2592
     87  O        203.5440  310.9480  243.4170 O.2   233  LEU233     -0.2718
     88  CB       202.5190  310.9480  246.4700 C.3   233  LEU233      0.0284
     89  CG       201.3140  310.9230  247.4100 C.3   233  LEU233      0.0019
     90  CD1      201.5140  311.8870  248.5640 C.3   233  LEU233      0.0001
     91  CD2      200.0300  311.2370  246.6640 C.3   233  LEU233      0.0001
     92  N        204.7600  309.5030  244.6440 N.am  234  PHE234     -0.1976
     93  CA       205.9220  309.5950  243.7740 C.3   234  PHE234      0.1639
     94  C        205.6360  309.0100  242.4000 C.2   234  PHE234      0.2290
     95  O        205.9480  309.6210  241.3750 O.2   234  PHE234     -0.2864
     96  CB       207.1200  308.8800  244.3930 C.3   234  PHE234      0.0560
     97  CG       208.2970  308.7880  243.4730 C.ar  234  PHE234     -0.0200
     98  CD1      209.1340  309.8720  243.2950 C.ar  234  PHE234     -0.0042
     99  CD2      208.5560  307.6220  242.7740 C.ar  234  PHE234     -0.0042
    100  CE1      210.2090  309.7910  242.4440 C.ar  234  PHE234     -0.0003
    101  CE2      209.6310  307.5370  241.9220 C.ar  234  PHE234     -0.0003
    102  CZ       210.4530  308.6240  241.7500 C.ar  234  PHE234     -0.0000
    103  N        203.2610  311.4540  240.5470 N.3   237  SER237     -0.1217
    104  CA       203.8970  312.6060  239.9240 C.3   237  SER237      0.1889
    105  C        204.7700  312.1910  238.7460 C.2   237  SER237      0.2288
    106  O        204.8370  312.8940  237.7320 O.2   237  SER237     -0.2866
    107  CB       204.7300  313.3690  240.9510 C.3   237  SER237      0.2089
    108  OG       205.7790  312.5620  241.4470 O.3   237  SER237     -0.2183
@<TRIPOS>BOND
     1   106   105    2
     2    33    34    1
     3   105   104    1
     4    38    39    1
     5    38    37    1
     6    39    40    1
     7    37    34    1
     8    34    35    1
     9   104   103    1
    10   104   107    1
    11    48    46    1
    12    46    45    1
    13    35    36    2
    14   107   108    1
    15    95    94    2
    16   102   101   ar
    17   102   100   ar
    18    41    42    1
    19   101    99   ar
    20    45    42    1
    21    45    47    1
    22    94    93    1
    23   100    98   ar
    24    42    43    1
    25    99    97   ar
    26    98    97   ar
    27    87    86    2
    28    97    96    1
    29    93    96    1
    30    93    92    1
    31    43    49   am
    32    43    44    2
    33    49    50    1
    34    86    92   am
    35    86    85    1
    36    54    53    1
    37    85    84    1
    38    85    88    1
    39    53    50    1
    40    50    51    1
    41    28    27    2
    42    51    52    2
    43    88    89    1
    44    91    89    1
    45    61    60    1
    46    27    26    1
    47    60    62    1
    48    60    59    1
    49    83    82    2
    50    89    90    1
    51    55    56    1
    52    29    26    1
    53    29    30    1
    54    32    30    1
    55    26    25    1
    56    22    20   ar
    57    22    24   ar
    58    31    30    1
    59    82    81    1
    60    59    56    1
    61    20    19   ar
    62    56    57    1
    63    75    74    2
    64    24    23   ar
    65    17    16    2
    66    81    80    1
    67    74    80   am
    68    74    73    1
    69    19    18    1
    70    19    21   ar
    71    57    58    2
    72    78    77    1
    73    18    15    1
    74    23    21   ar
    75    73    72    1
    76    73    76    1
    77    16    15    1
    78    15    14    1
    79    77    76    1
    80    77    79    1
    81     9     8    2
    82    14     8   am
    83    12    11    2
    84     8     7    1
    85    11    13   am
    86    11    10    1
    87    66    65    2
    88    10     7    1
    89     7     6    1
    90     4     3    2
    91    65    64    1
    92     3     2    1
    93     5     2    1
    94    64    63    1
    95    64    67    1
    96     2     1    1
    97    68    67    1
    98    68    69    1
    99    71    70    1
   100    70    69    1
