@<TRIPOS>MOLECULE
tmp/5xteI02.pdb
 85 78 0 0 0
SMALL
GASTEIGER

@<TRIPOS>ATOM
      1  N        238.2910  288.8540  239.6210 N.3    42  LEU42      -0.1245
      2  CA       239.0460  288.8750  238.3800 C.3    42  LEU42       0.1561
      3  C        238.1150  288.8020  237.1780 C.2    42  LEU42       0.2260
      4  O        238.3750  289.4310  236.1590 O.2    42  LEU42      -0.2867
      5  CB       240.0540  287.7240  238.3400 C.3    42  LEU42       0.0270
      6  CG       241.0720  287.7120  237.1960 C.3    42  LEU42       0.0019
      7  CD1      242.3800  287.1160  237.6760 C.3    42  LEU42       0.0001
      8  CD2      240.5590  286.9350  235.9930 C.3    42  LEU42       0.0001
      9  N        236.4610  292.6800  236.7530 N.3    45  THR45      -0.1203
     10  CA       237.2820  293.7920  236.2900 C.3    45  THR45       0.1994
     11  C        237.8470  293.5400  234.9050 C.2    45  THR45       0.2618
     12  O        237.7000  294.3720  234.0130 O.2    45  THR45      -0.2717
     13  CB       238.4480  294.0660  237.2460 C.3    45  THR45       0.1784
     14  OG1      239.2950  292.9150  237.3090 O.3    45  THR45      -0.2211
     15  CG2      237.9280  294.3730  238.6370 C.3    45  THR45       0.0376
     16  N        238.4440  292.3700  234.7140 N.am   46  THR46      -0.1952
     17  CA       238.9830  292.0090  233.4120 C.3    46  THR46       0.1897
     18  C        237.8940  292.1230  232.3700 C.2    46  THR46       0.2313
     19  O        238.0360  292.8460  231.3790 O.2    46  THR46      -0.2863
     20  CB       239.5390  290.5770  233.4100 C.3    46  THR46       0.1794
     21  OG1      240.6550  290.4920  234.3020 O.3    46  THR46      -0.2208
     22  CG2      239.9760  290.1760  232.0250 C.3    46  THR46       0.0378
     23  N        236.7710  295.5520  231.2020 N.3    49  PHE49      -0.1241
     24  CA       237.5110  296.2350  230.1500 C.3    49  PHE49       0.1605
     25  C        237.0870  295.7520  228.7750 C.2    49  PHE49       0.2264
     26  O        237.0710  296.5280  227.8210 O.2    49  PHE49      -0.2867
     27  CB       239.0150  296.0640  230.3370 C.3    49  PHE49       0.0534
     28  CG       239.5550  296.7860  231.5310 C.ar   49  PHE49      -0.0203
     29  CD1      239.8510  298.1350  231.4610 C.ar   49  PHE49      -0.0042
     30  CD2      239.7650  296.1240  232.7220 C.ar   49  PHE49      -0.0042
     31  CE1      240.3450  298.8060  232.5570 C.ar   49  PHE49      -0.0003
     32  CE2      240.2570  296.7910  233.8200 C.ar   49  PHE49      -0.0003
     33  CZ       240.5470  298.1320  233.7380 C.ar   49  PHE49      -0.0000
     34  N        247.1330  295.5770  224.5600 N.3    74  TYR74      -0.1241
     35  CA       247.1020  294.4900  225.5380 C.3    74  TYR74       0.1605
     36  C        245.7390  293.8170  225.6490 C.2    74  TYR74       0.2264
     37  O        245.4040  293.2650  226.6910 O.2    74  TYR74      -0.2867
     38  CB       247.5100  295.0100  226.9150 C.3    74  TYR74       0.0534
     39  CG       248.9280  295.5180  226.9900 C.ar   74  TYR74      -0.0201
     40  CD1      249.9670  294.8300  226.3840 C.ar   74  TYR74      -0.0009
     41  CD2      249.2240  296.6910  227.6620 C.ar   74  TYR74      -0.0009
     42  CE1      251.2630  295.2950  226.4540 C.ar   74  TYR74       0.0417
     43  CE2      250.5140  297.1630  227.7380 C.ar   74  TYR74       0.0417
     44  CZ       251.5290  296.4620  227.1330 C.ar   74  TYR74       0.1957
     45  OH       252.8200  296.9330  227.2070 O.3    74  TYR74      -0.2866
     46  N        245.5060  289.7880  226.0350 N.3    77  ILE77      -0.1245
     47  CA       245.8130  289.3030  227.3720 C.3    77  ILE77       0.1561
     48  C        244.5720  289.3560  228.2360 C.2    77  ILE77       0.2260
     49  O        244.3090  288.4560  229.0230 O.2    77  ILE77      -0.2867
     50  CB       246.9210  290.1320  228.0220 C.3    77  ILE77       0.0252
     51  CG1      248.1980  289.9800  227.2130 C.3    77  ILE77       0.0019
     52  CG2      247.1680  289.6730  229.4430 C.3    77  ILE77       0.0019
     53  CD1      249.2910  290.9270  227.5840 C.3    77  ILE77       0.0001
     54  N        242.8680  286.0660  229.7080 N.3    81  LEU81      -0.1245
     55  CA       242.7590  285.9670  231.1600 C.3    81  LEU81       0.1561
     56  C        241.3060  285.8440  231.5550 C.2    81  LEU81       0.2260
     57  O        240.9720  285.2480  232.5740 O.2    81  LEU81      -0.2867
     58  CB       243.3850  287.1700  231.8640 C.3    81  LEU81       0.0270
     59  CG       244.9020  287.3010  231.8430 C.3    81  LEU81       0.0019
     60  CD1      245.3210  288.5930  232.5230 C.3    81  LEU81       0.0001
     61  CD2      245.5350  286.1040  232.5200 C.3    81  LEU81       0.0001
     62  N        247.2520  282.2940  240.3880 N.3   235  LEU235     -0.1245
     63  CA       247.7850  283.1600  239.3510 C.3   235  LEU235      0.1561
     64  C        248.8740  282.4440  238.5700 C.2   235  LEU235      0.2260
     65  O        249.0900  282.7320  237.4000 O.2   235  LEU235     -0.2867
     66  CB       248.3190  284.4600  239.9500 C.3   235  LEU235      0.0270
     67  CG       247.2500  285.3630  240.5670 C.3   235  LEU235      0.0019
     68  CD1      247.8830  286.5530  241.2670 C.3   235  LEU235      0.0001
     69  CD2      246.2660  285.8220  239.5060 C.3   235  LEU235      0.0001
     70  N        248.1050  282.3390  234.7030 N.3   239  MET239     -0.1245
     71  CA       249.0580  283.0390  233.8510 C.3   239  MET239      0.1570
     72  C        249.8600  282.0940  232.9640 C.2   239  MET239      0.2261
     73  O        250.2000  282.4480  231.8360 O.2   239  MET239     -0.2867
     74  CB       250.0070  283.8860  234.6950 C.3   239  MET239      0.0387
     75  CG       249.3620  285.1070  235.3100 C.3   239  MET239      0.0595
     76  SD       248.7880  286.2370  234.0350 S.3   239  MET239     -0.1393
     77  CE       250.3490  286.7250  233.3150 C.3   239  MET239      0.0692
     78  N        249.4230  282.5260  229.0190 N.3   243  LEU243     -0.1245
     79  CA       250.6140  283.0120  228.3240 C.3   243  LEU243      0.1561
     80  C        251.4280  281.9460  227.5980 C.2   243  LEU243      0.2260
     81  O        252.3460  282.2830  226.8550 O.2   243  LEU243     -0.2867
     82  CB       251.5220  283.7650  229.2970 C.3   243  LEU243      0.0270
     83  CG       251.2900  285.2760  229.3790 C.3   243  LEU243      0.0019
     84  CD1      249.9080  285.6080  229.9010 C.3   243  LEU243      0.0001
     85  CD2      252.3550  285.9400  230.2310 C.3   243  LEU243      0.0001
@<TRIPOS>BOND
     1    34    35    1
     2    35    36    1
     3    35    38    1
     4    36    37    2
     5    46    47    1
     6    40    42   ar
     7    40    39   ar
     8    42    44   ar
     9    81    80    2
    10    38    39    1
    11    39    41   ar
    12    44    45    1
    13    44    43   ar
    14    51    53    1
    15    51    50    1
    16    47    50    1
    17    47    48    1
    18    80    79    1
    19    41    43   ar
    20    26    25    2
    21    50    52    1
    22    48    49    2
    23    79    78    1
    24    79    82    1
    25    25    24    1
    26    82    83    1
    27    83    84    1
    28    83    85    1
    29    54    55    1
    30    24    27    1
    31    24    23    1
    32    27    28    1
    33    55    56    1
    34    55    58    1
    35    19    18    2
    36    29    28   ar
    37    29    31   ar
    38    28    30   ar
    39    56    57    2
    40    73    72    2
    41    59    58    1
    42    59    61    1
    43    59    60    1
    44    22    20    1
    45    18    17    1
    46    31    33   ar
    47    30    32   ar
    48    72    71    1
    49    77    76    1
    50    20    17    1
    51    20    21    1
    52    17    16    1
    53    33    32   ar
    54    71    74    1
    55    71    70    1
    56    12    11    2
    57    76    75    1
    58    74    75    1
    59    16    11   am
    60    11    10    1
    61     8     6    1
    62     4     3    2
    63    10     9    1
    64    10    13    1
    65     3     2    1
    66     6     7    1
    67     6     5    1
    68    13    14    1
    69    13    15    1
    70    65    64    2
    71     5     2    1
    72     2     1    1
    73    64    63    1
    74    63    66    1
    75    63    62    1
    76    69    67    1
    77    66    67    1
    78    67    68    1
