@<TRIPOS>MOLECULE
tmp/5xteT08.pdb
 234 224 0 0 0
SMALL
GASTEIGER

@<TRIPOS>ATOM
      1  N        211.5060  313.3230  255.6110 N.3    30  TRP30      -0.1241
      2  CA       212.3640  312.1470  255.7630 C.3    30  TRP30       0.1605
      3  C        211.9810  311.0520  254.7790 C.2    30  TRP30       0.2264
      4  O        212.8260  310.2640  254.3440 O.2    30  TRP30      -0.2867
      5  CB       212.3080  311.6210  257.2030 C.3    30  TRP30       0.0550
      6  CG       213.2480  312.3270  258.1410 C.ar   30  TRP30       0.0003
      7  CD1      214.4790  311.8970  258.5420 C.ar   30  TRP30       0.0946
      8  CD2      213.0690  313.6210  258.7220 C.ar   30  TRP30       0.0152
      9  NE1      215.0560  312.8220  259.3750 N.ar   30  TRP30      -0.2442
     10  CE2      214.2130  313.8940  259.4950 C.ar   30  TRP30       0.0810
     11  CE3      212.0460  314.5680  258.6770 C.ar   30  TRP30       0.0012
     12  CZ2      214.3600  315.0730  260.2130 C.ar   30  TRP30       0.0191
     13  CZ3      212.1920  315.7340  259.3920 C.ar   30  TRP30       0.0001
     14  CH2      213.3420  315.9790  260.1490 C.ar   30  TRP30       0.0015
     15  N        213.9970  310.3460  251.6150 N.3    33  GLY33      -0.1210
     16  CA       215.1820  309.5160  251.6420 C.3    33  GLY33       0.1956
     17  C        214.8400  308.1240  251.1630 C.2    33  GLY33       0.2612
     18  O        215.4930  307.5890  250.2620 O.2    33  GLY33      -0.2717
     19  N        213.7700  307.5650  251.7150 N.am   34  SER34      -0.1952
     20  CA       213.3490  306.2340  251.3190 C.3    34  SER34       0.1924
     21  C        212.9650  306.2460  249.8550 C.2    34  SER34       0.2314
     22  O        213.1720  305.2600  249.1490 O.2    34  SER34      -0.2863
     23  CB       212.1780  305.7530  252.1680 C.3    34  SER34       0.2116
     24  OG       211.0460  306.5770  251.9640 O.3    34  SER34      -0.2180
     25  N        214.3550  307.8480  247.5380 N.3    36  LEU36      -0.1231
     26  CA       215.5580  307.7260  246.7320 C.3    36  LEU36       0.1693
     27  C        215.9060  306.2640  246.6090 C.2    36  LEU36       0.2592
     28  O        216.2730  305.7880  245.5330 O.2    36  LEU36      -0.2718
     29  CB       216.7230  308.5000  247.3480 C.3    36  LEU36       0.0284
     30  CG       216.6440  310.0210  247.3300 C.3    36  LEU36       0.0019
     31  CD1      217.7820  310.6250  248.1280 C.3    36  LEU36       0.0001
     32  CD2      216.6980  310.5000  245.8970 C.3    36  LEU36       0.0001
     33  N        215.6940  305.5390  247.6990 N.am   37  GLY37      -0.1957
     34  CA       216.0220  304.1340  247.7300 C.3    37  GLY37       0.1869
     35  C        215.1600  303.4380  246.7100 C.2    37  GLY37       0.2309
     36  O        215.6220  302.5370  246.0250 O.2    37  GLY37      -0.2863
     37  N        216.1740  304.2640  242.7330 N.3    40  LEU40      -0.1245
     38  CA       217.3230  303.5630  242.2110 C.3    40  LEU40       0.1561
     39  C        216.8600  302.2650  241.5810 C.2    40  LEU40       0.2260
     40  O        217.2470  301.9520  240.4530 O.2    40  LEU40      -0.2867
     41  CB       218.3370  303.3030  243.3220 C.3    40  LEU40       0.0270
     42  CG       219.6050  302.5720  242.9080 C.3    40  LEU40       0.0019
     43  CD1      220.3520  303.3990  241.8850 C.3    40  LEU40       0.0001
     44  CD2      220.4700  302.3190  244.1240 C.3    40  LEU40       0.0001
     45  N        214.5980  311.5440  240.3700 N.3    89  PHE89      -0.1241
     46  CA       215.6620  311.0530  241.2310 C.3    89  PHE89       0.1605
     47  C        216.4460  312.2240  241.8100 C.2    89  PHE89       0.2264
     48  O        216.6640  312.2970  243.0210 O.2    89  PHE89      -0.2867
     49  CB       216.5840  310.1180  240.4470 C.3    89  PHE89       0.0534
     50  CG       217.7170  309.5550  241.2500 C.ar   89  PHE89      -0.0203
     51  CD1      217.5340  308.4320  242.0330 C.ar   89  PHE89      -0.0042
     52  CD2      218.9650  310.1440  241.2180 C.ar   89  PHE89      -0.0042
     53  CE1      218.5750  307.9080  242.7690 C.ar   89  PHE89      -0.0003
     54  CE2      220.0080  309.6270  241.9540 C.ar   89  PHE89      -0.0003
     55  CZ       219.8110  308.5060  242.7300 C.ar   89  PHE89      -0.0000
     56  N        216.5090  313.9240  245.4680 N.3    93  LEU93      -0.1245
     57  CA       217.8640  314.0530  245.9800 C.3    93  LEU93       0.1561
     58  C        218.1170  315.4370  246.5690 C.2    93  LEU93       0.2260
     59  O        218.6070  315.5610  247.6940 O.2    93  LEU93      -0.2867
     60  CB       218.8680  313.7650  244.8670 C.3    93  LEU93       0.0270
     61  CG       220.3450  313.8550  245.2240 C.3    93  LEU93       0.0019
     62  CD1      220.6700  312.8370  246.2880 C.3    93  LEU93       0.0001
     63  CD2      221.1770  313.6080  243.9870 C.3    93  LEU93       0.0001
     64  N        216.2180  315.9610  249.6390 N.3    96  HIS96      -0.1226
     65  CA       216.7890  315.1420  250.6930 C.3    96  HIS96       0.1752
     66  C        217.9570  315.8700  251.3440 C.2    96  HIS96       0.2595
     67  O        218.0470  315.9750  252.5720 O.2    96  HIS96      -0.2718
     68  CB       217.2370  313.8020  250.1130 C.3    96  HIS96       0.0759
     69  CG       217.6870  312.8140  251.1390 C.ar   96  HIS96       0.0818
     70  ND1      216.8730  312.3860  252.1630 N.ar   96  HIS96      -0.2268
     71  CD2      218.8500  312.1380  251.2750 C.ar   96  HIS96       0.1154
     72  CE1      217.5260  311.5090  252.9040 C.ar   96  HIS96       0.1986
     73  NE2      218.7260  311.3390  252.3840 N.ar   96  HIS96      -0.2212
     74  N        218.8430  316.3950  250.5060 N.am   97  ILE97      -0.1980
     75  CA       219.9920  317.1430  250.9920 C.3    97  ILE97       0.1595
     76  C        219.5650  318.4270  251.6960 C.2    97  ILE97       0.2287
     77  O        220.1750  318.8350  252.6850 O.2    97  ILE97      -0.2864
     78  CB       220.9470  317.4710  249.8400 C.3    97  ILE97       0.0276
     79  CG1      221.4780  316.1770  249.2290 C.3    97  ILE97       0.0022
     80  CG2      222.1070  318.3070  250.3270 C.3    97  ILE97       0.0022
     81  CD1      222.2070  316.3710  247.9320 C.3    97  ILE97       0.0001
     82  N        216.7890  318.7800  253.2890 N.3    99  ARG99      -0.1231
     83  CA       216.2810  318.3090  254.5640 C.3    99  ARG99       0.1694
     84  C        217.4100  318.0770  255.5480 C.2    99  ARG99       0.2592
     85  O        217.2870  318.3750  256.7330 O.2    99  ARG99      -0.2718
     86  CB       215.5260  317.0000  254.3960 C.3    99  ARG99       0.0321
     87  CG       215.0470  316.4510  255.7110 C.3    99  ARG99       0.0489
     88  CD       214.5980  315.0260  255.5700 C.3    99  ARG99       0.2205
     89  NE       215.7280  314.1880  255.1880 N.pl3  99  ARG99      -0.0865
     90  CZ       216.6650  313.7710  256.0320 C.cat  99  ARG99       0.5346
     91  NH1      216.6170  314.1280  257.3050 N.pl3  99  ARG99       0.1354
     92  NH2      217.6600  313.0130  255.6030 N.pl3  99  ARG99       0.1354
     93  N        218.5190  317.5480  255.0450 N.am  100  GLY100     -0.1957
     94  CA       219.6350  317.2250  255.9110 C.3   100  GLY100      0.1869
     95  C        220.3820  318.4680  256.3370 C.2   100  GLY100      0.2309
     96  O        221.0290  318.4940  257.3810 O.2   100  GLY100     -0.2863
     97  N        220.9540  317.5610  260.4080 N.3   105  SER105     -0.1217
     98  CA       221.2340  316.1420  260.2590 C.3   105  SER105      0.1889
     99  C        222.6850  315.9000  259.8530 C.2   105  SER105      0.2288
    100  O        223.1460  314.7640  259.8240 O.2   105  SER105     -0.2866
    101  CB       220.2870  315.5250  259.2290 C.3   105  SER105      0.2089
    102  OG       220.5620  314.1510  259.0410 O.3   105  SER105     -0.2183
    103  N        225.7230  313.9420  261.9160 N.3   108  TYR108     -0.1241
    104  CA       226.1460  312.5650  261.6890 C.3   108  TYR108      0.1605
    105  C        227.1670  312.5730  260.5680 C.2   108  TYR108      0.2264
    106  O        226.8590  312.2060  259.4360 O.2   108  TYR108     -0.2867
    107  CB       224.9690  311.6680  261.3180 C.3   108  TYR108      0.0534
    108  CG       223.8740  311.6090  262.3530 C.ar  108  TYR108     -0.0201
    109  CD1      224.1600  311.7330  263.7030 C.ar  108  TYR108     -0.0009
    110  CD2      222.5590  311.3840  261.9800 C.ar  108  TYR108     -0.0009
    111  CE1      223.1600  311.6710  264.6500 C.ar  108  TYR108      0.0417
    112  CE2      221.5550  311.3120  262.9180 C.ar  108  TYR108      0.0417
    113  CZ       221.8590  311.4550  264.2510 C.ar  108  TYR108      0.1957
    114  OH       220.8560  311.3850  265.1890 O.3   108  TYR108     -0.2866
    115  N        227.9100  309.6230  258.0000 N.3   111  THR111     -0.1203
    116  CA       226.7720  309.3920  257.1220 C.3   111  THR111      0.1994
    117  C        226.6880  310.5150  256.0980 C.2   111  THR111      0.2617
    118  O        226.3650  310.2930  254.9300 O.2   111  THR111     -0.2717
    119  CB       225.4580  309.3220  257.9160 C.3   111  THR111      0.1784
    120  OG1      225.5700  308.3290  258.9400 O.3   111  THR111     -0.2211
    121  CG2      224.3110  308.9460  257.0140 C.3   111  THR111      0.0376
    122  N        227.0370  311.7170  256.5410 N.am  112  TRP112     -0.1975
    123  CA       227.0100  312.8960  255.6910 C.3   112  TRP112      0.1640
    124  C        228.0040  312.7310  254.5550 C.2   112  TRP112      0.2290
    125  O        227.6720  312.9350  253.3840 O.2   112  TRP112     -0.2864
    126  CB       227.3370  314.1410  256.5170 C.3   112  TRP112      0.0576
    127  CG       227.3310  315.4290  255.7530 C.ar  112  TRP112      0.0006
    128  CD1      228.4170  316.1140  255.2950 C.ar  112  TRP112      0.0946
    129  CD2      226.1860  316.2090  255.3980 C.ar  112  TRP112      0.0152
    130  NE1      228.0160  317.2620  254.6550 N.ar  112  TRP112     -0.2442
    131  CE2      226.6500  317.3410  254.7070 C.ar  112  TRP112      0.0810
    132  CE3      224.8110  316.0500  255.5840 C.ar  112  TRP112      0.0012
    133  CZ2      225.7890  318.3120  254.2070 C.ar  112  TRP112      0.0191
    134  CZ3      223.9610  317.0140  255.0880 C.ar  112  TRP112      0.0001
    135  CH2      224.4510  318.1280  254.4080 C.ar  112  TRP112      0.0015
    136  N        227.1030  310.2500  252.0810 N.3   115  GLY115     -0.1210
    137  CA       226.0730  310.8460  251.2550 C.3   115  GLY115      0.1956
    138  C        226.6770  311.7180  250.1740 C.2   115  GLY115      0.2611
    139  O        226.1840  311.7530  249.0490 O.2   115  GLY115     -0.2717
    140  N        227.7570  312.4120  250.5070 N.am  116  ILE116     -0.1979
    141  CA       228.4230  313.2620  249.5290 C.3   116  ILE116      0.1595
    142  C        229.0670  312.4340  248.4220 C.2   116  ILE116      0.2287
    143  O        228.9260  312.7400  247.2310 O.2   116  ILE116     -0.2864
    144  CB       229.4910  314.1430  250.1950 C.3   116  ILE116      0.0276
    145  CG1      228.8350  315.1260  251.1600 C.3   116  ILE116      0.0022
    146  CG2      230.2810  314.9040  249.1510 C.3   116  ILE116      0.0022
    147  CD1      229.8170  315.8760  252.0170 C.3   116  ILE116      0.0001
    148  N        228.2730  309.4730  247.5060 N.3   118  LEU118     -0.1231
    149  CA       227.2000  308.8440  246.7560 C.3   118  LEU118      0.1693
    150  C        226.5680  309.8660  245.8100 C.2   118  LEU118      0.2591
    151  O        226.1150  309.5290  244.7110 O.2   118  LEU118     -0.2718
    152  CB       226.1720  308.2580  247.7190 C.3   118  LEU118      0.0284
    153  CG       225.1550  307.2780  247.1490 C.3   118  LEU118      0.0019
    154  CD1      224.7550  306.2850  248.2220 C.3   118  LEU118      0.0001
    155  CD2      223.9520  308.0120  246.6230 C.3   118  LEU118      0.0001
    156  N        226.5740  311.1240  246.2380 N.am  119  LEU119     -0.1980
    157  CA       226.1070  312.2200  245.4040 C.3   119  LEU119      0.1596
    158  C        226.9600  312.3700  244.1590 C.2   119  LEU119      0.2287
    159  O        226.4360  312.4730  243.0460 O.2   119  LEU119     -0.2864
    160  CB       226.1150  313.5280  246.1910 C.3   119  LEU119      0.0297
    161  CG       225.8400  314.8030  245.3990 C.3   119  LEU119      0.0022
    162  CD1      224.4470  314.7820  244.8100 C.3   119  LEU119      0.0001
    163  CD2      226.0420  316.0280  246.2750 C.3   119  LEU119      0.0001
    164  N        226.5680  302.6230  243.7070 N.3   188  ILE188     -0.1245
    165  CA       225.7620  303.5930  244.4350 C.3   188  ILE188      0.1561
    166  C        224.8820  302.8610  245.4370 C.2   188  ILE188      0.2260
    167  O        224.6080  303.3610  246.5280 O.2   188  ILE188     -0.2867
    168  CB       224.8910  304.4360  243.4770 C.3   188  ILE188      0.0252
    169  CG1      225.7660  305.3120  242.5810 C.3   188  ILE188      0.0019
    170  CG2      223.8990  305.2910  244.2390 C.3   188  ILE188      0.0019
    171  CD1      225.0000  306.0000  241.4790 C.3   188  ILE188      0.0001
    172  N        224.9500  303.0080  249.4000 N.3   192  ALA192     -0.1245
    173  CA       223.7140  303.2360  250.1350 C.3   192  ALA192      0.1562
    174  C        223.6020  302.2720  251.3160 C.2   192  ALA192      0.2260
    175  O        223.0910  302.6380  252.3770 O.2   192  ALA192     -0.2867
    176  CB       222.5180  303.0990  249.2180 C.3   192  ALA192      0.0290
    177  N        225.6130  303.5630  253.8720 N.3   195  HIS195     -0.1226
    178  CA       224.9970  304.8000  254.3040 C.3   195  HIS195      0.1752
    179  C        224.0230  304.4970  255.4360 C.2   195  HIS195      0.2595
    180  O        224.0810  305.0880  256.5250 O.2   195  HIS195     -0.2718
    181  CB       224.2870  305.4380  253.1120 C.3   195  HIS195      0.0759
    182  CG       223.8730  306.8560  253.3260 C.ar  195  HIS195      0.0818
    183  ND1      224.7820  307.8770  253.4820 N.ar  195  HIS195     -0.2268
    184  CD2      222.6480  307.4270  253.3820 C.ar  195  HIS195      0.1154
    185  CE1      224.1340  309.0180  253.6310 C.ar  195  HIS195      0.1986
    186  NE2      222.8390  308.7720  253.5820 N.ar  195  HIS195     -0.2212
    187  N        223.1510  303.5300  255.1770 N.am  196  LEU196     -0.1980
    188  CA       222.2080  303.0650  256.1790 C.3   196  LEU196      0.1596
    189  C        222.9310  302.3640  257.3220 C.2   196  LEU196      0.2287
    190  O        222.4340  302.3270  258.4460 O.2   196  LEU196     -0.2864
    191  CB       221.1700  302.1300  255.5600 C.3   196  LEU196      0.0297
    192  CG       219.9380  302.7710  254.9150 C.3   196  LEU196      0.0022
    193  CD1      220.2990  303.5670  253.6760 C.3   196  LEU196      0.0001
    194  CD2      218.8940  301.7160  254.5910 C.3   196  LEU196      0.0001
    195  N        224.1560  304.9840  259.5140 N.3   199  LEU199     -0.1231
    196  CA       222.9930  305.7010  260.0210 C.3   199  LEU199      0.1693
    197  C        222.3390  305.0740  261.2550 C.2   199  LEU199      0.2592
    198  O        221.9860  305.7790  262.1960 O.2   199  LEU199     -0.2718
    199  CB       221.9520  305.8350  258.9160 C.3   199  LEU199      0.0284
    200  CG       220.6330  306.4720  259.3360 C.3   199  LEU199      0.0019
    201  CD1      220.8610  307.8900  259.8080 C.3   199  LEU199      0.0001
    202  CD2      219.6610  306.4370  258.1850 C.3   199  LEU199      0.0001
    203  N        222.2020  303.7500  261.2660 N.am  200  HIS200     -0.1976
    204  CA       221.3230  303.0880  262.2370 C.3   200  HIS200      0.1656
    205  C        221.8680  302.8650  263.6480 C.2   200  HIS200      0.2291
    206  O        221.1060  302.5000  264.5400 O.2   200  HIS200     -0.2864
    207  CB       220.8610  301.7390  261.6780 C.3   200  HIS200      0.0771
    208  CG       219.8860  301.8540  260.5470 C.ar  200  HIS200      0.0820
    209  ND1      219.5950  300.8020  259.7080 N.ar  200  HIS200     -0.2267
    210  CD2      219.1160  302.8880  260.1350 C.ar  200  HIS200      0.1154
    211  CE1      218.6990  301.1860  258.8160 C.ar  200  HIS200      0.1986
    212  NE2      218.3900  302.4480  259.0540 N.ar  200  HIS200     -0.2212
    213  N        217.5750  307.7410  263.4940 N.3   204  SER204     -0.1202
    214  CA       217.1500  308.8730  262.6820 C.3   204  SER204      0.2020
    215  C        216.8920  310.1050  263.5370 C.2   204  SER204      0.2618
    216  O        216.4170  310.0030  264.6660 O.2   204  SER204     -0.2717
    217  CB       215.8950  308.5170  261.8850 C.3   204  SER204      0.2103
    218  OG       215.4550  309.6140  261.1050 O.3   204  SER204     -0.2182
    219  N        217.2140  311.2700  262.9880 N.am  205  ASN205     -0.1974
    220  CA       216.9620  312.5430  263.6480 C.3   205  ASN205      0.1688
    221  C        215.4830  312.9210  263.5930 C.2   205  ASN205      0.2292
    222  O        214.7460  312.4410  262.7380 O.2   205  ASN205     -0.2864
    223  CB       217.8130  313.6400  263.0170 C.3   205  ASN205      0.1181
    224  CG       217.8160  314.9150  263.8290 C.2   205  ASN205      0.2629
    225  OD1      216.9470  315.1390  264.6690 O.2   205  ASN205     -0.2716
    226  ND2      218.8030  315.7610  263.5850 N.am  205  ASN205     -0.0877
    227  N        229.8360  321.0410  250.8420 N.3   300  LEU300     -0.1245
    228  CA       228.9100  320.4250  251.7840 C.3   300  LEU300      0.1561
    229  C        229.6380  319.7720  252.9500 C.2   300  LEU300      0.2260
    230  O        229.1180  319.7130  254.0630 O.2   300  LEU300     -0.2867
    231  CB       228.0480  319.3810  251.0760 C.3   300  LEU300      0.0270
    232  CG       227.1110  319.8770  249.9790 C.3   300  LEU300      0.0019
    233  CD1      226.4080  318.7070  249.3160 C.3   300  LEU300      0.0001
    234  CD2      226.1070  320.8660  250.5420 C.3   300  LEU300      0.0001
@<TRIPOS>BOND
     1    45    46    1
     2    49    46    1
     3    49    50    1
     4    40    39    2
     5    52    50   ar
     6    52    54   ar
     7    46    47    1
     8    50    51   ar
     9   171   169    1
    10    39    38    1
    11    47    48    2
    12    43    42    1
    13    54    55   ar
    14    51    53   ar
    15    38    37    1
    16    38    41    1
    17   169   168    1
    18    55    53   ar
    19    42    41    1
    20    42    44    1
    21   159   158    2
    22   168   170    1
    23   168   165    1
    24   164   165    1
    25    63    61    1
    26   158   157    1
    27   165   166    1
    28   151   150    2
    29   162   161    1
    30    60    61    1
    31    60    57    1
    32    61    62    1
    33   161   160    1
    34   161   163    1
    35   157   160    1
    36   157   156    1
    37   166   167    2
    38    56    57    1
    39    28    27    2
    40   150   156   am
    41   150   149    1
    42    32    30    1
    43    57    58    1
    44    36    35    2
    45    58    59    2
    46    27    26    1
    47    27    33   am
    48   155   153    1
    49    35    34    1
    50    26    29    1
    51    26    25    1
    52   149   148    1
    53   149   152    1
    54   153   152    1
    55   153   154    1
    56   143   142    2
    57    30    29    1
    58    30    31    1
    59    33    34    1
    60    81    79    1
    61   142   141    1
    62   139   138    2
    63    22    21    2
    64   146   144    1
    65   176   173    1
    66    79    78    1
    67   233   232    1
    68   172   173    1
    69   141   144    1
    70   141   140    1
    71    64    65    1
    72    78    80    1
    73    78    75    1
    74    21    20    1
    75   232   234    1
    76   232   231    1
    77    68    65    1
    78    68    69    1
    79   173   174    1
    80   138   140   am
    81   138   137    1
    82   144   145    1
    83    18    17    2
    84    74    75    1
    85    74    66   am
    86    65    66    1
    87   227   228    1
    88    75    76    1
    89   231   228    1
    90    69    71   ar
    91    69    70   ar
    92   145   147    1
    93    17    16    1
    94    17    19   am
    95   137   136    1
    96    71    73   ar
    97   174   175    2
    98    20    19    1
    99    20    23    1
   100    66    67    2
   101    15    16    1
   102    76    77    2
   103   228   229    1
   104    24    23    1
   105    70    72   ar
   106    73    72   ar
   107   229   230    2
   108   181   182    1
   109   181   178    1
   110    82    83    1
   111   182   184   ar
   112   182   183   ar
   113   184   186   ar
   114   125   124    2
   115   183   185   ar
   116   186   185   ar
   117   193   192    1
   118   177   178    1
   119   133   135   ar
   120   133   131   ar
   121   178   179    1
   122     4     3    2
   123    86    83    1
   124    86    87    1
   125   135   134   ar
   126   124   123    1
   127    83    84    1
   128   194   192    1
   129   130   131   ar
   130   130   128   ar
   131   131   129   ar
   132     3     2    1
   133   192   191    1
   134   118   117    2
   135    93    84   am
   136    93    94    1
   137   134   132   ar
   138   187   179   am
   139   187   188    1
   140    89    88    1
   141    89    90    2
   142   128   127   ar
   143   129   132   ar
   144   129   127   ar
   145   179   180    2
   146    84    85    2
   147   191   188    1
   148    88    87    1
   149    92    90    1
   150     1     2    1
   151   123   126    1
   152   123   122    1
   153   127   126    1
   154     2     5    1
   155    94    95    1
   156    90    91    1
   157   117   122   am
   158   117   116    1
   159   188   189    1
   160    95    96    2
   161   121   119    1
   162   116   119    1
   163   116   115    1
   164     5     6    1
   165   189   190    2
   166   119   120    1
   167     6     7   ar
   168     6     8   ar
   169   202   200    1
   170     7     9   ar
   171    11     8   ar
   172    11    13   ar
   173     8    10   ar
   174   211   212   ar
   175   211   209   ar
   176   199   200    1
   177   199   196    1
   178   102   101    1
   179   212   210   ar
   180   101    98    1
   181   200   201    1
   182     9    10   ar
   183    13    14   ar
   184   106   105    2
   185    10    12   ar
   186   195   196    1
   187   209   208   ar
   188   100    99    2
   189    99    98    1
   190   196   197    1
   191   210   208   ar
   192    14    12   ar
   193    98    97    1
   194   208   207    1
   195   105   104    1
   196   218   217    1
   197   197   203   am
   198   197   198    2
   199   203   204    1
   200   107   104    1
   201   107   108    1
   202   207   204    1
   203   104   103    1
   204   217   214    1
   205   110   108   ar
   206   110   112   ar
   207   204   205    1
   208   108   109   ar
   209   214   213    1
   210   214   215    1
   211   222   221    2
   212   112   113   ar
   213   219   215   am
   214   219   220    1
   215   223   220    1
   216   223   224    1
   217   215   216    2
   218   226   224   am
   219   221   220    1
   220   205   206    2
   221   109   111   ar
   222   224   225    2
   223   113   111   ar
   224   113   114    1
