@<TRIPOS>MOLECULE
tmp/5xtgA02.pdb
 81 80 0 0 0
SMALL
GASTEIGER

@<TRIPOS>ATOM
      1  N         13.2690    5.1440   19.7930 N.3    85  GLY85      -0.1210
      2  CA        12.6050    3.8810   19.5250 C.3    85  GLY85       0.1956
      3  C         13.4200    2.7070   20.0170 C.2    85  GLY85       0.2612
      4  O         14.6050    2.8280   20.3350 O.2    85  GLY85      -0.2717
      5  N         12.7640    1.5470   20.0610 N.am   86  ILE86      -0.1965
      6  CA        13.4100    0.3340   20.5310 C.3    86  ILE86       0.1727
      7  C         12.9910   -0.8560   19.6800 C.2    86  ILE86       0.2616
      8  O         11.9050   -0.8880   19.0920 O.2    86  ILE86      -0.2715
      9  CB        13.0990    0.1060   22.0340 C.3    86  ILE86       0.0290
     10  CG1       14.1590   -0.7880   22.6560 C.3    86  ILE86       0.0022
     11  CG2       11.6950   -0.4610   22.2320 C.3    86  ILE86       0.0023
     12  CD1       14.0200   -0.9720   24.1710 C.3    86  ILE86       0.0001
     13  N         13.8750   -1.8350   19.6170 N.am   87  TRP87      -0.1974
     14  CA        13.6780   -3.0510   18.8410 C.3    87  TRP87       0.1640
     15  C         13.1270   -4.1760   19.7230 C.2    87  TRP87       0.2290
     16  O         13.2260   -4.1300   20.9470 O.2    87  TRP87      -0.2864
     17  CB        15.0100   -3.4620   18.2100 C.3    87  TRP87       0.0576
     18  CG        14.8950   -4.3870   17.0390 C.ar   87  TRP87       0.0006
     19  CD1       14.0040   -4.3100   16.0040 C.ar   87  TRP87       0.0946
     20  CD2       15.7070   -5.5330   16.7840 C.ar   87  TRP87       0.0152
     21  NE1       14.2150   -5.3490   15.1130 N.ar   87  TRP87      -0.2442
     22  CE2       15.2550   -6.1130   15.5750 C.ar   87  TRP87       0.0810
     23  CE3       16.7740   -6.1280   17.4600 C.ar   87  TRP87       0.0012
     24  CZ2       15.8380   -7.2640   15.0360 C.ar   87  TRP87       0.0191
     25  CZ3       17.3520   -7.2540   16.9330 C.ar   87  TRP87       0.0001
     26  CH2       16.8830   -7.8230   15.7320 C.ar   87  TRP87       0.0015
     27  N         14.0030   -7.5530   19.0420 N.3    89  TYR89      -0.1241
     28  CA        14.9090   -8.7080   19.0180 C.3    89  TYR89       0.1605
     29  C         14.2210   -9.9710   18.4810 C.2    89  TYR89       0.2264
     30  O         14.5720  -11.0860   18.8440 O.2    89  TYR89      -0.2867
     31  CB        15.5160   -8.9250   20.4190 C.3    89  TYR89       0.0534
     32  CG        16.4420   -7.7840   20.7710 C.ar   89  TYR89      -0.0201
     33  CD1       17.7860   -7.8190   20.4190 C.ar   89  TYR89      -0.0009
     34  CD2       15.9630   -6.6400   21.3720 C.ar   89  TYR89      -0.0009
     35  CE1       18.6350   -6.7650   20.6960 C.ar   89  TYR89       0.0417
     36  CE2       16.8170   -5.5620   21.6620 C.ar   89  TYR89       0.0417
     37  CZ        18.1500   -5.6370   21.3170 C.ar   89  TYR89       0.1957
     38  OH        19.0150   -4.5890   21.5870 O.3    89  TYR89      -0.2866
     39  N         12.2120   -7.7810    9.2850 N.3   146  GLY146     -0.1225
     40  CA        13.1550   -7.0030   10.0660 C.3   146  GLY146      0.1811
     41  C         12.7880   -6.8340   11.5280 C.2   146  GLY146      0.2280
     42  O         13.2700   -5.8970   12.1680 O.2   146  GLY146     -0.2866
     43  N          7.3370   -5.5080   17.0290 N.3   151  TYR151     -0.1241
     44  CA         8.0240   -4.3690   16.4220 C.3   151  TYR151      0.1605
     45  C          7.2990   -3.9070   15.1710 C.2   151  TYR151      0.2264
     46  O          7.0310   -2.7130   14.9960 O.2   151  TYR151     -0.2867
     47  CB         9.4710   -4.7320   16.0930 C.3   151  TYR151      0.0534
     48  CG        10.2610   -3.5740   15.5590 C.ar  151  TYR151     -0.0201
     49  CD1       10.6690   -2.5360   16.4090 C.ar  151  TYR151     -0.0009
     50  CD2       10.5950   -3.5010   14.2100 C.ar  151  TYR151     -0.0009
     51  CE1       11.3910   -1.4570   15.9280 C.ar  151  TYR151      0.0417
     52  CE2       11.3260   -2.4230   13.7100 C.ar  151  TYR151      0.0417
     53  CZ        11.7110   -1.4000   14.5820 C.ar  151  TYR151      0.1957
     54  OH        12.4250   -0.3280   14.1060 O.3   151  TYR151     -0.2866
     55  N         20.7060   -0.2270    8.8090 N.3   183  THR183     -0.1203
     56  CA        21.8190    0.6700    9.1170 C.3   183  THR183      0.1994
     57  C         22.2580    0.4620   10.5630 C.2   183  THR183      0.2618
     58  O         21.4150    0.4480   11.4610 O.2   183  THR183     -0.2717
     59  CB        21.4290    2.1450    8.8650 C.3   183  THR183      0.1784
     60  OG1       22.4790    3.0210    9.2980 O.3   183  THR183     -0.2211
     61  CG2       20.1800    2.5250    9.5980 C.3   183  THR183      0.0376
     62  N         23.5810    0.3150   10.7890 N.am  184  VAL184     -0.1965
     63  CA        24.1200   -0.0840   12.0970 C.3   184  VAL184      0.1727
     64  C         24.1160    1.1060   13.0520 C.2   184  VAL184      0.2617
     65  O         24.3620    2.2450   12.6340 O.2   184  VAL184     -0.2715
     66  CB        25.5450   -0.6540   11.9490 C.3   184  VAL184      0.0290
     67  CG1       25.9670   -1.3800   13.2350 C.3   184  VAL184      0.0023
     68  CG2       25.6400   -1.5740   10.7370 C.3   184  VAL184      0.0023
     69  N         23.8760    0.8460   14.3590 N.am  185  THR185     -0.1937
     70  CA        23.6050    1.9280   15.3200 C.3   185  THR185      0.2028
     71  C         23.8890    1.6520   16.7990 C.2   185  THR185      0.2642
     72  O         24.2660    2.5840   17.5230 O.2   185  THR185     -0.2714
     73  CB        22.1330    2.3530   15.2340 C.3   185  THR185      0.1808
     74  OG1       21.2880    1.1870   15.2920 O.3   185  THR185     -0.2208
     75  CG2       21.8780    3.1950   13.9470 C.3   185  THR185      0.0379
     76  N         23.6510    0.4240   17.2740 N.am  186  SER186     -0.1949
     77  CA        23.7070    0.1060   18.7110 C.3   186  SER186      0.1924
     78  C         22.4400    0.5930   19.4070 C.2   186  SER186      0.2314
     79  O         21.7880   -0.1450   20.1500 O.2   186  SER186     -0.2863
     80  CB        24.9420    0.7350   19.3760 C.3   186  SER186      0.2116
     81  OG        25.2160    0.1480   20.6360 O.3   186  SER186     -0.2180
@<TRIPOS>BOND
     1    55    56    1
     2    59    56    1
     3    59    60    1
     4    59    61    1
     5    56    57    1
     6    39    40    1
     7    40    41    1
     8    57    62   am
     9    57    58    2
    10    68    66    1
    11    62    63    1
    12    41    42    2
    13    66    63    1
    14    66    67    1
    15    63    64    1
    16    65    64    2
    17    64    69   am
    18    52    50   ar
    19    52    53   ar
    20    75    73    1
    21    54    53    1
    22    50    48   ar
    23    69    70    1
    24    53    51   ar
    25    46    45    2
    26    24    22   ar
    27    24    26   ar
    28    21    22   ar
    29    21    19   ar
    30    45    44    1
    31    73    74    1
    32    73    70    1
    33    70    71    1
    34    48    47    1
    35    48    49   ar
    36    22    20   ar
    37    26    25   ar
    38    51    49   ar
    39    19    18   ar
    40    47    44    1
    41    44    43    1
    42    20    18   ar
    43    20    23   ar
    44    71    76   am
    45    71    72    2
    46    25    23   ar
    47    18    17    1
    48    76    77    1
    49    17    14    1
    50    29    30    2
    51    29    28    1
    52    77    80    1
    53    77    78    1
    54    14    13    1
    55    14    15    1
    56    28    27    1
    57    28    31    1
    58     8     7    2
    59    80    81    1
    60    78    79    2
    61     2     1    1
    62     2     3    1
    63    13     7   am
    64     7     6    1
    65    15    16    2
    66     3     5   am
    67     3     4    2
    68     5     6    1
    69    33    35   ar
    70    33    32   ar
    71    31    32    1
    72     6     9    1
    73    35    37   ar
    74    32    34   ar
    75    37    38    1
    76    37    36   ar
    77    34    36   ar
    78     9    11    1
    79     9    10    1
    80    10    12    1
