@<TRIPOS>MOLECULE
tmp/5xtlA00.pdb
 129 120 0 0 0
SMALL
GASTEIGER

@<TRIPOS>ATOM
      1  N        -23.9420  -42.0420  -23.6570 N.3    28  ALA28      -0.1245
      2  CA       -23.1490  -42.6800  -22.6140 C.3    28  ALA28       0.1562
      3  C        -23.9350  -42.7630  -21.3050 C.2    28  ALA28       0.2260
      4  O        -23.8460  -43.7940  -20.6250 O.2    28  ALA28      -0.2867
      5  CB       -21.7770  -42.0200  -22.4500 C.3    28  ALA28       0.0290
      6  N        -14.5650  -39.4710  -16.0080 N.3    61  SER61      -0.1202
      7  CA       -13.5480  -38.9320  -16.9140 C.3    61  SER61       0.2020
      8  C        -14.1330  -38.6000  -18.2710 C.2    61  SER61       0.2618
      9  O        -13.6840  -37.6620  -18.9460 O.2    61  SER61      -0.2717
     10  CB       -12.3930  -39.9080  -17.0380 C.3    61  SER61       0.2103
     11  OG       -11.3030  -39.3060  -17.6910 O.3    61  SER61      -0.2182
     12  N        -15.1320  -39.3580  -18.6850 N.am   62  ASN62      -0.1974
     13  CA       -15.8830  -39.0300  -19.8960 C.3    62  ASN62       0.1688
     14  C        -16.9360  -37.9640  -19.5700 C.2    62  ASN62       0.2292
     15  O        -18.1250  -38.2370  -19.4410 O.2    62  ASN62      -0.2864
     16  CB       -16.4460  -40.2880  -20.5460 C.3    62  ASN62       0.1181
     17  CG       -17.1800  -41.2120  -19.5980 C.2    62  ASN62       0.2629
     18  OD1      -17.0040  -41.1900  -18.3710 O.2    62  ASN62      -0.2716
     19  ND2      -18.0000  -42.0820  -20.1850 N.am   62  ASN62      -0.0877
     20  N        -18.4670  -35.4580  -20.7780 N.3    64  HIS64      -0.1241
     21  CA       -19.6570  -35.1550  -21.5610 C.3    64  HIS64       0.1621
     22  C        -20.8620  -35.9540  -21.0870 C.2    64  HIS64       0.2264
     23  O        -21.9930  -35.5410  -21.3270 O.2    64  HIS64      -0.2867
     24  CB       -19.4220  -35.4100  -23.0430 C.3    64  HIS64       0.0745
     25  CG       -19.0360  -36.8150  -23.3460 C.ar   64  HIS64       0.0817
     26  ND1      -17.7300  -37.2550  -23.3100 N.ar   64  HIS64      -0.2268
     27  CD2      -19.7850  -37.8790  -23.7160 C.ar   64  HIS64       0.1154
     28  CE1      -17.6910  -38.5310  -23.6540 C.ar   64  HIS64       0.1986
     29  NE2      -18.9260  -38.9350  -23.9030 N.ar   64  HIS64      -0.2212
     30  N        -10.8800  -34.5790  -22.7550 N.3   114  LEU114     -0.1231
     31  CA       -10.7370  -36.0220  -22.6500 C.3   114  LEU114      0.1693
     32  C         -9.3550  -36.4140  -22.1640 C.2   114  LEU114      0.2592
     33  O         -8.3570  -35.7590  -22.4530 O.2   114  LEU114     -0.2718
     34  CB       -11.0490  -36.6970  -23.9890 C.3   114  LEU114      0.0284
     35  CG       -12.5160  -36.5380  -24.4270 C.3   114  LEU114      0.0019
     36  CD1      -12.7100  -36.8700  -25.9050 C.3   114  LEU114      0.0001
     37  CD2      -13.4980  -37.3270  -23.6160 C.3   114  LEU114      0.0001
     38  N         -9.3130  -37.5170  -21.4220 N.am  115  GLY115     -0.1957
     39  CA        -8.1110  -38.0490  -20.8650 C.3   115  GLY115      0.1869
     40  C         -7.7780  -37.5630  -19.4650 C.2   115  GLY115      0.2309
     41  O         -7.0160  -38.2300  -18.7610 O.2   115  GLY115     -0.2863
     42  N        -14.5300  -44.1030  -17.7740 N.3   151  LEU151     -0.1231
     43  CA       -13.8260  -43.5240  -18.9070 C.3   151  LEU151      0.1693
     44  C        -14.3170  -44.1780  -20.1880 C.2   151  LEU151      0.2593
     45  O        -14.8040  -45.3110  -20.1700 O.2   151  LEU151     -0.2718
     46  CB       -12.3060  -43.6640  -18.7470 C.3   151  LEU151      0.0284
     47  CG       -11.6610  -45.0470  -18.8220 C.3   151  LEU151      0.0019
     48  CD1      -10.2290  -44.9050  -19.3080 C.3   151  LEU151      0.0001
     49  CD2      -11.6930  -45.7420  -17.4750 C.3   151  LEU151      0.0001
     50  N        -14.1960  -43.4460  -21.2980 N.am  152  GLY152     -0.1942
     51  CA       -14.6340  -43.9220  -22.5920 C.3   152  GLY152      0.2014
     52  C        -13.4950  -44.1030  -23.5940 C.2   152  GLY152      0.2639
     53  O        -12.3090  -43.9300  -23.2960 O.2   152  GLY152     -0.2714
     54  N        -13.9010  -44.4500  -24.8180 N.am  153  ASP153     -0.1957
     55  CA       -12.9300  -44.6820  -25.8840 C.3   153  ASP153      0.1840
     56  C        -12.0670  -43.4550  -26.1430 C.2   153  ASP153      0.2622
     57  O        -10.8640  -43.5810  -26.3770 O.2   153  ASP153     -0.2715
     58  CB       -13.6490  -45.0370  -27.1740 C.3   153  ASP153      0.1450
     59  CG       -14.4480  -46.2880  -27.0640 C.2   153  ASP153      0.3671
     60  OD1      -13.9430  -47.3010  -26.5190 O.co2 153  ASP153     -0.2456
     61  OD2      -15.6030  -46.2400  -27.5150 O.co2 153  ASP153     -0.2456
     62  N        -12.6600  -42.2680  -26.1460 N.am  154  GLY154     -0.1954
     63  CA       -11.8860  -41.0700  -26.3910 C.3   154  GLY154      0.1869
     64  C        -10.7630  -40.8760  -25.3810 C.2   154  GLY154      0.2309
     65  O         -9.6430  -40.5040  -25.7210 O.2   154  GLY154     -0.2863
     66  N         -9.2180  -43.2110  -23.8560 N.3   155  LEU155     -0.1245
     67  CA        -8.1900  -44.2130  -24.1380 C.3   155  LEU155      0.1561
     68  C         -7.3290  -43.8890  -25.3490 C.2   155  LEU155      0.2260
     69  O         -6.2550  -44.4570  -25.5020 O.2   155  LEU155     -0.2867
     70  CB        -8.8100  -45.5850  -24.3320 C.3   155  LEU155      0.0270
     71  CG        -9.5150  -46.1680  -23.1100 C.3   155  LEU155      0.0019
     72  CD1      -10.2700  -47.4250  -23.5360 C.3   155  LEU155      0.0001
     73  CD2       -8.5120  -46.4820  -22.0280 C.3   155  LEU155      0.0001
     74  N        -16.0790  -47.8200  -20.7280 N.3   180  ASP180     -0.1239
     75  CA       -17.3230  -47.9120  -21.4730 C.3   180  ASP180      0.1674
     76  C        -17.0110  -48.3880  -22.8920 C.2   180  ASP180      0.2266
     77  O        -16.7540  -47.5950  -23.8090 O.2   180  ASP180     -0.2867
     78  CB       -18.0190  -46.5640  -21.4940 C.3   180  ASP180      0.1410
     79  CG       -19.4040  -46.6620  -22.0530 C.2   180  ASP180      0.3668
     80  OD1      -19.8460  -47.8050  -22.2610 O.co2 180  ASP180     -0.2456
     81  OD2      -20.0380  -45.6210  -22.3010 O.co2 180  ASP180     -0.2456
     82  N        -18.1870  -49.3190  -25.8650 N.3   182  ASN182     -0.1240
     83  CA       -19.3930  -49.2340  -26.6730 C.3   182  ASN182      0.1653
     84  C        -19.1210  -49.0850  -28.1650 C.2   182  ASN182      0.2266
     85  O        -20.0660  -48.9640  -28.9490 O.2   182  ASN182     -0.2867
     86  CB       -20.3230  -48.1240  -26.1730 C.3   182  ASN182      0.1155
     87  CG       -19.7110  -46.7320  -26.2660 C.2   182  ASN182      0.2627
     88  OD1      -18.7490  -46.5050  -27.0060 O.2   182  ASN182     -0.2716
     89  ND2      -20.3260  -45.7650  -25.5740 N.am  182  ASN182     -0.0877
     90  N        -18.1780  -46.8030  -30.1740 N.3   184  ILE184     -0.1231
     91  CA       -18.6980  -45.6510  -30.9090 C.3   184  ILE184      0.1692
     92  C        -17.9880  -44.4140  -30.3910 C.2   184  ILE184      0.2593
     93  O        -17.8560  -44.2440  -29.1740 O.2   184  ILE184     -0.2718
     94  CB       -20.2270  -45.5110  -30.7320 C.3   184  ILE184      0.0266
     95  CG1      -20.9760  -46.6410  -31.4580 C.3   184  ILE184      0.0019
     96  CG2      -20.7180  -44.1350  -31.1770 C.3   184  ILE184      0.0020
     97  CD1      -20.9400  -46.5520  -32.9790 C.3   184  ILE184      0.0001
     98  N        -17.5190  -43.5570  -31.2950 N.am  185  SER185     -0.1938
     99  CA       -17.0470  -42.2220  -30.9190 C.3   185  SER185      0.2055
    100  C        -17.7590  -41.2180  -31.8230 C.2   185  SER185      0.2642
    101  O        -18.6910  -41.5700  -32.5600 O.2   185  SER185     -0.2714
    102  CB       -15.5140  -42.1070  -30.9320 C.3   185  SER185      0.2130
    103  OG       -14.9880  -42.2510  -32.2300 O.3   185  SER185     -0.2179
    104  N        -17.2920  -39.9660  -31.8360 N.am  186  ILE186     -0.1977
    105  CA       -17.9880  -38.9520  -32.6250 C.3   186  ILE186      0.1596
    106  C        -17.9160  -39.2590  -34.1110 C.2   186  ILE186      0.2287
    107  O        -18.8930  -39.0600  -34.8520 O.2   186  ILE186     -0.2864
    108  CB       -17.4470  -37.5550  -32.3060 C.3   186  ILE186      0.0276
    109  CG1      -17.9620  -37.1220  -30.9410 C.3   186  ILE186      0.0022
    110  CG2      -17.8700  -36.5470  -33.3800 C.3   186  ILE186      0.0022
    111  CD1      -17.2940  -35.8840  -30.4470 C.3   186  ILE186      0.0001
    112  N        -24.1730  -48.0040  -26.5860 N.3   245  ILE245     -0.1245
    113  CA       -24.3890  -46.5750  -26.4200 C.3   245  ILE245      0.1561
    114  C        -25.8720  -46.2750  -26.6500 C.2   245  ILE245      0.2260
    115  O        -26.5140  -46.8170  -27.5670 O.2   245  ILE245     -0.2867
    116  CB       -23.4590  -45.7500  -27.3300 C.3   245  ILE245      0.0252
    117  CG1      -23.4200  -44.2970  -26.8370 C.3   245  ILE245      0.0019
    118  CG2      -23.8670  -45.8460  -28.8210 C.3   245  ILE245      0.0019
    119  CD1      -22.4670  -43.4210  -27.5980 C.3   245  ILE245      0.0001
    120  N        -24.6030  -40.1360  -29.4090 N.3   258  HIS258     -0.1241
    121  CA       -23.5030  -39.7120  -28.5450 C.3   258  HIS258      0.1621
    122  C        -23.7330  -38.3100  -27.9840 C.2   258  HIS258      0.2264
    123  O        -23.5430  -38.0710  -26.7790 O.2   258  HIS258     -0.2867
    124  CB       -22.1790  -39.7570  -29.3120 C.3   258  HIS258      0.0745
    125  CG       -21.1620  -38.7820  -28.8020 C.ar  258  HIS258      0.0817
    126  ND1      -20.2790  -39.0950  -27.7910 N.ar  258  HIS258     -0.2268
    127  CD2      -20.9010  -37.4970  -29.1450 C.ar  258  HIS258      0.1154
    128  CE1      -19.5120  -38.0480  -27.5380 C.ar  258  HIS258      0.1986
    129  NE2      -19.8710  -37.0650  -28.3450 N.ar  258  HIS258     -0.2212
@<TRIPOS>BOND
     1   107   106    2
     2   106   105    1
     3   110   108    1
     4    97    95    1
     5   105   108    1
     6   105   104    1
     7   101   100    2
     8   108   109    1
     9   103   102    1
    10   104   100   am
    11   100    99    1
    12    95    94    1
    13    98    99    1
    14    98    92   am
    15    96    94    1
    16   109   111    1
    17   102    99    1
    18    91    94    1
    19    91    92    1
    20    91    90    1
    21    92    93    2
    22   120   121    1
    23   124   125    1
    24   124   121    1
    25   127   125   ar
    26   127   129   ar
    27    85    84    2
    28   118   116    1
    29   125   126   ar
    30   121   122    1
    31   129   128   ar
    32    84    83    1
    33   122   123    2
    34   126   128   ar
    35   119   117    1
    36   115   114    2
    37    61    59   ar
    38   116   117    1
    39   116   113    1
    40    58    59    1
    41    58    55    1
    42    59    60   ar
    43    88    87    2
    44    83    86    1
    45    83    82    1
    46   114   113    1
    47   112   113    1
    48    63    62    1
    49    63    64    1
    50    57    56    2
    51    87    86    1
    52    87    89   am
    53    62    56   am
    54    56    55    1
    55    36    35    1
    56    55    54    1
    57    65    64    2
    58    69    68    2
    59    68    67    1
    60    54    52   am
    61    35    34    1
    62    35    37    1
    63    70    67    1
    64    70    71    1
    65    67    66    1
    66    34    31    1
    67    29    27   ar
    68    29    28   ar
    69    77    76    2
    70    27    25   ar
    71     1     2    1
    72    28    26   ar
    73    52    53    2
    74    52    51    1
    75    72    71    1
    76    25    26   ar
    77    25    24    1
    78    71    73    1
    79    24    21    1
    80    76    75    1
    81    30    31    1
    82    31    32    1
    83     2     5    1
    84     2     3    1
    85    51    50    1
    86    33    32    2
    87    81    79   ar
    88    80    79   ar
    89    32    38   am
    90    79    78    1
    91    21    22    1
    92    21    20    1
    93    78    75    1
    94    75    74    1
    95    38    39    1
    96    23    22    2
    97     3     4    2
    98    50    44   am
    99    39    40    1
   100    16    13    1
   101    16    17    1
   102    44    45    2
   103    44    43    1
   104    19    17   am
   105    13    14    1
   106    13    12    1
   107    17    18    2
   108    14    15    2
   109    40    41    2
   110    48    47    1
   111     9     8    2
   112    43    46    1
   113    43    42    1
   114    47    46    1
   115    47    49    1
   116    12     8   am
   117     8     7    1
   118    11    10    1
   119    10     7    1
   120     7     6    1
