@<TRIPOS>MOLECULE
tmp/5xtwE00.pdb
 78 76 0 0 0
SMALL
GASTEIGER

@<TRIPOS>ATOM
      1  N         20.5010   17.5000  -47.4860 N.3    10  ASP10      -0.1239
      2  CA        21.5770   18.4520  -47.7490 C.3    10  ASP10       0.1674
      3  C         22.2630   18.8780  -46.4570 C.2    10  ASP10       0.2266
      4  O         23.4920   18.8050  -46.3390 O.2    10  ASP10      -0.2867
      5  CB        21.0370   19.6660  -48.5030 C.3    10  ASP10       0.1410
      6  CG        22.1420   20.5200  -49.0940 C.2    10  ASP10       0.3668
      7  OD1       22.3980   20.4040  -50.3110 O.co2  10  ASP10      -0.2456
      8  OD2       22.7630   21.2980  -48.3390 O.co2  10  ASP10      -0.2456
      9  N         10.9590   25.1100  -45.3520 N.3    97  ASN97      -0.1240
     10  CA        12.3260   25.4440  -45.7280 C.3    97  ASN97       0.1653
     11  C         13.1760   25.7270  -44.4950 C.2    97  ASN97       0.2266
     12  O         12.6680   26.1450  -43.4510 O.2    97  ASN97      -0.2867
     13  CB        12.3510   26.6510  -46.6730 C.3    97  ASN97       0.1155
     14  CG        13.7530   27.0300  -47.1000 C.2    97  ASN97       0.2627
     15  OD1       14.4980   27.6570  -46.3470 O.2    97  ASN97      -0.2716
     16  ND2       14.1230   26.6450  -48.3160 N.am   97  ASN97      -0.0877
     17  N         18.2320   29.3230  -45.1290 N.3   100  ASN100     -0.1240
     18  CA        18.4630   30.5790  -45.8240 C.3   100  ASN100      0.1653
     19  C         18.6860   31.7280  -44.8490 C.2   100  ASN100      0.2266
     20  O         18.0300   31.8210  -43.8070 O.2   100  ASN100     -0.2867
     21  CB        17.2800   30.9050  -46.7340 C.3   100  ASN100      0.1155
     22  CG        17.1980   29.9850  -47.9360 C.2   100  ASN100      0.2627
     23  OD1       18.0910   29.9690  -48.7830 O.2   100  ASN100     -0.2716
     24  ND2       16.1220   29.2110  -48.0150 N.am  100  ASN100     -0.0877
     25  N          8.9350   29.2950  -47.3620 N.3   109  TYR109     -0.1241
     26  CA         9.6470   30.0190  -48.4040 C.3   109  TYR109      0.1605
     27  C          9.1550   29.5810  -49.7750 C.2   109  TYR109      0.2264
     28  O          8.6960   28.4500  -49.9560 O.2   109  TYR109     -0.2867
     29  CB        11.1610   29.8000  -48.2920 C.3   109  TYR109      0.0534
     30  CG        11.9840   30.6390  -49.2430 C.ar  109  TYR109     -0.0201
     31  CD1       11.8130   32.0150  -49.3100 C.ar  109  TYR109     -0.0009
     32  CD2       12.9410   30.0570  -50.0640 C.ar  109  TYR109     -0.0009
     33  CE1       12.5670   32.7880  -50.1740 C.ar  109  TYR109      0.0417
     34  CE2       13.6990   30.8220  -50.9310 C.ar  109  TYR109      0.0417
     35  CZ        13.5080   32.1870  -50.9810 C.ar  109  TYR109      0.1957
     36  OH        14.2590   32.9560  -51.8420 O.3   109  TYR109     -0.2866
     37  N         11.0500   29.2020  -52.3580 N.3   111  GLY111     -0.1210
     38  CA        12.0360   28.3910  -53.0400 C.3   111  GLY111      0.1956
     39  C         11.7700   26.9080  -52.8650 C.2   111  GLY111      0.2613
     40  O         11.2450   26.4580  -51.8470 O.2   111  GLY111     -0.2717
     41  N         12.1500   26.1390  -53.8820 N.am  112  SER112     -0.1938
     42  CA        11.9330   24.6990  -53.9230 C.3   112  SER112      0.2055
     43  C         13.2410   23.9530  -54.1570 C.2   112  SER112      0.2644
     44  O         13.2800   22.9280  -54.8400 O.2   112  SER112     -0.2714
     45  CB        10.9090   24.3400  -54.9970 C.3   112  SER112      0.2130
     46  OG        11.3420   24.7710  -56.2740 O.3   112  SER112     -0.2179
     47  N         14.3300   24.4640  -53.5910 N.am  113  GLY113     -0.1939
     48  CA        15.6350   23.8600  -53.7560 C.3   113  GLY113      0.2014
     49  C         15.8450   22.6600  -52.8550 C.2   113  GLY113      0.2639
     50  O         14.9030   22.0050  -52.4030 O.2   113  GLY113     -0.2714
     51  N         17.1210   22.3690  -52.5980 N.am  114  LEU114     -0.1963
     52  CA        17.4830   21.2420  -51.7480 C.3   114  LEU114      0.1728
     53  C         17.0860   21.4550  -50.2920 C.2   114  LEU114      0.2616
     54  O         16.9860   20.4800  -49.5400 O.2   114  LEU114     -0.2715
     55  CB        18.9900   20.9950  -51.8350 C.3   114  LEU114      0.0311
     56  CG        19.5620   20.7320  -53.2300 C.3   114  LEU114      0.0022
     57  CD1       21.0730   20.5520  -53.1660 C.3   114  LEU114      0.0001
     58  CD2       18.8990   19.5220  -53.8690 C.3   114  LEU114      0.0001
     59  N         16.8510   22.6990  -49.8830 N.am  115  TRP115     -0.1960
     60  CA        16.5190   23.0260  -48.5040 C.3   115  TRP115      0.1771
     61  C         15.0200   23.0760  -48.2500 C.2   115  TRP115      0.2620
     62  O         14.6000   23.5350  -47.1830 O.2   115  TRP115     -0.2715
     63  CB        17.1500   24.3660  -48.1260 C.3   115  TRP115      0.0590
     64  CG        18.6460   24.3540  -48.1350 C.ar  115  TRP115      0.0006
     65  CD1       19.4580   23.2670  -48.2740 C.ar  115  TRP115      0.0946
     66  CD2       19.5110   25.4890  -48.0300 C.ar  115  TRP115      0.0152
     67  NE1       20.7760   23.6530  -48.2440 N.ar  115  TRP115     -0.2442
     68  CE2       20.8350   25.0140  -48.0970 C.ar  115  TRP115      0.0810
     69  CE3       19.2940   26.8620  -47.8780 C.ar  115  TRP115      0.0012
     70  CZ2       21.9360   25.8620  -48.0180 C.ar  115  TRP115      0.0191
     71  CZ3       20.3870   27.7010  -47.8000 C.ar  115  TRP115      0.0001
     72  CH2       21.6920   27.1990  -47.8700 C.ar  115  TRP115      0.0015
     73  N         14.2060   22.6230  -49.2040 N.am  116  SER116     -0.1950
     74  CA        12.7650   22.5230  -49.0180 C.3   116  SER116      0.1924
     75  C         12.2590   21.1030  -49.2270 C.2   116  SER116      0.2314
     76  O         11.0430   20.8930  -49.3040 O.2   116  SER116     -0.2863
     77  CB        12.0390   23.4900  -49.9560 C.3   116  SER116      0.2116
     78  OG        12.3860   24.8320  -49.6600 O.3   116  SER116     -0.2180
@<TRIPOS>BOND
     1    46    45    1
     2    45    42    1
     3    44    43    2
     4    43    42    1
     5    43    47   am
     6    42    41    1
     7    41    39   am
     8    58    56    1
     9    48    47    1
    10    48    49    1
    11    56    57    1
    12    56    55    1
    13    38    39    1
    14    38    37    1
    15    39    40    2
    16    49    51   am
    17    49    50    2
    18    51    52    1
    19    36    35    1
    20    55    52    1
    21    52    53    1
    22    35    34   ar
    23    35    33   ar
    24    34    32   ar
    25     7     6   ar
    26    53    59   am
    27    53    54    2
    28    33    31   ar
    29    32    30   ar
    30    28    27    2
    31    77    78    1
    32    77    74    1
    33    59    60    1
    34    27    26    1
    35    31    30   ar
    36    76    75    2
    37    30    29    1
    38    75    74    1
    39    73    74    1
    40    73    61   am
    41     6     5    1
    42     6     8   ar
    43    23    22    2
    44    60    61    1
    45    60    63    1
    46     5     2    1
    47    26    29    1
    48    26    25    1
    49    16    14   am
    50    65    67   ar
    51    65    64   ar
    52    61    62    2
    53    67    68   ar
    54    64    63    1
    55    64    66   ar
    56    68    66   ar
    57    68    70   ar
    58    66    69   ar
    59    70    72   ar
    60    24    22   am
    61    22    21    1
    62    69    71   ar
    63    72    71   ar
    64     2     1    1
    65     2     3    1
    66    14    13    1
    67    14    15    2
    68    21    18    1
    69    13    10    1
    70     3     4    2
    71    18    17    1
    72    18    19    1
    73    10     9    1
    74    10    11    1
    75    19    20    2
    76    11    12    2
