@<TRIPOS>MOLECULE
tmp/5xtxA03.pdb
 134 128 0 0 0
SMALL
GASTEIGER

@<TRIPOS>ATOM
      1  N        -17.1510   22.0460  -10.0330 N.3   354  ARG354     -0.1245
      2  CA       -16.8660   23.4770   -9.8210 C.3   354  ARG354      0.1563
      3  C        -17.5140   23.9970   -8.5410 C.2   354  ARG354      0.2260
      4  O        -16.9380   24.8440   -7.8580 O.2   354  ARG354     -0.2867
      5  CB       -17.2850   24.3430  -11.0310 C.3   354  ARG354      0.0307
      6  CG       -18.7700   24.4640  -11.3070 C.3   354  ARG354      0.0489
      7  CD       -19.0600   25.5090  -12.3580 C.3   354  ARG354      0.2205
      8  NE       -20.4670   25.5410  -12.7000 N.pl3 354  ARG354     -0.0865
      9  CZ       -21.0560   26.4430  -13.4600 C.cat 354  ARG354      0.5346
     10  NH1      -20.3630   27.4570  -13.9630 N.pl3 354  ARG354      0.1354
     11  NH2      -22.3430   26.2960  -13.7980 N.pl3 354  ARG354      0.1354
     12  N         -9.4710   34.7030  -13.9810 N.3   376  ALA376     -0.1231
     13  CA        -9.2750   35.4950  -15.1940 C.3   376  ALA376      0.1694
     14  C        -10.6350   35.8510  -15.7970 C.2   376  ALA376      0.2592
     15  O        -11.0650   35.3330  -16.8300 O.2   376  ALA376     -0.2718
     16  CB        -8.3760   34.7550  -16.1530 C.3   376  ALA376      0.0304
     17  N        -11.3460   36.7730  -15.1070 N.am  377  ASP377     -0.1960
     18  CA       -12.6800   37.2390  -15.5470 C.3   377  ASP377      0.1840
     19  C        -13.6970   36.1270  -15.6340 C.2   377  ASP377      0.2621
     20  O        -14.6080   36.2110  -16.4580 O.2   377  ASP377     -0.2715
     21  CB       -12.6270   38.0040  -16.8760 C.3   377  ASP377      0.1450
     22  CG       -13.8700   38.8870  -17.1160 C.2   377  ASP377      0.3671
     23  OD1      -14.1980   39.6730  -16.1710 O.co2 377  ASP377     -0.2456
     24  OD2      -14.4510   38.8420  -18.2090 O.co2 377  ASP377     -0.2456
     25  N        -13.5950   35.1140  -14.7810 N.am  378  LEU378     -0.1977
     26  CA       -14.5600   34.0290  -14.7830 C.3   378  LEU378      0.1596
     27  C        -15.0360   33.7190  -13.3770 C.2   378  LEU378      0.2287
     28  O        -15.4730   32.6030  -13.0790 O.2   378  LEU378     -0.2864
     29  CB       -14.0320   32.7960  -15.5050 C.3   378  LEU378      0.0297
     30  CG       -14.0640   32.8770  -17.0350 C.3   378  LEU378      0.0022
     31  CD1      -13.2990   31.7020  -17.6270 C.3   378  LEU378      0.0001
     32  CD2      -15.4840   32.9110  -17.5470 C.3   378  LEU378      0.0001
     33  N        -17.8470   34.2400  -11.6110 N.3   380  PRO380     -0.2102
     34  CA       -19.1660   33.6020  -11.4040 C.3   380  PRO380      0.1504
     35  C        -19.3200   32.2910  -12.1500 C.2   380  PRO380      0.2576
     36  O        -20.3700   31.6640  -11.9940 O.2   380  PRO380     -0.2718
     37  CB       -20.1640   34.6490  -11.9160 C.3   380  PRO380      0.0282
     38  CG       -19.3820   35.5430  -12.7120 C.3   380  PRO380      0.0208
     39  CD       -17.9630   35.4810  -12.3980 C.3   380  PRO380      0.0893
     40  N        -18.3700   31.9250  -13.0250 N.am  381  SER381     -0.1953
     41  CA       -18.4120   30.6400  -13.7170 C.3   381  SER381      0.1924
     42  C        -17.4810   29.6190  -13.0850 C.2   381  SER381      0.2314
     43  O        -17.8390   28.4390  -12.9390 O.2   381  SER381     -0.2863
     44  CB       -18.1110   30.7960  -15.2120 C.3   381  SER381      0.2116
     45  OG       -19.1710   31.4240  -15.8890 O.3   381  SER381     -0.2180
     46  N         -9.0660   39.2930  -18.2500 N.3   411  VAL411     -0.1245
     47  CA        -8.9690   38.2490  -19.2490 C.3   411  VAL411      0.1561
     48  C         -7.5010   38.0720  -19.6560 C.2   411  VAL411      0.2260
     49  O         -7.0820   38.4610  -20.7430 O.2   411  VAL411     -0.2867
     50  CB        -9.8990   38.4390  -20.4530 C.3   411  VAL411      0.0252
     51  CG1      -10.0080   37.1310  -21.2030 C.3   411  VAL411      0.0019
     52  CG2      -11.2920   38.9110  -20.0380 C.3   411  VAL411      0.0019
     53  N         -5.0300   35.0990  -18.8900 N.3   413  GLU413     -0.1245
     54  CA        -4.6410   33.8050  -18.3270 C.3   413  GLU413      0.1567
     55  C         -3.1400   33.6630  -18.2130 C.2   413  GLU413      0.2260
     56  O         -2.6380   33.1120  -17.2290 O.2   413  GLU413     -0.2867
     57  CB        -5.1900   32.6400  -19.1290 C.3   413  GLU413      0.0388
     58  CG        -6.7120   32.5750  -19.2260 C.3   413  GLU413      0.1160
     59  CD        -7.2980   33.4290  -20.3210 C.2   413  GLU413      0.3649
     60  OE1       -6.5300   34.0020  -21.1470 O.co2 413  GLU413     -0.2457
     61  OE2       -8.5500   33.5340  -20.3640 O.co2 413  GLU413     -0.2457
     62  N        -11.3500   28.5260  -17.5230 N.3   437  PHE437     -0.1241
     63  CA       -11.7890   27.2700  -18.1120 C.3   437  PHE437      0.1605
     64  C        -10.5660   26.4380  -18.4700 C.2   437  PHE437      0.2264
     65  O         -9.5580   26.9640  -18.9600 O.2   437  PHE437     -0.2867
     66  CB       -12.6010   27.5190  -19.3790 C.3   437  PHE437      0.0534
     67  CG       -13.8880   28.2500  -19.1690 C.ar  437  PHE437     -0.0203
     68  CD1      -14.5820   28.1950  -17.9660 C.ar  437  PHE437     -0.0042
     69  CD2      -14.4330   28.9890  -20.2020 C.ar  437  PHE437     -0.0042
     70  CE1      -15.7640   28.8650  -17.8110 C.ar  437  PHE437     -0.0003
     71  CE2      -15.6270   29.6690  -20.0660 C.ar  437  PHE437     -0.0003
     72  CZ       -16.3160   29.6000  -18.8790 C.ar  437  PHE437     -0.0000
     73  N         -8.6890   27.1200  -21.6560 N.3   440  PHE440     -0.1241
     74  CA        -7.9130   28.3470  -21.7390 C.3   440  PHE440      0.1605
     75  C         -6.7350   28.3690  -20.7830 C.2   440  PHE440      0.2264
     76  O         -5.9250   29.3130  -20.8620 O.2   440  PHE440     -0.2867
     77  CB        -8.8180   29.5790  -21.6320 C.3   440  PHE440      0.0534
     78  CG        -9.9000   29.5660  -22.6830 C.ar  440  PHE440     -0.0203
     79  CD1       -9.6090   29.2710  -24.0170 C.ar  440  PHE440     -0.0042
     80  CD2      -11.2090   29.8300  -22.3430 C.ar  440  PHE440     -0.0042
     81  CE1      -10.6070   29.2010  -24.9860 C.ar  440  PHE440     -0.0003
     82  CE2      -12.2190   29.7740  -23.3060 C.ar  440  PHE440     -0.0003
     83  CZ       -11.9030   29.4500  -24.6170 C.ar  440  PHE440     -0.0000
     84  N         -3.7460   28.9340  -22.9160 N.3   443  TYR443     -0.1241
     85  CA        -3.2270   30.2850  -23.2100 C.3   443  TYR443      0.1605
     86  C         -2.0050   30.6000  -22.3590 C.2   443  TYR443      0.2264
     87  O         -1.2170   31.4930  -22.7250 O.2   443  TYR443     -0.2867
     88  CB        -4.2790   31.3520  -22.9420 C.3   443  TYR443      0.0534
     89  CG        -5.1530   31.7350  -24.1200 C.ar  443  TYR443     -0.0201
     90  CD1       -5.7840   30.8200  -24.9430 C.ar  443  TYR443     -0.0009
     91  CD2       -5.3620   33.0880  -24.3930 C.ar  443  TYR443     -0.0009
     92  CE1       -6.6110   31.2300  -25.9820 C.ar  443  TYR443      0.0417
     93  CE2       -6.1790   33.5030  -25.4280 C.ar  443  TYR443      0.0417
     94  CZ        -6.8240   32.5860  -26.2130 C.ar  443  TYR443      0.1957
     95  OH        -7.6690   32.9560  -27.2220 O.3   443  TYR443     -0.2866
     96  N        -15.0780   23.6230  -16.3450 N.3   464  HIS464     -0.1241
     97  CA       -15.5860   23.4290  -17.7020 C.3   464  HIS464      0.1621
     98  C        -14.6860   22.4620  -18.4600 C.2   464  HIS464      0.2264
     99  O        -14.1980   22.7180  -19.5730 O.2   464  HIS464     -0.2867
    100  CB       -15.8180   24.7510  -18.4180 C.3   464  HIS464      0.0745
    101  CG       -16.8480   25.5720  -17.7440 C.ar  464  HIS464      0.0817
    102  ND1      -16.7730   26.0050  -16.4250 N.ar  464  HIS464     -0.2268
    103  CD2      -17.9820   26.0730  -18.2880 C.ar  464  HIS464      0.1154
    104  CE1      -17.8500   26.7440  -16.2110 C.ar  464  HIS464      0.1986
    105  NE2      -18.6030   26.7980  -17.3130 N.ar  464  HIS464     -0.2212
    106  N        -21.4270   26.0430  -25.3580 N.3   472  ASP472     -0.1239
    107  CA       -20.3680   26.9150  -25.8410 C.3   472  ASP472      0.1674
    108  C        -19.5480   26.2430  -26.9420 C.2   472  ASP472      0.2266
    109  O        -18.9310   26.9540  -27.7380 O.2   472  ASP472     -0.2867
    110  CB       -19.4850   27.4160  -24.6860 C.3   472  ASP472      0.1410
    111  CG       -20.0520   28.6000  -23.9280 C.2   472  ASP472      0.3668
    112  OD1      -20.9960   29.2630  -24.4040 O.co2 472  ASP472     -0.2456
    113  OD2      -19.4920   28.8750  -22.8310 O.co2 472  ASP472     -0.2456
    114  N        -14.3830   25.8000  -26.8490 N.3   476  HIS476     -0.1241
    115  CA       -14.2920   25.8210  -25.3960 C.3   476  HIS476      0.1621
    116  C        -14.0290   24.4580  -24.7780 C.2   476  HIS476      0.2264
    117  O        -13.7270   24.4040  -23.5900 O.2   476  HIS476     -0.2867
    118  CB       -15.5850   26.4170  -24.8140 C.3   476  HIS476      0.0745
    119  CG       -15.6900   27.8920  -24.9180 C.ar  476  HIS476      0.0817
    120  ND1      -15.5470   28.6110  -26.0820 N.ar  476  HIS476     -0.2268
    121  CD2      -15.9680   28.7980  -23.9380 C.ar  476  HIS476      0.1154
    122  CE1      -15.7140   29.9080  -25.7680 C.ar  476  HIS476      0.1986
    123  NE2      -15.9770   30.0510  -24.4830 N.ar  476  HIS476     -0.2212
    124  N        -18.6070   21.6090  -15.2190 N.3   523  ARG523     -0.1245
    125  CA       -19.8040   22.4440  -15.2120 C.3   523  ARG523      0.1563
    126  C        -21.0230   21.6600  -14.7310 C.2   523  ARG523      0.2260
    127  O        -21.8640   22.2170  -14.0230 O.2   523  ARG523     -0.2867
    128  CB       -20.0350   23.0020  -16.6110 C.3   523  ARG523      0.0307
    129  CG       -21.2600   23.9030  -16.6930 C.3   523  ARG523      0.0489
    130  CD       -21.5050   24.3170  -18.1420 C.3   523  ARG523      0.2205
    131  NE       -22.2950   25.5380  -18.2540 N.pl3 523  ARG523     -0.0865
    132  CZ       -23.4620   25.6350  -18.8700 C.cat 523  ARG523      0.5346
    133  NH1      -24.0160   24.5980  -19.4660 N.pl3 523  ARG523      0.1354
    134  NH2      -24.0550   26.8220  -18.9310 N.pl3 523  ARG523      0.1354
@<TRIPOS>BOND
     1   109   108    2
     2    95    94    1
     3   108   107    1
     4   114   115    1
     5    94    92   ar
     6    94    93   ar
     7   120   122   ar
     8   120   119   ar
     9    92    90   ar
    10   107   106    1
    11   107   110    1
    12   122   123   ar
    13    93    91   ar
    14   115   118    1
    15   115   116    1
    16    81    83   ar
    17    81    79   ar
    18    90    89   ar
    19   119   118    1
    20   119   121   ar
    21   116   117    2
    22   110   111    1
    23    83    82   ar
    24   123   121   ar
    25   112   111   ar
    26    91    89   ar
    27    89    88    1
    28    79    78   ar
    29   111   113   ar
    30    82    80   ar
    31    85    88    1
    32    85    84    1
    33    85    86    1
    34    87    86    2
    35    78    80   ar
    36    78    77    1
    37    74    73    1
    38    74    77    1
    39    74    75    1
    40    51    50    1
    41    60    59   ar
    42    76    75    2
    43    49    48    2
    44    50    52    1
    45    50    47    1
    46    61    59   ar
    47    59    58    1
    48    69    71   ar
    49    69    67   ar
    50    71    72   ar
    51    48    47    1
    52    99    98    2
    53   133   132    1
    54    66    67    1
    55    66    63    1
    56    47    46    1
    57    58    57    1
    58    67    68   ar
    59    57    54    1
    60    65    64    2
    61   134   132    1
    62    53    54    1
    63    72    70   ar
    64   132   131    2
    65    64    63    1
    66    98    97    1
    67   100   101    1
    68   100    97    1
    69    54    55    1
    70   103   101   ar
    71   103   105   ar
    72   131   130    1
    73    55    56    2
    74    24    22   ar
    75   130   129    1
    76    63    62    1
    77    68    70   ar
    78   101   102   ar
    79    97    96    1
    80    31    30    1
    81    32    30    1
    82   105   104   ar
    83    22    21    1
    84    22    23   ar
    85    30    29    1
    86    21    18    1
    87    15    14    2
    88   129   128    1
    89   128   125    1
    90    20    19    2
    91   102   104   ar
    92    16    13    1
    93    45    44    1
    94    14    13    1
    95    14    17   am
    96    19    18    1
    97    19    25   am
    98    18    17    1
    99    29    26    1
   100   124   125    1
   101    44    41    1
   102   125   126    1
   103    13    12    1
   104    26    25    1
   105    26    27    1
   106   126   127    2
   107    10     9    1
   108    11     9    1
   109    41    42    1
   110    41    40    1
   111     9     8    2
   112    27    28    2
   113    42    43    2
   114    40    35   am
   115    38    39    1
   116    38    37    1
   117     8     7    1
   118    39    33    1
   119     7     6    1
   120    35    36    2
   121    35    34    1
   122    37    34    1
   123    33    34    1
   124     6     5    1
   125     5     2    1
   126     1     2    1
   127     2     3    1
   128     3     4    2
