@<TRIPOS>MOLECULE
tmp/5xu5B02.pdb
 90 83 0 0 0
SMALL
GASTEIGER

@<TRIPOS>ATOM
      1  N          4.9990    0.7500  -47.0720 N.3    33  LEU33      -0.1231
      2  CA         5.5530    1.9500  -47.6950 C.3    33  LEU33       0.1693
      3  C          6.4720    1.6000  -48.8580 C.2    33  LEU33       0.2591
      4  O          6.5330    2.3450  -49.8500 O.2    33  LEU33      -0.2718
      5  CB         6.3100    2.7820  -46.6560 C.3    33  LEU33       0.0284
      6  CG         6.7890    4.1720  -47.0910 C.3    33  LEU33       0.0019
      7  CD1        5.6840    4.9840  -47.6980 C.3    33  LEU33       0.0001
      8  CD2        7.3580    4.9160  -45.8930 C.3    33  LEU33       0.0001
      9  N          7.1740    0.4670  -48.7590 N.am   34  GLU34      -0.1979
     10  CA         8.1730    0.0980  -49.7560 C.3    34  GLU34       0.1602
     11  C          7.5390   -0.2040  -51.1040 C.2    34  GLU34       0.2287
     12  O          8.0190    0.2710  -52.1380 O.2    34  GLU34      -0.2864
     13  CB         8.9800   -1.1090  -49.2720 C.3    34  GLU34       0.0415
     14  CG         9.8530   -0.7660  -48.0640 C.3    34  GLU34       0.1163
     15  CD        10.8680    0.3320  -48.2930 C.2    34  GLU34       0.3649
     16  OE1       11.5180    0.3630  -49.3350 O.co2  34  GLU34      -0.2457
     17  OE2       10.9910    1.2270  -47.4190 O.co2  34  GLU34      -0.2457
     18  N         16.4570   -2.7960  -56.9460 N.3    46  ASP46      -0.1239
     19  CA        15.8710   -1.4620  -57.1070 C.3    46  ASP46       0.1674
     20  C         16.7400   -0.5980  -58.0250 C.2    46  ASP46       0.2266
     21  O         16.8420    0.6230  -57.8630 O.2    46  ASP46      -0.2867
     22  CB        15.6420   -0.7820  -55.7550 C.3    46  ASP46       0.1410
     23  CG        14.4870    0.2140  -55.7840 C.2    46  ASP46       0.3668
     24  OD1       13.4340   -0.1190  -56.3640 O.co2  46  ASP46      -0.2456
     25  OD2       14.6220    1.3270  -55.2170 O.co2  46  ASP46      -0.2456
     26  N         19.0450   -2.7840  -53.1580 N.3    54  ASN54      -0.1240
     27  CA        17.9310   -3.0970  -52.2670 C.3    54  ASN54       0.1653
     28  C         17.3190   -4.4560  -52.5760 C.2    54  ASN54       0.2266
     29  O         17.1530   -4.8310  -53.7450 O.2    54  ASN54      -0.2867
     30  CB        16.8250   -2.0440  -52.3490 C.3    54  ASN54       0.1155
     31  CG        17.2980   -0.6590  -51.9520 C.2    54  ASN54       0.2627
     32  OD1       18.2150   -0.4980  -51.1460 O.2    54  ASN54      -0.2716
     33  ND2       16.6450    0.3480  -52.4950 N.am   54  ASN54      -0.0877
     34  N         13.0130   -3.4730  -49.1370 N.3    59  LYS59      -0.1245
     35  CA        14.0820   -2.8480  -49.9020 C.3    59  LYS59       0.1561
     36  C         15.2480   -2.4810  -48.9880 C.2    59  LYS59       0.2260
     37  O         15.7550   -1.3570  -49.0020 O.2    59  LYS59      -0.2867
     38  CB        13.5640   -1.6290  -50.6730 C.3    59  LYS59       0.0271
     39  CG        12.7210   -2.0030  -51.9110 C.3    59  LYS59       0.0035
     40  CD        12.0580   -0.7760  -52.5320 C.3    59  LYS59       0.0206
     41  CE        11.5460   -1.0600  -53.9280 C.3    59  LYS59       0.1093
     42  NZ        11.4750    0.1930  -54.7500 N.3    59  LYS59      -0.1314
     43  N         17.4880    4.2540  -44.6170 N.3   114  ARG114     -0.1245
     44  CA        17.1140    5.3560  -45.4950 C.3   114  ARG114      0.1563
     45  C         18.3090    5.8820  -46.2760 C.2   114  ARG114      0.2260
     46  O         18.1970    6.1840  -47.4690 O.2   114  ARG114     -0.2867
     47  CB        16.4880    6.4820  -44.6700 C.3   114  ARG114      0.0307
     48  CG        16.1050    7.6920  -45.4840 C.3   114  ARG114      0.0489
     49  CD        14.8500    7.4100  -46.3020 C.3   114  ARG114      0.2205
     50  NE        14.3490    8.6200  -46.9440 N.pl3 114  ARG114     -0.0865
     51  CZ        13.4050    8.6230  -47.8770 C.cat 114  ARG114      0.5346
     52  NH1       12.8570    7.4790  -48.2690 N.pl3 114  ARG114      0.1354
     53  NH2       13.0100    9.7690  -48.4130 N.pl3 114  ARG114      0.1354
     54  N         10.8220   10.0370  -43.2800 N.3   131  TYR131     -0.1241
     55  CA        10.5710    8.6300  -43.5520 C.3   131  TYR131      0.1605
     56  C         10.0440    7.9230  -42.3070 C.2   131  TYR131      0.2264
     57  O          9.0500    7.1920  -42.3720 O.2   131  TYR131     -0.2867
     58  CB        11.8510    7.9700  -44.0670 C.3   131  TYR131      0.0534
     59  CG        11.7170    6.4920  -44.2990 C.ar  131  TYR131     -0.0201
     60  CD1       11.0390    5.9990  -45.4050 C.ar  131  TYR131     -0.0009
     61  CD2       12.2490    5.5890  -43.4040 C.ar  131  TYR131     -0.0009
     62  CE1       10.9000    4.6500  -45.6150 C.ar  131  TYR131      0.0417
     63  CE2       12.1220    4.2290  -43.6060 C.ar  131  TYR131      0.0417
     64  CZ        11.4470    3.7600  -44.7140 C.ar  131  TYR131      0.1957
     65  OH        11.3200    2.3900  -44.9120 O.3   131  TYR131     -0.2866
     66  N         -4.3600   -0.6320  -48.6050 N.3   154  ARG154     -0.1245
     67  CA        -3.0050   -0.1060  -48.4920 C.3   154  ARG154      0.1563
     68  C         -3.0460    1.3370  -48.0000 C.2   154  ARG154      0.2260
     69  O         -3.6570    2.2020  -48.6410 O.2   154  ARG154     -0.2867
     70  CB        -2.2600   -0.1680  -49.8240 C.3   154  ARG154      0.0307
     71  CG        -1.0510    0.7660  -49.8450 C.3   154  ARG154      0.0489
     72  CD        -0.0010    0.3540  -50.8580 C.3   154  ARG154      0.2205
     73  NE         1.3050    0.9230  -50.5260 N.pl3 154  ARG154     -0.0865
     74  CZ         1.8460    1.9840  -51.1220 C.cat 154  ARG154      0.5346
     75  NH1        1.2010    2.6130  -52.1020 N.pl3 154  ARG154      0.1354
     76  NH2        3.0370    2.4220  -50.7340 N.pl3 154  ARG154      0.1354
     77  N          6.4030    9.6150  -49.9070 N.3   159  VAL159     -0.1231
     78  CA         7.7790    9.8270  -49.4580 C.3   159  VAL159      0.1692
     79  C          8.7210    9.5010  -50.6100 C.2   159  VAL159      0.2592
     80  O          8.7960    8.3480  -51.0500 O.2   159  VAL159     -0.2718
     81  CB         8.1390    8.9770  -48.2320 C.3   159  VAL159      0.0266
     82  CG1        9.4970    9.4040  -47.6970 C.3   159  VAL159      0.0020
     83  CG2        7.0840    9.1040  -47.1610 C.3   159  VAL159      0.0020
     84  N          9.4560   10.5050  -51.0730 N.am  160  THR160     -0.1953
     85  CA        10.4410   10.3310  -52.1400 C.3   160  THR160      0.1897
     86  C         11.6790    9.5530  -51.6730 C.2   160  THR160      0.2313
     87  O         12.1550    8.6360  -52.3590 O.2   160  THR160     -0.2863
     88  CB        10.8790   11.6970  -52.6910 C.3   160  THR160      0.1794
     89  OG1        9.7400   12.5680  -52.7460 O.3   160  THR160     -0.2208
     90  CG2       11.4910   11.5510  -54.0790 C.3   160  THR160      0.0378
@<TRIPOS>BOND
     1    20    21    2
     2    20    19    1
     3    19    18    1
     4    19    22    1
     5    24    23   ar
     6    23    22    1
     7    23    25   ar
     8    42    41    1
     9    90    88    1
    10    41    40    1
    11    29    28    2
    12    26    27    1
    13    89    88    1
    14    88    85    1
    15    28    27    1
    16    40    39    1
    17    33    31   am
    18    87    86    2
    19    30    27    1
    20    30    31    1
    21    85    86    1
    22    85    84    1
    23    12    11    2
    24    75    74    1
    25    31    32    2
    26    39    38    1
    27    74    76    1
    28    74    73    2
    29    11    10    1
    30    84    79   am
    31    80    79    2
    32    72    73    1
    33    72    71    1
    34    38    35    1
    35    79    78    1
    36    77    78    1
    37    35    34    1
    38    35    36    1
    39     4     3    2
    40    71    70    1
    41    70    67    1
    42    10    13    1
    43    10     9    1
    44    78    81    1
    45    16    15   ar
    46    13    14    1
    47    37    36    2
    48     3     9   am
    49     3     2    1
    50    69    68    2
    51    66    67    1
    52    67    68    1
    53    53    51    1
    54    15    14    1
    55    15    17   ar
    56    52    51    1
    57    81    82    1
    58    81    83    1
    59    51    50    2
    60     7     6    1
    61     2     1    1
    62     2     5    1
    63    46    45    2
    64     6     5    1
    65     6     8    1
    66    50    49    1
    67    49    48    1
    68    45    44    1
    69    62    60   ar
    70    62    64   ar
    71    44    47    1
    72    44    43    1
    73    48    47    1
    74    60    59   ar
    75    65    64    1
    76    64    63   ar
    77    59    58    1
    78    59    61   ar
    79    58    55    1
    80    63    61   ar
    81    55    54    1
    82    55    56    1
    83    57    56    2
