@<TRIPOS>MOLECULE
tmp/5xu5B01.pdb
 89 87 0 0 0
SMALL
GASTEIGER

@<TRIPOS>ATOM
      1  N         -5.5810    3.1390  -50.6300 N.3     6  GLU6       -0.1245
      2  CA        -5.9710    2.6110  -51.9210 C.3     6  GLU6        0.1567
      3  C         -6.2150    1.1240  -51.7300 C.2     6  GLU6        0.2260
      4  O         -5.6270    0.4920  -50.8440 O.2     6  GLU6       -0.2867
      5  CB        -4.8970    2.8660  -52.9910 C.3     6  GLU6        0.0388
      6  CG        -3.6540    2.0430  -52.7750 C.3     6  GLU6        0.1160
      7  CD        -2.5630    2.3400  -53.7700 C.2     6  GLU6        0.3649
      8  OE1       -2.8780    2.7260  -54.9140 O.co2   6  GLU6       -0.2457
      9  OE2       -1.3800    2.1870  -53.3980 O.co2   6  GLU6       -0.2457
     10  N          4.9990    0.7500  -47.0720 N.3    33  LEU33      -0.1231
     11  CA         5.5530    1.9500  -47.6950 C.3    33  LEU33       0.1693
     12  C          6.4720    1.6000  -48.8580 C.2    33  LEU33       0.2592
     13  O          6.5330    2.3450  -49.8500 O.2    33  LEU33      -0.2718
     14  CB         6.3100    2.7820  -46.6560 C.3    33  LEU33       0.0284
     15  CG         6.7890    4.1720  -47.0910 C.3    33  LEU33       0.0019
     16  CD1        5.6840    4.9840  -47.6980 C.3    33  LEU33       0.0001
     17  CD2        7.3580    4.9160  -45.8930 C.3    33  LEU33       0.0001
     18  N          7.1740    0.4670  -48.7590 N.am   34  GLU34      -0.1966
     19  CA         8.1730    0.0980  -49.7560 C.3    34  GLU34       0.1733
     20  C          7.5390   -0.2040  -51.1040 C.2    34  GLU34       0.2617
     21  O          8.0190    0.2710  -52.1380 O.2    34  GLU34      -0.2715
     22  CB         8.9800   -1.1090  -49.2720 C.3    34  GLU34       0.0429
     23  CG         9.8530   -0.7660  -48.0640 C.3    34  GLU34       0.1163
     24  CD        10.8680    0.3320  -48.2930 C.2    34  GLU34       0.3649
     25  OE1       11.5180    0.3630  -49.3350 O.co2  34  GLU34      -0.2457
     26  OE2       10.9910    1.2270  -47.4190 O.co2  34  GLU34      -0.2457
     27  N          6.4970   -1.0340  -51.1260 N.am   35  THR35      -0.1937
     28  CA         5.8730   -1.4120  -52.3910 C.3    35  THR35       0.2028
     29  C          4.3550   -1.4160  -52.2670 C.2    35  THR35       0.2642
     30  O          3.7840   -1.4990  -51.1700 O.2    35  THR35      -0.2714
     31  CB         6.3190   -2.8000  -52.9080 C.3    35  THR35       0.1808
     32  OG1        5.7670   -3.8310  -52.0800 O.3    35  THR35      -0.2208
     33  CG2        7.8540   -2.9290  -52.9660 C.3    35  THR35       0.0379
     34  N          3.7070   -1.3570  -53.4300 N.am   36  LYS36      -0.1977
     35  CA         2.2550   -1.3880  -53.4560 C.3    36  LYS36       0.1596
     36  C          1.7310   -2.7580  -53.0590 C.2    36  LYS36       0.2287
     37  O          0.7230   -2.8600  -52.3540 O.2    36  LYS36      -0.2864
     38  CB         1.7470   -1.0030  -54.8440 C.3    36  LYS36       0.0298
     39  CG         0.2290   -0.8140  -54.9120 C.3    36  LYS36       0.0038
     40  CD        -0.2240   -0.3060  -56.2750 C.3    36  LYS36       0.0206
     41  CE        -0.1310    1.2110  -56.3730 C.3    36  LYS36       0.1093
     42  NZ        -1.4210    1.8400  -56.8580 N.3    36  LYS36      -0.1314
     43  N         -4.3600   -0.6320  -48.6050 N.3   154  ARG154     -0.1245
     44  CA        -3.0050   -0.1060  -48.4920 C.3   154  ARG154      0.1563
     45  C         -3.0460    1.3370  -48.0000 C.2   154  ARG154      0.2260
     46  O         -3.6570    2.2020  -48.6410 O.2   154  ARG154     -0.2867
     47  CB        -2.2600   -0.1680  -49.8240 C.3   154  ARG154      0.0307
     48  CG        -1.0510    0.7660  -49.8450 C.3   154  ARG154      0.0489
     49  CD        -0.0010    0.3540  -50.8580 C.3   154  ARG154      0.2205
     50  NE         1.3050    0.9230  -50.5260 N.pl3 154  ARG154     -0.0865
     51  CZ         1.8460    1.9840  -51.1220 C.cat 154  ARG154      0.5346
     52  NH1        1.2010    2.6130  -52.1020 N.pl3 154  ARG154      0.1354
     53  NH2        3.0370    2.4220  -50.7340 N.pl3 154  ARG154      0.1354
     54  N         -0.7840    4.5420  -47.6870 N.3   156  TRP156     -0.1227
     55  CA         0.4320    5.0590  -48.2890 C.3   156  TRP156      0.1737
     56  C          0.6670    6.4910  -47.8420 C.2   156  TRP156      0.2595
     57  O         -0.2590    7.1990  -47.4240 O.2   156  TRP156     -0.2718
     58  CB         0.3730    5.0050  -49.8150 C.3   156  TRP156      0.0564
     59  CG        -0.7940    5.7320  -50.3810 C.ar  156  TRP156      0.0003
     60  CD1       -2.0090    5.2130  -50.6750 C.ar  156  TRP156      0.0946
     61  CD2       -0.8560    7.1210  -50.7140 C.ar  156  TRP156      0.0152
     62  NE1       -2.8350    6.1880  -51.1840 N.ar  156  TRP156     -0.2442
     63  CE2       -2.1500    7.3720  -51.2130 C.ar  156  TRP156      0.0810
     64  CE3        0.0580    8.1780  -50.6410 C.ar  156  TRP156      0.0012
     65  CZ2       -2.5550    8.6310  -51.6350 C.ar  156  TRP156      0.0191
     66  CZ3       -0.3460    9.4280  -51.0630 C.ar  156  TRP156      0.0001
     67  CH2       -1.6390    9.6430  -51.5570 C.ar  156  TRP156      0.0015
     68  N          1.9350    6.8930  -47.9210 N.am  157  VAL157     -0.1966
     69  CA         2.3650    8.2770  -47.7530 C.3   157  VAL157      0.1727
     70  C          3.3290    8.6050  -48.8850 C.2   157  VAL157      0.2616
     71  O          4.1470    7.7650  -49.2740 O.2   157  VAL157     -0.2715
     72  CB         3.0410    8.5190  -46.3870 C.3   157  VAL157      0.0290
     73  CG1        3.3250    9.9990  -46.1970 C.3   157  VAL157      0.0023
     74  CG2        2.1790    7.9850  -45.2460 C.3   157  VAL157      0.0023
     75  N          3.2360    9.8180  -49.4200 N.am  158  ASP158     -0.1957
     76  CA         4.1270   10.2230  -50.5110 C.3   158  ASP158      0.1840
     77  C          5.4840   10.5840  -49.9160 C.2   158  ASP158      0.2621
     78  O          5.7140   11.7140  -49.4860 O.2   158  ASP158     -0.2715
     79  CB         3.5300   11.3900  -51.2910 C.3   158  ASP158      0.1450
     80  CG         4.3340   11.7470  -52.5350 C.2   158  ASP158      0.3671
     81  OD1        3.7120   12.1080  -53.5540 O.co2 158  ASP158     -0.2456
     82  OD2        5.5810   11.6780  -52.5010 O.co2 158  ASP158     -0.2456
     83  N          6.4030    9.6150  -49.9070 N.am  159  VAL159     -0.1977
     84  CA         7.7790    9.8270  -49.4580 C.3   159  VAL159      0.1596
     85  C          8.7210    9.5010  -50.6100 C.2   159  VAL159      0.2287
     86  O          8.7960    8.3480  -51.0500 O.2   159  VAL159     -0.2864
     87  CB         8.1390    8.9770  -48.2320 C.3   159  VAL159      0.0276
     88  CG1        9.4970    9.4040  -47.6970 C.3   159  VAL159      0.0022
     89  CG2        7.0840    9.1040  -47.1610 C.3   159  VAL159      0.0022
@<TRIPOS>BOND
     1    42    41    1
     2    41    40    1
     3    40    39    1
     4     8     7   ar
     5    39    38    1
     6    38    35    1
     7     7     9   ar
     8     7     6    1
     9    81    80   ar
    10    35    34    1
    11    35    36    1
    12    34    29   am
    13    36    37    2
    14     5     6    1
    15     5     2    1
    16    33    31    1
    17    31    28    1
    18    31    32    1
    19    80    82   ar
    20    80    79    1
    21    28    29    1
    22    28    27    1
    23    29    30    2
    24    21    20    2
    25    52    51    1
    26     2     3    1
    27     2     1    1
    28     3     4    2
    29    65    67   ar
    30    65    63   ar
    31    67    66   ar
    32    79    76    1
    33    63    62   ar
    34    63    61   ar
    35    62    60   ar
    36    27    20   am
    37    51    53    1
    38    51    50    2
    39    20    19    1
    40    66    64   ar
    41    86    85    2
    42    49    50    1
    43    49    48    1
    44    61    64   ar
    45    61    59   ar
    46    60    59   ar
    47    85    84    1
    48    76    77    1
    49    76    75    1
    50    59    58    1
    51    77    83   am
    52    77    78    2
    53    83    84    1
    54    13    12    2
    55    48    47    1
    56    47    44    1
    57    58    55    1
    58    19    22    1
    59    19    18    1
    60    84    87    1
    61    75    70   am
    62    25    24   ar
    63    71    70    2
    64    22    23    1
    65    70    69    1
    66    12    18   am
    67    12    11    1
    68    46    45    2
    69    43    44    1
    70    44    45    1
    71    24    23    1
    72    24    26   ar
    73    55    56    1
    74    55    54    1
    75    87    88    1
    76    87    89    1
    77    68    56   am
    78    68    69    1
    79    56    57    2
    80    69    72    1
    81    16    15    1
    82    11    10    1
    83    11    14    1
    84    15    14    1
    85    15    17    1
    86    72    73    1
    87    72    74    1
