@<TRIPOS>MOLECULE
tmp/5xu8A00.pdb
 113 107 0 0 0
SMALL
GASTEIGER

@<TRIPOS>ATOM
      1  N         10.3430   11.8740  -21.1080 N.3     5  GLY5       -0.1210
      2  CA         9.6570   12.5870  -20.0290 C.3     5  GLY5        0.1956
      3  C          9.0790   13.8970  -20.5080 C.2     5  GLY5        0.2611
      4  O          9.5130   14.4590  -21.5210 O.2     5  GLY5       -0.2717
      5  N          8.0860   14.3840  -19.7740 N.am    6  LEU6       -0.1979
      6  CA         7.4450   15.6600  -20.0700 C.3     6  LEU6        0.1596
      7  C          7.8720   16.7160  -19.0630 C.2     6  LEU6        0.2287
      8  O          7.9090   16.4720  -17.8400 O.2     6  LEU6       -0.2864
      9  CB         5.9130   15.5020  -20.1030 C.3     6  LEU6        0.0297
     10  CG         5.3690   14.6910  -21.2930 C.3     6  LEU6        0.0022
     11  CD1        3.9290   14.2190  -21.0500 C.3     6  LEU6        0.0001
     12  CD2        5.4850   15.4670  -22.5890 C.3     6  LEU6        0.0001
     13  N          7.7190   19.6210  -16.5690 N.3     8  ASN8       -0.1240
     14  CA         6.7710   20.2560  -15.6750 C.3     8  ASN8        0.1653
     15  C          6.7470   21.7650  -15.9790 C.2     8  ASN8        0.2266
     16  O          7.7840   22.4390  -15.8870 O.2     8  ASN8       -0.2867
     17  CB         7.1710   19.9890  -14.2360 C.3     8  ASN8        0.1155
     18  CG         6.1700   20.5500  -13.2230 C.2     8  ASN8        0.2627
     19  OD1        5.1460   21.1330  -13.5830 O.2     8  ASN8       -0.2716
     20  ND2        6.4820   20.3860  -11.9390 N.am    8  ASN8       -0.0877
     21  N          1.9850   18.2510  -13.4920 N.3    13  CYS13      -0.1235
     22  CA         2.1980   16.7760  -13.4970 C.3    13  CYS13       0.1677
     23  C          0.8880   15.9700  -13.6290 C.2    13  CYS13       0.2270
     24  O          0.9290   14.8380  -14.1150 O.2    13  CYS13      -0.2867
     25  CB         3.0730   16.2820  -12.3310 C.3    13  CYS13       0.0956
     26  SG         4.8550   16.6850  -12.5500 S.3    13  CYS13      -0.0801
     27  N          0.7150   15.8010  -17.3340 N.3    16  ASN16      -0.1225
     28  CA         1.7360   14.8770  -17.8240 C.3    16  ASN16       0.1785
     29  C          1.4050   13.4050  -17.5470 C.2    16  ASN16       0.2597
     30  O          1.6320   12.5360  -18.4180 O.2    16  ASN16      -0.2718
     31  CB         3.1040   15.2560  -17.2420 C.3    16  ASN16       0.1169
     32  CG         3.6110   16.6130  -17.7370 C.2    16  ASN16       0.2627
     33  OD1        3.1390   17.1540  -18.7280 O.2    16  ASN16      -0.2716
     34  ND2        4.5950   17.1690  -17.0250 N.am   16  ASN16      -0.0877
     35  N          0.8450   13.1350  -16.3620 N.am   17  SER17      -0.1952
     36  CA         0.4090   11.7800  -15.9780 C.3    17  SER17       0.1924
     37  C         -0.5940   11.2580  -17.0090 C.2    17  SER17       0.2314
     38  O         -0.4500   10.1530  -17.5390 O.2    17  SER17      -0.2863
     39  CB        -0.2610   11.8040  -14.5710 C.3    17  SER17       0.2116
     40  OG        -0.5130   10.4900  -14.1190 O.3    17  SER17      -0.2180
     41  N          0.9790   10.6780  -20.5360 N.3    20  GLN20      -0.1245
     42  CA         1.7160    9.4290  -20.6510 C.3    20  GLN20       0.1566
     43  C          0.8010    8.2090  -20.7220 C.2    20  GLN20       0.2260
     44  O          1.0750    7.2730  -21.4800 O.2    20  GLN20      -0.2867
     45  CB         2.7800    9.2760  -19.5450 C.3    20  GLN20       0.0367
     46  CG         3.8620   10.3580  -19.5590 C.3    20  GLN20       0.0905
     47  CD         4.8420   10.2360  -20.7190 C.2    20  GLN20       0.2608
     48  OE1        5.8610   10.9420  -20.7830 O.2    20  GLN20      -0.2717
     49  NE2        4.5260    9.3550  -21.6560 N.am   20  GLN20      -0.0878
     50  N          1.3330   14.1230   -8.9660 N.3   286  TYR286     -0.1227
     51  CA         0.9420   12.9990   -9.8530 C.3   286  TYR286      0.1736
     52  C          2.1380   12.3250  -10.5210 C.2   286  TYR286      0.2596
     53  O          3.0880   13.0160  -10.9070 O.2   286  TYR286     -0.2718
     54  CB         0.0190   13.4770  -10.9640 C.3   286  TYR286      0.0548
     55  CG        -1.4400   13.6060  -10.5720 C.ar  286  TYR286     -0.0200
     56  CD1       -2.3110   12.5030  -10.6580 C.ar  286  TYR286     -0.0009
     57  CD2       -1.9610   14.8230  -10.1610 C.ar  286  TYR286     -0.0009
     58  CE1       -3.6730   12.6260  -10.3170 C.ar  286  TYR286      0.0417
     59  CE2       -3.3160   14.9530   -9.8190 C.ar  286  TYR286      0.0417
     60  CZ        -4.1660   13.8580   -9.9080 C.ar  286  TYR286      0.1957
     61  OH        -5.5030   14.0470   -9.5600 O.3   286  TYR286     -0.2866
     62  N          2.0540   11.0020  -10.6710 N.am  287  THR287     -0.1939
     63  CA         3.0000   10.1850  -11.4590 C.3   287  THR287      0.2028
     64  C          2.1690    9.2590  -12.3540 C.2   287  THR287      0.2642
     65  O          0.9350    9.2230  -12.2380 O.2   287  THR287     -0.2714
     66  CB         3.9550    9.3470  -10.5890 C.3   287  THR287      0.1808
     67  OG1        3.1930    8.4220   -9.8390 O.3   287  THR287     -0.2208
     68  CG2        4.7790   10.2280   -9.6230 C.3   287  THR287      0.0379
     69  N          2.8290    8.5610  -13.2680 N.am  288  ALA288     -0.1977
     70  CA         2.1670    7.5310  -14.0660 C.3   288  ALA288      0.1597
     71  C          3.0470    6.3030  -14.1410 C.2   288  ALA288      0.2287
     72  O          4.2760    6.4130  -14.1930 O.2   288  ALA288     -0.2864
     73  CB         1.8500    8.0440  -15.4750 C.3   288  ALA288      0.0319
     74  N          6.8730    7.2420  -14.9560 N.3   301  PHE301     -0.1227
     75  CA         7.0080    8.5630  -15.5330 C.3   301  PHE301      0.1736
     76  C          6.7490    9.5600  -14.3990 C.2   301  PHE301      0.2595
     77  O          5.6150    9.6940  -13.8840 O.2   301  PHE301     -0.2718
     78  CB         5.9930    8.7430  -16.6840 C.3   301  PHE301      0.0547
     79  CG         6.2320    7.8210  -17.8630 C.ar  301  PHE301     -0.0202
     80  CD1        5.8230    6.4890  -17.8290 C.ar  301  PHE301     -0.0042
     81  CD2        6.8660    8.2920  -19.0170 C.ar  301  PHE301     -0.0042
     82  CE1        6.0600    5.6250  -18.9000 C.ar  301  PHE301     -0.0003
     83  CE2        7.0840    7.4450  -20.1020 C.ar  301  PHE301     -0.0003
     84  CZ         6.6890    6.1030  -20.0390 C.ar  301  PHE301     -0.0000
     85  N          7.8040   10.2520  -13.9870 N.am  302  ASN302     -0.1960
     86  CA         7.7310   11.1070  -12.8130 C.3   302  ASN302      0.1819
     87  C          8.5410   12.3670  -13.0280 C.2   302  ASN302      0.2621
     88  O          9.7280   12.2740  -13.2950 O.2   302  ASN302     -0.2715
     89  CB         8.2730   10.3680  -11.6000 C.3   302  ASN302      0.1195
     90  CG         8.1650   11.1800  -10.3070 C.2   302  ASN302      0.2630
     91  OD1        7.7380   12.3360  -10.3000 O.2   302  ASN302     -0.2716
     92  ND2        8.5180   10.5530   -9.2070 N.am  302  ASN302     -0.0877
     93  N          7.8990   13.5290  -12.9280 N.am  303  ASP303     -0.1957
     94  CA         8.6000   14.8270  -12.9610 C.3   303  ASP303      0.1840
     95  C          9.7870   14.7970  -13.9570 C.2   303  ASP303      0.2622
     96  O         10.9550   14.9660  -13.5590 O.2   303  ASP303     -0.2715
     97  CB         9.0470   15.2230  -11.5400 C.3   303  ASP303      0.1450
     98  CG         8.8720   16.7090  -11.2510 C.2   303  ASP303      0.3671
     99  OD1        9.0600   17.5460  -12.1710 O.co2 303  ASP303     -0.2456
    100  OD2        8.5440   17.0350  -10.0830 O.co2 303  ASP303     -0.2456
    101  N          9.4470   14.5100  -15.2260 N.am  304  SER304     -0.1950
    102  CA        10.3630   14.3970  -16.3780 C.3   304  SER304      0.1924
    103  C         11.3180   13.1880  -16.3730 C.2   304  SER304      0.2314
    104  O         11.9070   12.8640  -17.4080 O.2   304  SER304     -0.2863
    105  CB        11.1090   15.7110  -16.6660 C.3   304  SER304      0.2116
    106  OG        12.0860   15.9540  -15.6870 O.3   304  SER304     -0.2180
    107  N         12.0650    9.2180  -16.3470 N.3   306  VAL306     -0.1245
    108  CA        11.4410    7.9860  -16.8650 C.3   306  VAL306      0.1561
    109  C         12.3600    6.8590  -16.4210 C.2   306  VAL306      0.2260
    110  O         13.5460    6.8560  -16.7760 O.2   306  VAL306     -0.2867
    111  CB        11.2600    8.0200  -18.4090 C.3   306  VAL306      0.0252
    112  CG1       10.5590    6.7790  -18.9230 C.3   306  VAL306      0.0019
    113  CG2       10.4680    9.2490  -18.8380 C.3   306  VAL306      0.0019
@<TRIPOS>BOND
     1    12    10    1
     2    49    47   am
     3     4     3    2
     4    44    43    2
     5    10    11    1
     6    10     9    1
     7     1     2    1
     8    48    47    2
     9    43    42    1
    10    47    46    1
    11    42    41    1
    12    42    45    1
    13     3     2    1
    14     3     5   am
    15     9     6    1
    16    83    84   ar
    17    83    81   ar
    18     6     5    1
    19     6     7    1
    20    84    82   ar
    21    46    45    1
    22     7     8    2
    23    81    79   ar
    24   112   111    1
    25    82    80   ar
    26   113   111    1
    27    33    32    2
    28    30    29    2
    29   111   108    1
    30    79    80   ar
    31    79    78    1
    32    28    29    1
    33    28    27    1
    34    28    31    1
    35    32    31    1
    36    32    34   am
    37    29    35   am
    38    38    37    2
    39   104   103    2
    40    37    36    1
    41   108   109    1
    42   108   107    1
    43   110   109    2
    44    78    75    1
    45   105   102    1
    46   105   106    1
    47    13    14    1
    48   102   103    1
    49   102   101    1
    50    35    36    1
    51    15    16    2
    52    15    14    1
    53    36    39    1
    54    14    17    1
    55    75    74    1
    56    75    76    1
    57    73    70    1
    58   101    95   am
    59    39    40    1
    60    76    85   am
    61    76    77    2
    62    17    18    1
    63    72    71    2
    64    71    70    1
    65    24    23    2
    66    70    69    1
    67    85    86    1
    68    95    96    2
    69    95    94    1
    70    23    22    1
    71    19    18    2
    72    22    21    1
    73    22    25    1
    74    88    87    2
    75    69    64   am
    76    18    20   am
    77    87    93   am
    78    87    86    1
    79    94    93    1
    80    94    97    1
    81    86    89    1
    82    26    25    1
    83    64    65    2
    84    64    63    1
    85    99    98   ar
    86    89    90    1
    87    97    98    1
    88    63    62    1
    89    63    66    1
    90    98   100   ar
    91    54    55    1
    92    54    51    1
    93    53    52    2
    94    62    52   am
    95    56    55   ar
    96    56    58   ar
    97    66    67    1
    98    66    68    1
    99    55    57   ar
   100    52    51    1
   101    58    60   ar
   102    90    91    2
   103    90    92   am
   104    57    59   ar
   105    60    59   ar
   106    60    61    1
   107    51    50    1
