@<TRIPOS>MOLECULE
tmp/5xu9A07.pdb
 143 135 0 0 0
SMALL
GASTEIGER

@<TRIPOS>ATOM
      1  N        -25.5380  -34.7860  -24.0690 N.3    25  HIS25      -0.1241
      2  CA       -25.0190  -36.0800  -24.4910 C.3    25  HIS25       0.1621
      3  C        -25.7890  -37.1770  -23.7790 C.2    25  HIS25       0.2264
      4  O        -25.5410  -37.4460  -22.5890 O.2    25  HIS25      -0.2867
      5  CB       -23.5330  -36.1770  -24.1710 C.3    25  HIS25       0.0745
      6  CG       -22.7210  -35.1310  -24.8280 C.ar   25  HIS25       0.0817
      7  ND1      -22.6360  -33.8350  -24.3570 N.ar   25  HIS25      -0.2268
      8  CD2      -21.8730  -35.2190  -25.8830 C.ar   25  HIS25       0.1154
      9  CE1      -21.8060  -33.1600  -25.1380 C.ar   25  HIS25       0.1986
     10  NE2      -21.3300  -33.9710  -26.0690 N.ar   25  HIS25      -0.2212
     11  N        -23.8460  -42.0120  -23.6880 N.3    28  ALA28      -0.1245
     12  CA       -23.0700  -42.6700  -22.6400 C.3    28  ALA28       0.1562
     13  C        -23.8280  -42.7340  -21.3280 C.2    28  ALA28       0.2260
     14  O        -23.7270  -43.7640  -20.6620 O.2    28  ALA28      -0.2867
     15  CB       -21.6940  -42.0100  -22.4880 C.3    28  ALA28       0.0290
     16  N        -15.0770  -39.2990  -18.8200 N.3    62  ASN62      -0.1240
     17  CA       -15.8640  -38.9610  -20.0160 C.3    62  ASN62       0.1653
     18  C        -16.9170  -37.9160  -19.6280 C.2    62  ASN62       0.2266
     19  O        -18.1140  -38.2030  -19.4900 O.2    62  ASN62      -0.2867
     20  CB       -16.4330  -40.2270  -20.6520 C.3    62  ASN62       0.1155
     21  CG       -17.1460  -41.1670  -19.6830 C.2    62  ASN62       0.2627
     22  OD1      -16.9780  -41.1400  -18.4520 O.2    62  ASN62      -0.2716
     23  ND2      -17.9360  -42.0490  -20.2700 N.am   62  ASN62      -0.0877
     24  N        -18.4440  -35.3930  -20.7830 N.3    64  HIS64      -0.1241
     25  CA       -19.6470  -35.0990  -21.5730 C.3    64  HIS64       0.1621
     26  C        -20.8420  -35.8980  -21.0880 C.2    64  HIS64       0.2264
     27  O        -21.9800  -35.4820  -21.3100 O.2    64  HIS64      -0.2867
     28  CB       -19.3980  -35.3490  -23.0690 C.3    64  HIS64       0.0745
     29  CG       -19.0350  -36.7510  -23.3940 C.ar   64  HIS64       0.0817
     30  ND1      -17.7390  -37.2290  -23.3010 N.ar   64  HIS64      -0.2268
     31  CD2      -19.7940  -37.7750  -23.8490 C.ar   64  HIS64       0.1154
     32  CE1      -17.7190  -38.4940  -23.7050 C.ar   64  HIS64       0.1986
     33  NE2      -18.9570  -38.8530  -24.0320 N.ar   64  HIS64      -0.2212
     34  N        -20.2760  -29.6120  -18.7200 N.3    98  HIS98      -0.1241
     35  CA       -19.2530  -30.5360  -18.2590 C.3    98  HIS98       0.1621
     36  C        -19.0430  -30.2610  -16.7790 C.2    98  HIS98       0.2264
     37  O        -19.2510  -29.1320  -16.3360 O.2    98  HIS98      -0.2867
     38  CB       -17.9510  -30.3610  -19.0660 C.3    98  HIS98       0.0745
     39  CG       -18.1320  -30.7670  -20.5020 C.ar   98  HIS98       0.0817
     40  ND1      -18.6000  -29.9030  -21.4800 N.ar   98  HIS98      -0.2268
     41  CD2      -18.0030  -31.9770  -21.1050 C.ar   98  HIS98       0.1154
     42  CE1      -18.7220  -30.5760  -22.6220 C.ar   98  HIS98       0.1986
     43  NE2      -18.3840  -31.8420  -22.4160 N.ar   98  HIS98      -0.2212
     44  N        -14.2390  -33.1190  -18.9560 N.3   112  GLY112     -0.1210
     45  CA       -14.7460  -32.5500  -20.2100 C.3   112  GLY112      0.1940
     46  C        -13.6500  -32.5670  -21.2750 C.2   112  GLY112      0.2454
     47  O        -13.8450  -33.0170  -22.3790 O.2   112  GLY112     -0.2732
     48  N        -12.4660  -32.0860  -20.9380 N.am  113  PRO113     -0.2717
     49  CA       -11.2980  -32.3210  -21.7970 C.3   113  PRO113      0.1535
     50  C        -10.8560  -33.7740  -21.6370 C.2   113  PRO113      0.2598
     51  O        -10.5110  -34.1950  -20.5290 O.2   113  PRO113     -0.2715
     52  CB       -10.2770  -31.2980  -21.2590 C.3   113  PRO113      0.0310
     53  CG       -11.1460  -30.2370  -20.5820 C.3   113  PRO113      0.0237
     54  CD       -12.1900  -31.0890  -19.9080 C.3   113  PRO113      0.0939
     55  N        -10.9290  -34.5630  -22.7150 N.am  114  LEU114     -0.1978
     56  CA       -10.8000  -35.9980  -22.5990 C.3   114  LEU114      0.1596
     57  C         -9.4120  -36.3920  -22.1210 C.2   114  LEU114      0.2287
     58  O         -8.3990  -35.7140  -22.3820 O.2   114  LEU114     -0.2864
     59  CB       -11.0910  -36.6610  -23.9570 C.3   114  LEU114      0.0297
     60  CG       -12.5790  -36.5380  -24.3210 C.3   114  LEU114      0.0022
     61  CD1      -12.7850  -36.7660  -25.8190 C.3   114  LEU114      0.0001
     62  CD2      -13.4040  -37.5750  -23.5770 C.3   114  LEU114      0.0001
     63  N        -14.1090  -43.3780  -21.3550 N.3   152  GLY152     -0.1210
     64  CA       -14.5170  -43.9230  -22.6380 C.3   152  GLY152      0.1956
     65  C        -13.3930  -44.0730  -23.6200 C.2   152  GLY152      0.2612
     66  O        -12.1980  -43.8980  -23.3050 O.2   152  GLY152     -0.2717
     67  N        -13.7870  -44.3730  -24.8490 N.am  153  ASP153     -0.1959
     68  CA       -12.7920  -44.5690  -25.9050 C.3   153  ASP153      0.1840
     69  C        -11.9650  -43.3090  -26.1230 C.2   153  ASP153      0.2622
     70  O        -10.7740  -43.4070  -26.4200 O.2   153  ASP153     -0.2715
     71  CB       -13.5230  -44.9450  -27.1930 C.3   153  ASP153      0.1450
     72  CG       -14.3300  -46.1910  -27.0580 C.2   153  ASP153      0.3671
     73  OD1      -13.7920  -47.2170  -26.5760 O.co2 153  ASP153     -0.2456
     74  OD2      -15.4950  -46.1600  -27.5310 O.co2 153  ASP153     -0.2456
     75  N        -12.5890  -42.1170  -26.0470 N.am  154  GLY154     -0.1954
     76  CA       -11.8440  -40.8710  -26.2230 C.3   154  GLY154      0.1869
     77  C        -10.7240  -40.7060  -25.2180 C.2   154  GLY154      0.2309
     78  O         -9.6190  -40.3070  -25.5760 O.2   154  GLY154     -0.2863
     79  N         -6.4300  -40.4920  -25.8890 N.3   158  GLU158     -0.1245
     80  CA        -5.5860  -39.3530  -25.5380 C.3   158  GLU158      0.1567
     81  C         -4.3100  -39.8290  -24.8800 C.2   158  GLU158      0.2260
     82  O         -4.3500  -40.5760  -23.9010 O.2   158  GLU158     -0.2867
     83  CB        -6.3590  -38.4310  -24.5800 C.3   158  GLU158      0.0388
     84  CG        -7.3870  -37.5780  -25.2710 C.3   158  GLU158      0.1160
     85  CD        -6.8060  -36.4500  -26.0750 C.2   158  GLU158      0.3649
     86  OE1       -5.5740  -36.3140  -26.1940 O.co2 158  GLU158     -0.2457
     87  OE2       -7.6210  -35.6830  -26.6500 O.co2 158  GLU158     -0.2457
     88  N        -15.9850  -47.7160  -20.7500 N.3   181  ASP181     -0.1239
     89  CA       -17.2410  -47.8240  -21.4730 C.3   181  ASP181      0.1674
     90  C        -16.9280  -48.3100  -22.8880 C.2   181  ASP181      0.2266
     91  O        -16.6700  -47.5230  -23.8100 O.2   181  ASP181     -0.2867
     92  CB       -17.9140  -46.4730  -21.4960 C.3   181  ASP181      0.1410
     93  CG       -19.2960  -46.5520  -22.0880 C.2   181  ASP181      0.3668
     94  OD1      -19.7510  -47.7030  -22.2560 O.co2 181  ASP181     -0.2456
     95  OD2      -19.9370  -45.5040  -22.2900 O.co2 181  ASP181     -0.2456
     96  N        -18.1050  -49.2390  -25.8610 N.3   183  ASN183     -0.1240
     97  CA       -19.2980  -49.1720  -26.6860 C.3   183  ASN183      0.1653
     98  C        -18.9860  -49.0190  -28.1580 C.2   183  ASN183      0.2266
     99  O        -19.9040  -48.9560  -28.9770 O.2   183  ASN183     -0.2867
    100  CB       -20.2350  -48.0490  -26.1980 C.3   183  ASN183      0.1155
    101  CG       -19.6110  -46.6510  -26.2720 C.2   183  ASN183      0.2627
    102  OD1      -18.6560  -46.4070  -27.0550 O.2   183  ASN183     -0.2716
    103  ND2      -20.2090  -45.7030  -25.5660 N.am  183  ASN183     -0.0877
    104  N        -18.1000  -46.7300  -30.1710 N.3   185  ILE185     -0.1231
    105  CA       -18.6350  -45.5710  -30.8720 C.3   185  ILE185      0.1692
    106  C        -17.9930  -44.3100  -30.3360 C.2   185  ILE185      0.2593
    107  O        -17.9760  -44.1020  -29.1260 O.2   185  ILE185     -0.2718
    108  CB       -20.1600  -45.4610  -30.7090 C.3   185  ILE185      0.0266
    109  CG1      -20.9020  -46.5860  -31.4230 C.3   185  ILE185      0.0019
    110  CG2      -20.6600  -44.0580  -31.1180 C.3   185  ILE185      0.0020
    111  CD1      -20.8590  -46.4940  -32.9510 C.3   185  ILE185      0.0001
    112  N        -17.4750  -43.4670  -31.2330 N.am  186  SER186     -0.1938
    113  CA       -17.0620  -42.1070  -30.8990 C.3   186  SER186      0.2055
    114  C        -17.7150  -41.1350  -31.8660 C.2   186  SER186      0.2642
    115  O        -18.6230  -41.5220  -32.6310 O.2   186  SER186     -0.2714
    116  CB       -15.5420  -41.9770  -30.8220 C.3   186  SER186      0.2130
    117  OG       -14.9670  -42.1160  -32.1240 O.3   186  SER186     -0.2179
    118  N        -17.2760  -39.8640  -31.9040 N.am  187  ILE187     -0.1977
    119  CA       -17.9910  -38.8830  -32.7250 C.3   187  ILE187      0.1596
    120  C        -17.8860  -39.2280  -34.1970 C.2   187  ILE187      0.2287
    121  O        -18.8580  -39.0530  -34.9530 O.2   187  ILE187     -0.2864
    122  CB       -17.5020  -37.4680  -32.4350 C.3   187  ILE187      0.0276
    123  CG1      -18.1220  -37.0090  -31.1130 C.3   187  ILE187      0.0022
    124  CG2      -17.8670  -36.4700  -33.5470 C.3   187  ILE187      0.0022
    125  CD1      -17.6440  -35.6500  -30.6850 C.3   187  ILE187      0.0001
    126  N        -24.0570  -47.9300  -26.6170 N.3   246  ILE246     -0.1245
    127  CA       -24.2600  -46.4970  -26.4310 C.3   246  ILE246      0.1561
    128  C        -25.7430  -46.1960  -26.6710 C.2   246  ILE246      0.2260
    129  O        -26.3690  -46.7160  -27.5910 O.2   246  ILE246     -0.2867
    130  CB       -23.3230  -45.6730  -27.3390 C.3   246  ILE246      0.0252
    131  CG1      -23.3060  -44.2110  -26.8520 C.3   246  ILE246      0.0019
    132  CG2      -23.7080  -45.7690  -28.8280 C.3   246  ILE246      0.0019
    133  CD1      -22.3790  -43.2870  -27.5950 C.3   246  ILE246      0.0001
    134  N        -24.5890  -40.1030  -29.4070 N.3   259  HIS259     -0.1241
    135  CA       -23.5070  -39.6580  -28.5350 C.3   259  HIS259      0.1621
    136  C        -23.7970  -38.2710  -27.9760 C.2   259  HIS259      0.2264
    137  O        -23.6120  -38.0290  -26.7890 O.2   259  HIS259     -0.2867
    138  CB       -22.1880  -39.6280  -29.3260 C.3   259  HIS259      0.0745
    139  CG       -21.1930  -38.6380  -28.7810 C.ar  259  HIS259      0.0817
    140  ND1      -20.4260  -38.8990  -27.6710 N.ar  259  HIS259     -0.2268
    141  CD2      -20.8890  -37.3640  -29.1520 C.ar  259  HIS259      0.1154
    142  CE1      -19.6860  -37.8400  -27.3960 C.ar  259  HIS259      0.1986
    143  NE2      -19.9480  -36.8960  -28.2780 N.ar  259  HIS259     -0.2212
@<TRIPOS>BOND
     1   121   120    2
     2   120   119    1
     3   124   122    1
     4   111   109    1
     5   119   122    1
     6   119   118    1
     7   115   114    2
     8   122   123    1
     9   117   116    1
    10   118   114   am
    11   114   113    1
    12   109   108    1
    13   112   113    1
    14   112   106   am
    15   110   108    1
    16   123   125    1
    17   113   116    1
    18   105   108    1
    19   105   106    1
    20   105   104    1
    21   106   107    2
    22   134   135    1
    23   138   139    1
    24   138   135    1
    25   141   139   ar
    26   141   143   ar
    27    99    98    2
    28   132   130    1
    29   139   140   ar
    30   135   136    1
    31   143   142   ar
    32    98    97    1
    33   136   137    2
    34   140   142   ar
    35   133   131    1
    36   129   128    2
    37    74    72   ar
    38   130   131    1
    39   130   127    1
    40    71    72    1
    41    71    68    1
    42    72    73   ar
    43   102   101    2
    44    97   100    1
    45    97    96    1
    46   128   127    1
    47    87    85   ar
    48   126   127    1
    49    70    69    2
    50   101   100    1
    51   101   103   am
    52    76    75    1
    53    76    77    1
    54    86    85   ar
    55    69    75   am
    56    69    68    1
    57    85    84    1
    58    10     8   ar
    59    10     9   ar
    60    68    67    1
    61    79    80    1
    62     8     6   ar
    63    61    60    1
    64    78    77    2
    65    80    81    1
    66    80    83    1
    67    84    83    1
    68     9     7   ar
    69    81    82    2
    70    67    65   am
    71     6     7   ar
    72     6     5    1
    73     2     5    1
    74     2     1    1
    75     2     3    1
    76    60    59    1
    77    60    62    1
    78    33    31   ar
    79    33    32   ar
    80    59    56    1
    81    31    29   ar
    82    91    90    2
    83     3     4    2
    84    32    30   ar
    85    11    12    1
    86    65    66    2
    87    65    64    1
    88    29    30   ar
    89    29    28    1
    90    28    25    1
    91    90    89    1
    92    55    56    1
    93    55    50   am
    94    12    15    1
    95    12    13    1
    96    64    63    1
    97    42    43   ar
    98    42    40   ar
    99    56    57    1
   100    43    41   ar
   101    58    57    2
   102    47    46    2
   103    95    93   ar
   104    94    93   ar
   105    93    92    1
   106    49    50    1
   107    49    52    1
   108    49    48    1
   109    50    51    2
   110    25    26    1
   111    25    24    1
   112    92    89    1
   113    40    39   ar
   114    89    88    1
   115    13    14    2
   116    27    26    2
   117    46    48   am
   118    46    45    1
   119    52    53    1
   120    41    39   ar
   121    48    54    1
   122    20    17    1
   123    20    21    1
   124    53    54    1
   125    39    38    1
   126    23    21   am
   127    45    44    1
   128    17    18    1
   129    17    16    1
   130    21    22    2
   131    18    19    2
   132    38    35    1
   133    34    35    1
   134    35    36    1
   135    36    37    2
