@<TRIPOS>MOLECULE
tmp/5xugA04.pdb
 81 76 0 0 0
SMALL
GASTEIGER

@<TRIPOS>ATOM
      1  N          2.6530   -0.3050    5.8390 N.3    48  LYS48      -0.1245
      2  CA         1.3930    0.1290    5.2620 C.3    48  LYS48       0.1561
      3  C          0.4440   -1.0500    5.1000 C.2    48  LYS48       0.2260
      4  O          0.8450   -2.2130    5.1620 O.2    48  LYS48      -0.2867
      5  CB         1.6230    0.8180    3.9170 C.3    48  LYS48       0.0271
      6  CG         2.1790    2.2150    4.0420 C.3    48  LYS48       0.0035
      7  CD         2.8710    2.6380    2.7720 C.3    48  LYS48       0.0206
      8  CE         4.3070    2.1940    2.7900 C.3    48  LYS48       0.1093
      9  NZ         5.1120    2.9140    3.8340 N.3    48  LYS48      -0.1314
     10  N         -4.2610   -1.3870    0.0600 N.3    51  ASP51      -0.1225
     11  CA        -3.6440   -1.1740   -1.2450 C.3    51  ASP51       0.1805
     12  C         -2.2580   -0.5390   -1.1550 C.2    51  ASP51       0.2598
     13  O         -1.5270   -0.5730   -2.1490 O.2    51  ASP51      -0.2718
     14  CB        -4.5580   -0.3130   -2.1290 C.3    51  ASP51       0.1424
     15  CG        -5.5200   -1.1500   -2.9760 C.2    51  ASP51       0.3668
     16  OD1       -5.4810   -2.3960   -2.8770 O.co2  51  ASP51      -0.2456
     17  OD2       -6.3160   -0.5620   -3.7450 O.co2  51  ASP51      -0.2456
     18  N         -1.8700    0.0130    0.0020 N.am   52  SER52      -0.1952
     19  CA        -0.5790    0.6870    0.1430 C.3    52  SER52       0.1924
     20  C          0.5630   -0.2530    0.5170 C.2    52  SER52       0.2314
     21  O          1.7310    0.1000    0.3140 O.2    52  SER52      -0.2863
     22  CB        -0.6710    1.7970    1.1980 C.3    52  SER52       0.2116
     23  OG        -1.4490    2.8790    0.7140 O.3    52  SER52      -0.2180
     24  N          3.5500   -2.8290    0.9190 N.3    54  ASN54      -0.1240
     25  CA         4.6780   -3.0820    0.0300 C.3    54  ASN54       0.1653
     26  C          5.2300   -4.4790    0.2700 C.2    54  ASN54       0.2266
     27  O          5.3770   -4.9090    1.4190 O.2    54  ASN54      -0.2867
     28  CB         5.8010   -2.0660    0.2480 C.3    54  ASN54       0.1155
     29  CG         5.3880   -0.6440   -0.1140 C.2    54  ASN54       0.2627
     30  OD1        6.1060    0.3060    0.1870 O.2    54  ASN54      -0.2716
     31  ND2        4.2370   -0.4950   -0.7570 N.am   54  ASN54      -0.0877
     32  N          9.4080   -3.5140   -3.4410 N.3    59  LYS59      -0.1245
     33  CA         8.3600   -2.8650   -2.6470 C.3    59  LYS59       0.1561
     34  C          7.1570   -2.5000   -3.5130 C.2    59  LYS59       0.2260
     35  O          6.6360   -1.3830   -3.4620 O.2    59  LYS59      -0.2867
     36  CB         8.8950   -1.6340   -1.9150 C.3    59  LYS59       0.0271
     37  CG         9.9080   -1.9550   -0.8510 C.3    59  LYS59       0.0035
     38  CD        10.2820   -0.7090   -0.0520 C.3    59  LYS59       0.0206
     39  CE        10.9690   -1.0990    1.2350 C.3    59  LYS59       0.1093
     40  NZ        11.0450    0.0690    2.1680 N.3    59  LYS59      -0.1314
     41  N          3.4400   -2.1750   -4.3820 N.3    61  ASN61      -0.1240
     42  CA         2.2680   -2.0140   -3.5330 C.3    61  ASN61       0.1653
     43  C          1.1500   -2.9670   -3.9430 C.2    61  ASN61       0.2266
     44  O          1.0670   -3.4050   -5.0950 O.2    61  ASN61      -0.2867
     45  CB         1.7670   -0.5820   -3.5610 C.3    61  ASN61       0.1155
     46  CG         1.3940   -0.1270   -4.9420 C.2    61  ASN61       0.2627
     47  OD1        0.3590   -0.5150   -5.4880 O.2    61  ASN61      -0.2716
     48  ND2        2.2220    0.7200   -5.5130 N.am   61  ASN61      -0.0877
     49  N          3.5120    2.4940   -9.2580 N.3   113  HIS113     -0.1226
     50  CA         4.4500    2.0400   -8.2320 C.3   113  HIS113      0.1752
     51  C          4.6600    3.1040   -7.1650 C.2   113  HIS113      0.2596
     52  O          4.6490    2.8040   -5.9660 O.2   113  HIS113     -0.2718
     53  CB         5.7770    1.6830   -8.8980 C.3   113  HIS113      0.0759
     54  CG         6.7750    1.0320   -7.9980 C.ar  113  HIS113      0.0818
     55  ND1        6.5150   -0.1360   -7.3190 N.ar  113  HIS113     -0.2268
     56  CD2        8.0460    1.3750   -7.6870 C.ar  113  HIS113      0.1154
     57  CE1        7.5760   -0.4790   -6.6130 C.ar  113  HIS113      0.1986
     58  NE2        8.5220    0.4190   -6.8230 N.ar  113  HIS113     -0.2212
     59  N          4.8270    4.3570   -7.5900 N.am  114  ARG114     -0.1966
     60  CA         5.1740    5.4500   -6.6920 C.3   114  ARG114      0.1729
     61  C          3.9620    6.0440   -5.9760 C.2   114  ARG114      0.2616
     62  O          4.0610    6.4040   -4.8010 O.2   114  ARG114     -0.2715
     63  CB         5.8860    6.5450   -7.4710 C.3   114  ARG114      0.0348
     64  CG         6.4560    7.6440   -6.6120 C.3   114  ARG114      0.0492
     65  CD         7.7650    7.2210   -5.9160 C.3   114  ARG114      0.2205
     66  NE         8.4720    8.4080   -5.4200 N.pl3 114  ARG114     -0.0865
     67  CZ         9.3310    8.4090   -4.4040 C.cat 114  ARG114      0.5346
     68  NH1        9.6010    7.2870   -3.7420 N.pl3 114  ARG114      0.1354
     69  NH2        9.9120    9.5440   -4.0430 N.pl3 114  ARG114      0.1354
     70  N          2.8270    6.1950   -6.6600 N.am  115  ASN115     -0.1958
     71  CA         1.6620    6.8380   -6.0720 C.3   115  ASN115      0.1819
     72  C          0.4290    5.9500   -6.0020 C.2   115  ASN115      0.2621
     73  O         -0.6240    6.4130   -5.5360 O.2   115  ASN115     -0.2715
     74  CB         1.3130    8.1060   -6.8510 C.3   115  ASN115      0.1195
     75  CG         2.1460    9.2670   -6.4370 C.2   115  ASN115      0.2630
     76  OD1        2.9240    9.1580   -5.5000 O.2   115  ASN115     -0.2716
     77  ND2        2.0150   10.3880   -7.1370 N.am  115  ASN115     -0.0877
     78  N          0.5150    4.7010   -6.4430 N.am  116  GLY116     -0.1954
     79  CA        -0.6800    3.8880   -6.3450 C.3   116  GLY116      0.1869
     80  C         -1.7000    4.3890   -7.3460 C.2   116  GLY116      0.2309
     81  O         -1.3920    5.1470   -8.2700 O.2   116  GLY116     -0.2863
@<TRIPOS>BOND
     1    49    50    1
     2    53    50    1
     3    53    54    1
     4    81    80    2
     5    50    51    1
     6    54    56   ar
     7    54    55   ar
     8    56    58   ar
     9    59    51   am
    10    59    60    1
    11    63    60    1
    12    63    64    1
    13    80    79    1
    14    55    57   ar
    15    51    52    2
    16    77    75   am
    17    74    75    1
    18    74    71    1
    19    58    57   ar
    20    60    61    1
    21    70    71    1
    22    70    61   am
    23    64    65    1
    24    78    79    1
    25    78    72   am
    26    75    76    2
    27    71    72    1
    28    72    73    2
    29    61    62    2
    30    65    66    1
    31    48    46   am
    32    47    46    2
    33    66    67    2
    34    44    43    2
    35    46    45    1
    36    67    69    1
    37    67    68    1
    38    41    42    1
    39    43    42    1
    40    17    15   ar
    41    45    42    1
    42    34    35    2
    43    34    33    1
    44    32    33    1
    45    15    16   ar
    46    15    14    1
    47    33    36    1
    48    13    12    2
    49    14    11    1
    50    36    37    1
    51    11    12    1
    52    11    10    1
    53    12    18   am
    54    37    38    1
    55    31    29   am
    56    29    30    2
    57    29    28    1
    58    38    39    1
    59    18    19    1
    60    25    28    1
    61    25    26    1
    62    25    24    1
    63    19    20    1
    64    19    22    1
    65    26    27    2
    66    21    20    2
    67    23    22    1
    68    39    40    1
    69     7     8    1
    70     7     6    1
    71     8     9    1
    72     5     6    1
    73     5     2    1
    74     3     4    2
    75     3     2    1
    76     2     1    1
