@<TRIPOS>MOLECULE
tmp/5xuhA00.pdb
 76 72 0 0 0
SMALL
GASTEIGER

@<TRIPOS>ATOM
      1  N        -22.3220    5.6340   -0.5240 N.3     5  LEU5       -0.1245
      2  CA       -23.0270    6.9050   -0.6060 C.3     5  LEU5        0.1561
      3  C        -24.2720    6.8260    0.2640 C.2     5  LEU5        0.2260
      4  O        -24.9890    5.8250    0.2340 O.2     5  LEU5       -0.2867
      5  CB       -23.4230    7.1920   -2.0620 C.3     5  LEU5        0.0270
      6  CG       -24.4370    8.3010   -2.3790 C.3     5  LEU5        0.0019
      7  CD1      -23.8810    9.6860   -2.0850 C.3     5  LEU5        0.0001
      8  CD2      -24.8910    8.2010   -3.8300 C.3     5  LEU5        0.0001
      9  N        -27.7090    8.8260    9.9590 N.3    57  GLU57      -0.1245
     10  CA       -28.4770    8.0080    9.0120 C.3    57  GLU57       0.1567
     11  C        -27.8000    7.9570    7.6390 C.2    57  GLU57       0.2260
     12  O        -27.7160    6.8940    7.0280 O.2    57  GLU57      -0.2867
     13  CB       -29.9300    8.5030    8.8930 C.3    57  GLU57       0.0388
     14  CG       -30.7750    8.2230   10.1300 C.3    57  GLU57       0.1160
     15  CD       -32.1210    8.9400   10.1450 C.2    57  GLU57       0.3649
     16  OE1      -32.5400    9.5160    9.1160 O.co2  57  GLU57      -0.2457
     17  OE2      -32.7710    8.9250   11.2060 O.co2  57  GLU57      -0.2457
     18  N        -24.6710    5.6340    8.0630 N.3    60  ALA60      -0.1231
     19  CA       -25.0580    4.2180    8.1060 C.3    60  ALA60       0.1694
     20  C        -25.4060    3.6620    6.7180 C.2    60  ALA60       0.2591
     21  O        -25.1280    2.4910    6.4190 O.2    60  ALA60      -0.2718
     22  CB       -26.2150    4.0130    9.0720 C.3    60  ALA60       0.0304
     23  N        -26.0200    4.5070    5.8870 N.am   61  LYS61      -0.1980
     24  CA       -26.3320    4.1690    4.4990 C.3    61  LYS61       0.1596
     25  C        -25.0820    4.1410    3.6140 C.2    61  LYS61       0.2287
     26  O        -24.9630    3.2840    2.7360 O.2    61  LYS61      -0.2864
     27  CB       -27.3550    5.1520    3.9170 C.3    61  LYS61       0.0298
     28  CG       -28.7820    4.9730    4.4190 C.3    61  LYS61       0.0038
     29  CD       -29.6610    6.1270    3.9460 C.3    61  LYS61       0.0206
     30  CE       -31.0540    6.0740    4.5580 C.3    61  LYS61       0.1093
     31  NZ       -31.9060    7.2150    4.1170 N.3    61  LYS61      -0.1314
     32  N        -23.3030    1.0710    3.7290 N.3    64  GLY64      -0.1210
     33  CA       -24.0100    0.0330    2.9640 C.3    64  GLY64       0.1956
     34  C        -24.6910   -1.0320    3.8060 C.2    64  GLY64       0.2613
     35  O        -25.2210   -2.0100    3.2770 O.2    64  GLY64      -0.2717
     36  N        -24.7050   -0.8220    5.1180 N.am   65  THR65      -0.1938
     37  CA       -25.1650   -1.8240    6.0700 C.3    65  THR65       0.2028
     38  C        -26.4310   -1.4050    6.8170 C.2    65  THR65       0.2643
     39  O        -27.2390   -2.2510    7.2040 O.2    65  THR65      -0.2714
     40  CB       -24.0860   -2.0760    7.1390 C.3    65  THR65       0.1808
     41  OG1      -23.7100   -0.8190    7.7180 O.3    65  THR65      -0.2208
     42  CG2      -22.8570   -2.7460    6.5250 C.3    65  THR65       0.0379
     43  N        -26.5930   -0.1000    7.0280 N.am   66  GLY66      -0.1939
     44  CA       -27.5610    0.3990    8.0000 C.3    66  GLY66       0.2014
     45  C        -27.0990    0.0190    9.3990 C.2    66  GLY66       0.2639
     46  O        -25.9070   -0.2240    9.6190 O.2    66  GLY66      -0.2714
     47  N        -28.0360   -0.0400   10.3410 N.am   67  ILE67      -0.1963
     48  CA       -27.7210   -0.4110   11.7240 C.3    67  ILE67       0.1727
     49  C        -27.8970   -1.9170   11.9290 C.2    67  ILE67       0.2616
     50  O        -29.0110   -2.4110   12.0970 O.2    67  ILE67      -0.2715
     51  CB       -28.5450    0.4130   12.7470 C.3    67  ILE67       0.0290
     52  CG1      -28.2240    1.9090   12.6200 C.3    67  ILE67       0.0022
     53  CG2      -28.3210   -0.0790   14.1780 C.3    67  ILE67       0.0023
     54  CD1      -26.7500    2.2740   12.6910 C.3    67  ILE67       0.0001
     55  N        -26.7790   -2.6330   11.8910 N.am   68  ARG68      -0.1977
     56  CA       -26.7630   -4.0860   12.0370 C.3    68  ARG68       0.1597
     57  C        -25.3500   -4.4960   12.4440 C.2    68  ARG68       0.2287
     58  O        -24.4250   -3.6800   12.3780 O.2    68  ARG68      -0.2864
     59  CB       -27.1830   -4.7700   10.7200 C.3    68  ARG68       0.0334
     60  CG       -26.0740   -4.8560    9.6770 C.3    68  ARG68       0.0492
     61  CD       -26.5300   -5.1890    8.2590 C.3    68  ARG68       0.2205
     62  NE       -27.7760   -5.9520    8.1570 N.pl3  68  ARG68      -0.0865
     63  CZ       -28.8240   -5.5700    7.4290 C.cat  68  ARG68       0.5346
     64  NH1      -28.7820   -4.4400    6.7360 N.pl3  68  ARG68       0.1354
     65  NH2      -29.9140   -6.3190    7.3830 N.pl3  68  ARG68       0.1354
     66  N        -25.7040    4.1470   15.8820 N.3    73  PHE73      -0.1241
     67  CA       -25.6270    5.5640   15.5260 C.3    73  PHE73       0.1605
     68  C        -24.6320    6.3370   16.3980 C.2    73  PHE73       0.2264
     69  O        -24.0320    7.3060   15.9360 O.2    73  PHE73      -0.2867
     70  CB       -27.0130    6.2230   15.5780 C.3    73  PHE73       0.0534
     71  CG       -27.9360    5.8070   14.4580 C.ar   73  PHE73      -0.0203
     72  CD1      -27.5320    5.8910   13.1290 C.ar   73  PHE73      -0.0042
     73  CD2      -29.2260    5.3580   14.7340 C.ar   73  PHE73      -0.0042
     74  CE1      -28.3860    5.5200   12.0970 C.ar   73  PHE73      -0.0003
     75  CE2      -30.0870    4.9860   13.7090 C.ar   73  PHE73      -0.0003
     76  CZ       -29.6660    5.0690   12.3860 C.ar   73  PHE73      -0.0000
@<TRIPOS>BOND
     1     8     6    1
     2     6     7    1
     3     6     5    1
     4     5     2    1
     5     2     1    1
     6     2     3    1
     7     4     3    2
     8    26    25    2
     9    33    32    1
    10    33    34    1
    11    35    34    2
    12    25    24    1
    13    34    36   am
    14    27    28    1
    15    27    24    1
    16    29    28    1
    17    29    30    1
    18    31    30    1
    19    24    23    1
    20    36    37    1
    21    23    20   am
    22    37    38    1
    23    37    40    1
    24    21    20    2
    25    42    40    1
    26    20    19    1
    27    64    63    1
    28    38    43   am
    29    38    39    2
    30    43    44    1
    31    12    11    2
    32    40    41    1
    33    65    63    1
    34    63    62    2
    35    11    10    1
    36    44    45    1
    37    18    19    1
    38    19    22    1
    39    62    61    1
    40    61    60    1
    41    13    10    1
    42    13    14    1
    43    10     9    1
    44    16    15   ar
    45    45    46    2
    46    45    47   am
    47    60    59    1
    48    14    15    1
    49    15    17   ar
    50    47    48    1
    51    59    56    1
    52    48    49    1
    53    48    51    1
    54    55    49   am
    55    55    56    1
    56    49    50    2
    57    56    57    1
    58    74    76   ar
    59    74    72   ar
    60    58    57    2
    61    76    75   ar
    62    52    54    1
    63    52    51    1
    64    51    53    1
    65    72    71   ar
    66    75    73   ar
    67    71    73   ar
    68    71    70    1
    69    67    70    1
    70    67    66    1
    71    67    68    1
    72    69    68    2
