@<TRIPOS>MOLECULE
tmp/5xuhC00.pdb
 76 72 0 0 0
SMALL
GASTEIGER

@<TRIPOS>ATOM
      1  N        -23.7330   13.0950  -11.6380 N.3     5  LEU5       -0.1245
      2  CA       -24.3410   13.2580  -10.3240 C.3     5  LEU5        0.1561
      3  C        -25.7640   13.7540  -10.5150 C.2     5  LEU5        0.2260
      4  O        -26.0160   14.6420  -11.3310 O.2     5  LEU5       -0.2867
      5  CB       -23.5300   14.2610   -9.4890 C.3     5  LEU5        0.0270
      6  CG       -24.1350   14.8770   -8.2210 C.3     5  LEU5        0.0019
      7  CD1      -24.2630   13.8500   -7.1050 C.3     5  LEU5        0.0001
      8  CD2      -23.3090   16.0710   -7.7580 C.3     5  LEU5        0.0001
      9  N        -35.5190    9.7840  -11.3930 N.3    57  GLU57      -0.1245
     10  CA       -35.2360   11.1840  -11.7190 C.3    57  GLU57       0.1567
     11  C        -33.7720   11.5470  -11.4590 C.2    57  GLU57       0.2260
     12  O        -33.1380   12.2070  -12.2840 O.2    57  GLU57      -0.2867
     13  CB       -36.1710   12.1270  -10.9500 C.3    57  GLU57       0.0388
     14  CG       -36.0210   13.5960  -11.3310 C.3    57  GLU57       0.1160
     15  CD       -36.8480   14.5260  -10.4570 C.2    57  GLU57       0.3649
     16  OE1      -36.3900   15.6600  -10.2080 O.co2  57  GLU57      -0.2457
     17  OE2      -37.9470   14.1280  -10.0140 O.co2  57  GLU57      -0.2457
     18  N        -31.4960    9.8010  -14.1550 N.3    60  ALA60      -0.1231
     19  CA       -31.5650   10.5060  -15.4360 C.3    60  ALA60       0.1694
     20  C        -30.6980   11.7640  -15.4300 C.2    60  ALA60       0.2591
     21  O        -30.0620   12.0960  -16.4370 O.2    60  ALA60      -0.2718
     22  CB       -33.0100   10.8520  -15.7700 C.3    60  ALA60       0.0304
     23  N        -30.6700   12.4500  -14.2870 N.am   61  LYS61      -0.1980
     24  CA       -29.8110   13.6170  -14.1030 C.3    61  LYS61       0.1596
     25  C        -28.3380   13.2220  -14.0340 C.2    61  LYS61       0.2287
     26  O        -27.4860   13.9060  -14.5950 O.2    61  LYS61      -0.2864
     27  CB       -30.2040   14.3950  -12.8460 C.3    61  LYS61       0.0298
     28  CG       -31.5550   15.0830  -12.9390 C.3    61  LYS61       0.0038
     29  CD       -31.8110   15.9190  -11.6960 C.3    61  LYS61       0.0206
     30  CE       -33.1960   16.5370  -11.7260 C.3    61  LYS61       0.1093
     31  NZ       -33.4870   17.2570  -10.4550 N.3    61  LYS61      -0.1314
     32  N        -26.6230   12.8300  -17.1400 N.3    64  GLY64      -0.1210
     33  CA       -26.3790   14.1320  -17.7620 C.3    64  GLY64       0.1956
     34  C        -27.2810   14.4500  -18.9370 C.2    64  GLY64       0.2613
     35  O        -27.0690   15.4340  -19.6430 O.2    64  GLY64      -0.2717
     36  N        -28.3030   13.6250  -19.1310 N.am   65  THR65      -0.1938
     37  CA       -29.1430   13.7090  -20.3160 C.3    65  THR65       0.2028
     38  C        -30.5810   14.0580  -19.9720 C.2    65  THR65       0.2643
     39  O        -31.2930   14.6410  -20.7870 O.2    65  THR65      -0.2714
     40  CB       -29.1630   12.3650  -21.0650 C.3    65  THR65       0.1808
     41  OG1      -29.5360   11.3260  -20.1520 O.3    65  THR65      -0.2208
     42  CG2      -27.7920   12.0530  -21.6630 C.3    65  THR65       0.0379
     43  N        -31.0010   13.7050  -18.7610 N.am   66  GLY66      -0.1939
     44  CA       -32.4200   13.6700  -18.4370 C.3    66  GLY66       0.2014
     45  C        -33.0750   12.6130  -19.3090 C.2    66  GLY66       0.2639
     46  O        -32.4020   11.7030  -19.8000 O.2    66  GLY66      -0.2714
     47  N        -34.3810   12.7300  -19.5170 N.am   67  ILE67      -0.1963
     48  CA       -35.0900   11.7950  -20.3870 C.3    67  ILE67       0.1727
     49  C        -35.1460   12.3250  -21.8260 C.2    67  ILE67       0.2616
     50  O        -35.8190   13.3180  -22.1130 O.2    67  ILE67      -0.2715
     51  CB       -36.4950   11.4400  -19.8350 C.3    67  ILE67       0.0290
     52  CG1      -36.3900   10.8340  -18.4230 C.3    67  ILE67       0.0022
     53  CG2      -37.2490   10.5140  -20.7880 C.3    67  ILE67       0.0023
     54  CD1      -35.5020    9.6070  -18.3040 C.3    67  ILE67       0.0001
     55  N        -34.4120   11.6520  -22.7110 N.am   68  ARG68      -0.1977
     56  CA       -34.3030   12.0230  -24.1260 C.3    68  ARG68       0.1597
     57  C        -33.7410   10.8540  -24.9310 C.2    68  ARG68       0.2287
     58  O        -33.3250    9.8470  -24.3570 O.2    68  ARG68      -0.2864
     59  CB       -33.3960   13.2480  -24.2990 C.3    68  ARG68       0.0334
     60  CG       -31.9450   13.0210  -23.8860 C.3    68  ARG68       0.0492
     61  CD       -31.0270   14.1500  -24.3300 C.3    68  ARG68       0.2205
     62  NE       -31.2930   15.4050  -23.6260 N.pl3  68  ARG68      -0.0865
     63  CZ       -31.9330   16.4480  -24.1520 C.cat  68  ARG68       0.5346
     64  NH1      -32.3820   16.4040  -25.4000 N.pl3  68  ARG68       0.1354
     65  NH2      -32.1200   17.5430  -23.4270 N.pl3  68  ARG68       0.1354
     66  N        -38.0620    6.2640  -17.8020 N.3    73  PHE73      -0.1241
     67  CA       -37.9930    5.9250  -16.3790 C.3    73  PHE73       0.1605
     68  C        -37.9940    4.4140  -16.1210 C.2    73  PHE73       0.2264
     69  O        -37.3050    3.9440  -15.2150 O.2    73  PHE73      -0.2867
     70  CB       -39.1410    6.5990  -15.6120 C.3    73  PHE73       0.0534
     71  CG       -38.7870    7.9400  -15.0080 C.ar   73  PHE73      -0.0203
     72  CD1      -37.8340    8.7730  -15.5940 C.ar   73  PHE73      -0.0042
     73  CD2      -39.4370    8.3840  -13.8590 C.ar   73  PHE73      -0.0042
     74  CE1      -37.5240   10.0060  -15.0330 C.ar   73  PHE73      -0.0003
     75  CE2      -39.1330    9.6170  -13.2940 C.ar   73  PHE73      -0.0003
     76  CZ       -38.1760   10.4300  -13.8820 C.ar   73  PHE73      -0.0000
@<TRIPOS>BOND
     1    64    63    1
     2    57    58    2
     3    57    56    1
     4    61    60    1
     5    61    62    1
     6    59    56    1
     7    59    60    1
     8    63    62    2
     9    63    65    1
    10    56    55    1
    11    55    49   am
    12    50    49    2
    13    49    48    1
    14    42    40    1
    15    40    37    1
    16    40    41    1
    17    53    51    1
    18    39    38    2
    19    48    51    1
    20    48    47    1
    21    37    38    1
    22    37    36    1
    23    38    43   am
    24    51    52    1
    25    46    45    2
    26    35    34    2
    27    47    45   am
    28    45    44    1
    29    36    34   am
    30    34    33    1
    31    43    44    1
    32    52    54    1
    33    66    67    1
    34    33    32    1
    35    21    20    2
    36    67    68    1
    37    67    70    1
    38    68    69    2
    39    22    19    1
    40    70    71    1
    41    72    74   ar
    42    72    71   ar
    43    19    20    1
    44    19    18    1
    45    20    23   am
    46    74    76   ar
    47    71    73   ar
    48    26    25    2
    49    23    24    1
    50    24    25    1
    51    24    27    1
    52    76    75   ar
    53    73    75   ar
    54    28    27    1
    55    28    29    1
    56    12    11    2
    57    30    29    1
    58    30    31    1
    59    10    11    1
    60    10     9    1
    61    10    13    1
    62     1     2    1
    63    14    13    1
    64    14    15    1
    65     4     3    2
    66     3     2    1
    67    15    16   ar
    68    15    17   ar
    69     2     5    1
    70     5     6    1
    71     6     8    1
    72     6     7    1
