@<TRIPOS>MOLECULE
tmp/5xuhC01.pdb
 112 109 0 0 0
SMALL
GASTEIGER

@<TRIPOS>ATOM
      1  N        -46.7620   -4.5580   -2.3580 N.3    42  HIS42      -0.1241
      2  CA       -46.0720   -3.7240   -1.3660 C.3    42  HIS42       0.1621
      3  C        -46.9980   -3.2740   -0.2610 C.2    42  HIS42       0.2264
      4  O        -48.1840   -3.0320   -0.4940 O.2    42  HIS42      -0.2867
      5  CB       -45.4390   -2.5170   -2.0530 C.3    42  HIS42       0.0745
      6  CG       -44.3380   -1.8580   -1.2550 C.ar   42  HIS42       0.0817
      7  ND1      -44.5850   -0.9470   -0.3000 N.ar   42  HIS42      -0.2268
      8  CD2      -42.9520   -1.9950   -1.3180 C.ar   42  HIS42       0.1154
      9  CE1      -43.4230   -0.5260    0.2330 C.ar   42  HIS42       0.1986
     10  NE2      -42.4240   -1.1670   -0.3910 N.ar   42  HIS42      -0.2212
     11  N        -43.5370    3.4860   -1.8940 N.3    48  PHE48      -0.1241
     12  CA       -42.6390    2.7560   -2.7890 C.3    48  PHE48       0.1605
     13  C        -42.5040    3.4780   -4.1320 C.2    48  PHE48       0.2264
     14  O        -41.3950    3.7050   -4.6080 O.2    48  PHE48      -0.2867
     15  CB       -43.1340    1.3210   -3.0060 C.3    48  PHE48       0.0534
     16  CG       -42.3210    0.5420   -4.0050 C.ar   48  PHE48      -0.0203
     17  CD1      -41.1240   -0.0630   -3.6290 C.ar   48  PHE48      -0.0042
     18  CD2      -42.7530    0.4080   -5.3230 C.ar   48  PHE48      -0.0042
     19  CE1      -40.3730   -0.7830   -4.5480 C.ar   48  PHE48      -0.0003
     20  CE2      -42.0050   -0.3120   -6.2470 C.ar   48  PHE48      -0.0003
     21  CZ       -40.8120   -0.9050   -5.8590 C.ar   48  PHE48      -0.0000
     22  N        -40.5830    6.8320   -3.8790 N.3    51  LYS51      -0.1231
     23  CA       -39.1520    6.5670   -3.7400 C.3    51  LYS51       0.1693
     24  C        -38.5010    6.1340   -5.0580 C.2    51  LYS51       0.2591
     25  O        -37.4260    6.6240   -5.4090 O.2    51  LYS51      -0.2718
     26  CB       -38.8980    5.5260   -2.6460 C.3    51  LYS51       0.0285
     27  CG       -39.0500    6.0800   -1.2330 C.3    51  LYS51       0.0035
     28  CD       -38.5930    5.0820   -0.1790 C.3    51  LYS51       0.0206
     29  CE       -39.6820    4.0870    0.1930 C.3    51  LYS51       0.1093
     30  NZ       -39.2090    3.1940    1.2910 N.3    51  LYS51      -0.1314
     31  N        -39.1530    5.2230   -5.7830 N.am   52  ARG52      -0.1980
     32  CA       -38.6200    4.7630   -7.0680 C.3    52  ARG52       0.1597
     33  C        -38.6030    5.8950   -8.0920 C.2    52  ARG52       0.2287
     34  O        -37.6450    6.0220   -8.8450 O.2    52  ARG52      -0.2864
     35  CB       -39.3710    3.5250   -7.5870 C.3    52  ARG52       0.0334
     36  CG       -38.7860    2.2010   -7.0920 C.3    52  ARG52       0.0492
     37  CD       -38.7200    2.1670   -5.5710 C.3    52  ARG52       0.2205
     38  NE       -37.7940    1.1710   -5.0340 N.pl3  52  ARG52      -0.0865
     39  CZ       -37.4220    1.1250   -3.7560 C.cat  52  ARG52       0.5346
     40  NH1      -37.8910    2.0220   -2.8920 N.pl3  52  ARG52       0.1354
     41  NH2      -36.5840    0.1850   -3.3370 N.pl3  52  ARG52       0.1354
     42  N        -32.8450   -3.7930   -4.4150 N.3    80  ASN80      -0.1240
     43  CA       -32.1170   -3.7170   -3.1530 C.3    80  ASN80       0.1653
     44  C        -31.2910   -4.9720   -2.9470 C.2    80  ASN80       0.2266
     45  O        -31.7690   -6.0780   -3.2050 O.2    80  ASN80      -0.2867
     46  CB       -33.0730   -3.5150   -1.9710 C.3    80  ASN80       0.1155
     47  CG       -33.8750   -2.2280   -2.0750 C.2    80  ASN80       0.2627
     48  OD1      -34.8070   -2.1290   -2.8680 O.2    80  ASN80      -0.2716
     49  ND2      -33.5270   -1.2450   -1.2590 N.am   80  ASN80      -0.0877
     50  N        -28.6190   -6.5620    2.0950 N.3    83  LEU83      -0.1231
     51  CA       -28.5630   -5.7240    3.2930 C.3    83  LEU83       0.1693
     52  C        -29.5670   -4.5680    3.2610 C.2    83  LEU83       0.2593
     53  O        -29.7350   -3.8610    4.2570 O.2    83  LEU83      -0.2718
     54  CB       -27.1370   -5.2030    3.5310 C.3    83  LEU83       0.0284
     55  CG       -26.0300   -6.2430    3.7440 C.3    83  LEU83       0.0019
     56  CD1      -24.7070   -5.5590    4.0600 C.3    83  LEU83       0.0001
     57  CD2      -26.3950   -7.2310    4.8440 C.3    83  LEU83       0.0001
     58  N        -30.2340   -4.3890    2.1210 N.am   84  GLY84      -0.1942
     59  CA       -31.2640   -3.3560    1.9680 C.3    84  GLY84       0.2014
     60  C        -30.8160   -2.1360    1.1770 C.2    84  GLY84       0.2639
     61  O        -31.6090   -1.2360    0.9090 O.2    84  GLY84      -0.2714
     62  N        -29.5400   -2.1050    0.8030 N.am   85  LYS85      -0.1963
     63  CA       -28.9740   -0.9870    0.0480 C.3    85  LYS85       0.1713
     64  C        -29.5750   -0.9000   -1.3610 C.2    85  LYS85       0.2458
     65  O        -29.6290   -1.9110   -2.0650 O.2    85  LYS85      -0.2730
     66  CB       -27.4550   -1.1470   -0.0250 C.3    85  LYS85       0.0311
     67  CG       -26.7220   -0.0960   -0.8410 C.3    85  LYS85       0.0038
     68  CD       -25.2340   -0.3720   -0.7840 C.3    85  LYS85       0.0206
     69  CE       -24.5290    0.0810   -2.0450 C.3    85  LYS85       0.1093
     70  NZ       -23.2410   -0.6530   -2.1840 N.3    85  LYS85      -0.1314
     71  N        -30.0230    0.3070   -1.7780 N.am   86  PRO86      -0.2727
     72  CA       -30.5890    0.4310   -3.1220 C.3    86  PRO86       0.1402
     73  C        -29.5150    0.3860   -4.2080 C.2    86  PRO86       0.2269
     74  O        -28.3910    0.8450   -3.9950 O.2    86  PRO86      -0.2865
     75  CB       -31.2770    1.8020   -3.0960 C.3    86  PRO86       0.0296
     76  CG       -30.5070    2.5850   -2.0830 C.3    86  PRO86       0.0237
     77  CD       -30.0400    1.5930   -1.0490 C.3    86  PRO86       0.0939
     78  N        -26.2890    4.5900   -5.4420 N.3   108  VAL108     -0.1231
     79  CA       -27.6510    5.0550   -5.2050 C.3   108  VAL108      0.1692
     80  C        -27.8880    5.1770   -3.7060 C.2   108  VAL108      0.2593
     81  O        -27.5100    4.2920   -2.9370 O.2   108  VAL108     -0.2718
     82  CB       -28.6830    4.0650   -5.7880 C.3   108  VAL108      0.0266
     83  CG1      -30.1130    4.5390   -5.5430 C.3   108  VAL108      0.0020
     84  CG2      -28.4400    3.8470   -7.2750 C.3   108  VAL108      0.0020
     85  N        -28.5010    6.2830   -3.2990 N.am  109  THR109     -0.1939
     86  CA       -29.0630    6.3890   -1.9610 C.3   109  THR109      0.2028
     87  C        -30.4790    6.9740   -1.9990 C.2   109  THR109      0.2642
     88  O        -30.7920    7.8220   -2.8360 O.2   109  THR109     -0.2714
     89  CB       -28.1410    7.1540   -0.9860 C.3   109  THR109      0.1808
     90  OG1      -28.7030    7.1150    0.3310 O.3   109  THR109     -0.2208
     91  CG2      -27.9290    8.6040   -1.4260 C.3   109  THR109      0.0379
     92  N        -31.3220    6.4620   -1.1080 N.am  110  LEU110     -0.1963
     93  CA       -32.7080    6.8710   -0.9550 C.3   110  LEU110      0.1728
     94  C        -32.9440    7.2900    0.4770 C.2   110  LEU110      0.2616
     95  O        -32.4140    6.6840    1.4050 O.2   110  LEU110     -0.2715
     96  CB       -33.6500    5.6990   -1.2500 C.3   110  LEU110      0.0311
     97  CG       -34.4130    5.6610   -2.5630 C.3   110  LEU110      0.0022
     98  CD1      -35.0920    4.3050   -2.7040 C.3   110  LEU110      0.0001
     99  CD2      -35.4250    6.8030   -2.6480 C.3   110  LEU110      0.0001
    100  N        -33.7570    8.3220    0.6490 N.am  111  ALA111     -0.1963
    101  CA       -34.1620    8.7720    1.9650 C.3   111  ALA111      0.1728
    102  C        -35.6140    9.1930    1.8880 C.2   111  ALA111      0.2616
    103  O        -36.1070    9.5760    0.8180 O.2   111  ALA111     -0.2715
    104  CB       -33.2930    9.9350    2.4200 C.3   111  ALA111      0.0334
    105  N        -36.3110    9.1020    3.0140 N.am  112  ASP112     -0.1971
    106  CA       -37.6740    9.5970    3.0720 C.3   112  ASP112      0.1709
    107  C        -38.0400   10.1660    4.4330 C.2   112  ASP112      0.2293
    108  O        -37.4490    9.8250    5.4590 O.2   112  ASP112     -0.2864
    109  CB       -38.6830    8.5250    2.6260 C.3   112  ASP112      0.1436
    110  CG       -38.7400    7.3360    3.5670 C.2   112  ASP112      0.3671
    111  OD1      -37.6860    6.7250    3.8430 O.co2 112  ASP112     -0.2456
    112  OD2      -39.8540    6.9990    4.0130 O.co2 112  ASP112     -0.2456
@<TRIPOS>BOND
     1    34    33    2
     2    33    32    1
     3    35    36    1
     4    35    32    1
     5    84    82    1
     6    36    37    1
     7    32    31    1
     8    20    21   ar
     9    20    18   ar
    10    21    19   ar
    11    82    83    1
    12    82    79    1
    13    31    24   am
    14    37    38    1
    15    78    79    1
    16    25    24    2
    17    18    16   ar
    18    79    80    1
    19    24    23    1
    20    38    39    2
    21    14    13    2
    22    19    17   ar
    23    42    43    1
    24    73    74    2
    25    73    72    1
    26    13    12    1
    27    16    17   ar
    28    16    15    1
    29    22    23    1
    30    39    41    1
    31    39    40    1
    32    23    26    1
    33    80    85   am
    34    80    81    2
    35    85    86    1
    36    45    44    2
    37    43    44    1
    38    43    46    1
    39    72    75    1
    40    72    71    1
    41    75    76    1
    42    15    12    1
    43    48    47    2
    44    88    87    2
    45    12    11    1
    46    98    97    1
    47    99    97    1
    48    26    27    1
    49    97    96    1
    50     1     2    1
    51    70    69    1
    52    76    77    1
    53    47    46    1
    54    47    49   am
    55    65    64    2
    56     5     2    1
    57     5     6    1
    58    69    68    1
    59    87    86    1
    60    87    92   am
    61    86    89    1
    62    71    64   am
    63    71    77    1
    64    91    89    1
    65     2     3    1
    66    64    63    1
    67     8     6   ar
    68     8    10   ar
    69     6     7   ar
    70    96    93    1
    71    27    28    1
    72    92    93    1
    73    89    90    1
    74    93    94    1
    75    67    68    1
    76    67    66    1
    77     4     3    2
    78    10     9   ar
    79     7     9   ar
    80    28    29    1
    81    66    63    1
    82    63    62    1
    83    29    30    1
    84    94   100   am
    85    94    95    2
    86   100   101    1
    87    62    60   am
    88   103   102    2
    89    61    60    2
    90    60    59    1
    91   102   101    1
    92   102   105   am
    93   101   104    1
    94    59    58    1
    95    50    51    1
    96    58    52   am
    97   109   106    1
    98   109   110    1
    99   105   106    1
   100   106   107    1
   101    52    51    1
   102    52    53    2
   103    51    54    1
   104    54    55    1
   105   110   111   ar
   106   110   112   ar
   107    55    56    1
   108    55    57    1
   109   107   108    2
