@<TRIPOS>MOLECULE
tmp/5xuhB00.pdb
 105 102 0 0 0
SMALL
GASTEIGER

@<TRIPOS>ATOM
      1  N        -36.6080   35.8760  -16.5920 N.3    42  HIS42      -0.1241
      2  CA       -37.1730   34.5910  -16.1780 C.3    42  HIS42       0.1621
      3  C        -38.6370   34.7080  -15.8460 C.2    42  HIS42       0.2264
      4  O        -39.0700   35.7000  -15.2550 O.2    42  HIS42      -0.2867
      5  CB       -36.4090   34.0340  -14.9790 C.3    42  HIS42       0.0745
      6  CG       -36.4440   32.5290  -14.8820 C.ar   42  HIS42       0.0817
      7  ND1      -37.5250   31.8570  -14.4530 N.ar   42  HIS42      -0.2268
      8  CD2      -35.4770   31.5690  -15.1790 C.ar   42  HIS42       0.1154
      9  CE1      -37.2710   30.5340  -14.4730 C.ar   42  HIS42       0.1986
     10  NE2      -36.0160   30.3590  -14.9180 N.ar   42  HIS42      -0.2212
     11  N        -35.9620   30.5900   -9.6990 N.3    48  PHE48      -0.1241
     12  CA       -34.6340   30.5670  -10.3040 C.3    48  PHE48       0.1605
     13  C        -33.5870   30.9620   -9.2610 C.2    48  PHE48       0.2264
     14  O        -32.5770   30.2710   -9.0960 O.2    48  PHE48      -0.2867
     15  CB       -34.5810   31.4910  -11.5320 C.3    48  PHE48       0.0534
     16  CG       -33.2000   31.6760  -12.1020 C.ar   48  PHE48      -0.0203
     17  CD1      -32.6500   30.7260  -12.9590 C.ar   48  PHE48      -0.0042
     18  CD2      -32.4480   32.8040  -11.7830 C.ar   48  PHE48      -0.0042
     19  CE1      -31.3760   30.8950  -13.4830 C.ar   48  PHE48      -0.0003
     20  CE2      -31.1710   32.9770  -12.3020 C.ar   48  PHE48      -0.0003
     21  CZ       -30.6350   32.0220  -13.1500 C.ar   48  PHE48      -0.0000
     22  N        -33.0600   28.2450   -6.5120 N.3    51  LYS51      -0.1231
     23  CA       -32.2500   27.1500   -7.0490 C.3    51  LYS51       0.1693
     24  C        -30.7690   27.5180   -7.1670 C.2    51  LYS51       0.2591
     25  O        -29.9000   26.7040   -6.8500 O.2    51  LYS51      -0.2718
     26  CB       -32.8070   26.6860   -8.3990 C.3    51  LYS51       0.0285
     27  CG       -34.1210   25.9250   -8.2820 C.3    51  LYS51       0.0035
     28  CD       -35.0050   26.1080   -9.5070 C.3    51  LYS51       0.0206
     29  CE       -34.7670   25.0340  -10.5510 C.3    51  LYS51       0.1093
     30  NZ       -35.7610   25.1110  -11.6570 N.3    51  LYS51      -0.1314
     31  N        -30.4820   28.7380   -7.6170 N.am   52  ARG52      -0.1980
     32  CA       -29.0940   29.1850   -7.7380 C.3    52  ARG52       0.1597
     33  C        -28.4540   29.4150   -6.3770 C.2    52  ARG52       0.2287
     34  O        -27.2820   29.0940   -6.1840 O.2    52  ARG52      -0.2864
     35  CB       -28.9660   30.4280   -8.6320 C.3    52  ARG52       0.0334
     36  CG       -28.7190   30.1050  -10.1020 C.3    52  ARG52       0.0492
     37  CD       -29.8790   29.3300  -10.6960 C.3    52  ARG52       0.2205
     38  NE       -29.5560   28.6750  -11.9610 N.pl3  52  ARG52      -0.0865
     39  CZ       -30.2500   27.6610  -12.4690 C.cat  52  ARG52       0.5346
     40  NH1      -31.2990   27.1730  -11.8140 N.pl3  52  ARG52       0.1354
     41  NH2      -29.8950   27.1290  -13.6300 N.pl3  52  ARG52       0.1354
     42  N        -26.0710   26.1890  -17.5810 N.3    73  ASN73      -0.1240
     43  CA       -26.5420   24.8920  -18.0490 C.3    73  ASN73       0.1653
     44  C        -25.9790   24.5580  -19.4180 C.2    73  ASN73       0.2266
     45  O        -25.9010   25.4290  -20.2870 O.2    73  ASN73      -0.2867
     46  CB       -28.0710   24.8490  -18.0800 C.3    73  ASN73       0.1155
     47  CG       -28.6850   25.0470  -16.7070 C.2    73  ASN73       0.2627
     48  OD1      -28.6610   26.1480  -16.1590 O.2    73  ASN73      -0.2716
     49  ND2      -29.2350   23.9790  -16.1430 N.am   73  ASN73      -0.0877
     50  N        -27.7700   20.0890  -22.9180 N.3    76  LEU76      -0.1231
     51  CA       -28.8300   19.1510  -22.5420 C.3    76  LEU76       0.1693
     52  C        -29.6170   19.5900  -21.3020 C.2    76  LEU76       0.2593
     53  O        -30.5830   18.9290  -20.9050 O.2    76  LEU76      -0.2718
     54  CB       -28.2520   17.7380  -22.3520 C.3    76  LEU76       0.0284
     55  CG       -27.4920   17.1240  -23.5370 C.3    76  LEU76       0.0019
     56  CD1      -26.9020   15.7680  -23.1720 C.3    76  LEU76       0.0001
     57  CD2      -28.3720   17.0140  -24.7780 C.3    76  LEU76       0.0001
     58  N        -29.2060   20.7060  -20.7030 N.am   77  GLY77      -0.1942
     59  CA       -29.8960   21.2660  -19.5410 C.3    77  GLY77       0.2014
     60  C        -29.2200   20.9790  -18.2100 C.2    77  GLY77       0.2639
     61  O        -29.6610   21.4650  -17.1700 O.2    77  GLY77      -0.2714
     62  N        -28.1490   20.1870  -18.2540 N.am   78  LYS78      -0.1963
     63  CA       -27.3660   19.8170  -17.0770 C.3    78  LYS78       0.1713
     64  C        -26.6870   21.0380  -16.4450 C.2    78  LYS78       0.2458
     65  O        -25.9800   21.7750  -17.1380 O.2    78  LYS78      -0.2730
     66  CB       -26.3320   18.7560  -17.4730 C.3    78  LYS78       0.0311
     67  CG       -25.3210   18.3640  -16.4060 C.3    78  LYS78       0.0038
     68  CD       -24.4080   17.2780  -16.9510 C.3    78  LYS78       0.0206
     69  CE       -23.0050   17.3600  -16.3770 C.3    78  LYS78       0.1093
     70  NZ       -22.9400   16.8150  -14.9930 N.3    78  LYS78      -0.1314
     71  N        -26.9030   21.2560  -15.1280 N.am   79  PRO79      -0.2727
     72  CA       -26.2800   22.3930  -14.4470 C.3    79  PRO79       0.1402
     73  C        -24.7740   22.1930  -14.2760 C.2    79  PRO79       0.2269
     74  O        -24.3130   21.0620  -14.0910 O.2    79  PRO79      -0.2865
     75  CB       -26.9820   22.4190  -13.0840 C.3    79  PRO79       0.0296
     76  CG       -27.4000   21.0030  -12.8480 C.3    79  PRO79       0.0237
     77  CD       -27.7170   20.4370  -14.2070 C.3    79  PRO79       0.0939
     78  N        -25.6460   19.1330   -9.1670 N.3   102  THR102     -0.1203
     79  CA       -27.0200   18.7310   -9.4220 C.3   102  THR102      0.1994
     80  C        -27.9600   19.5860   -8.5850 C.2   102  THR102      0.2618
     81  O        -27.5980   20.0610   -7.5060 O.2   102  THR102     -0.2717
     82  CB       -27.2660   17.2280   -9.1520 C.3   102  THR102      0.1784
     83  OG1      -28.5940   16.8770   -9.5740 O.3   102  THR102     -0.2211
     84  CG2      -27.0940   16.8900   -7.6650 C.3   102  THR102      0.0376
     85  N        -29.1600   19.8000   -9.1000 N.am  103  LEU103     -0.1965
     86  CA       -30.1820   20.4860   -8.3340 C.3   103  LEU103      0.1728
     87  C        -31.5520   19.8890   -8.6100 C.2   103  LEU103      0.2616
     88  O        -31.7830   19.2680   -9.6530 O.2   103  LEU103     -0.2715
     89  CB       -30.1500   22.0100   -8.5710 C.3   103  LEU103      0.0311
     90  CG       -30.5330   22.6100   -9.9240 C.3   103  LEU103      0.0022
     91  CD1      -32.0390   22.7680  -10.0370 C.3   103  LEU103      0.0001
     92  CD2      -29.8620   23.9640  -10.1200 C.3   103  LEU103      0.0001
     93  N        -32.4450   20.0630   -7.6480 N.am  104  ALA104     -0.1963
     94  CA       -33.8060   19.5760   -7.7500 C.3   104  ALA104      0.1728
     95  C        -34.7070   20.5260   -6.9910 C.2   104  ALA104      0.2616
     96  O        -34.2480   21.2910   -6.1370 O.2   104  ALA104     -0.2715
     97  CB       -33.9150   18.1710   -7.1790 C.3   104  ALA104      0.0334
     98  N        -35.9890   20.4900   -7.3150 N.am  105  ASP105     -0.1971
     99  CA       -36.9590   21.2800   -6.5910 C.3   105  ASP105      0.1709
    100  C        -38.3110   20.5920   -6.5930 C.2   105  ASP105      0.2293
    101  O        -38.5890   19.7310   -7.4300 O.2   105  ASP105     -0.2864
    102  CB       -37.0760   22.6860   -7.1920 C.3   105  ASP105      0.1436
    103  CG       -37.7410   22.6850   -8.5580 C.2   105  ASP105      0.3671
    104  OD1      -37.1580   22.1250   -9.5100 O.co2 105  ASP105     -0.2456
    105  OD2      -38.8450   23.2540   -8.6780 O.co2 105  ASP105     -0.2456
@<TRIPOS>BOND
     1    57    55    1
     2    55    56    1
     3    55    54    1
     4    50    51    1
     5    51    54    1
     6    51    52    1
     7    52    53    2
     8    52    58   am
     9    58    59    1
    10    45    44    2
    11    59    60    1
    12    44    43    1
    13    62    60   am
    14    62    63    1
    15    60    61    2
    16    46    43    1
    17    46    47    1
    18    43    42    1
    19    66    63    1
    20    66    67    1
    21    65    64    2
    22    63    64    1
    23    68    67    1
    24    68    69    1
    25    47    48    2
    26    47    49   am
    27     1     2    1
    28    64    71   am
    29    69    70    1
    30     2     3    1
    31     2     5    1
    32     3     4    2
    33     8    10   ar
    34     8     6   ar
    35    71    72    1
    36    71    77    1
    37     5     6    1
    38    10     9   ar
    39     6     7   ar
    40     9     7   ar
    41    72    73    1
    42    72    75    1
    43    73    74    2
    44    77    76    1
    45    41    39    1
    46    19    21   ar
    47    19    17   ar
    48    21    20   ar
    49    75    76    1
    50    17    16   ar
    51    39    38    2
    52    39    40    1
    53    20    18   ar
    54    16    18   ar
    55    16    15    1
    56    38    37    1
    57    30    29    1
    58    15    12    1
    59    37    36    1
    60    29    28    1
    61    12    11    1
    62    12    13    1
    63    92    90    1
    64    36    35    1
    65    91    90    1
    66    90    89    1
    67    88    87    2
    68    83    82    1
    69   104   103   ar
    70    28    27    1
    71    79    78    1
    72    79    82    1
    73    79    80    1
    74    13    14    2
    75    82    84    1
    76    85    80   am
    77    85    86    1
    78   105   103   ar
    79    35    32    1
    80    87    86    1
    81    87    93   am
    82    80    81    2
    83    89    86    1
    84   103   102    1
    85    26    27    1
    86    26    23    1
    87    94    93    1
    88    94    97    1
    89    94    95    1
    90    32    31    1
    91    32    33    1
    92    31    24   am
    93   101   100    2
    94    98    95   am
    95    98    99    1
    96   102    99    1
    97    24    23    1
    98    24    25    2
    99    23    22    1
   100    95    96    2
   101   100    99    1
   102    33    34    2
