@<TRIPOS>MOLECULE
tmp/5xuiA00.pdb
 155 147 0 0 0
SMALL
GASTEIGER

@<TRIPOS>ATOM
      1  N         19.5940   -7.6700   64.2520 N.3    77  TYR77      -0.1241
      2  CA        18.6450   -6.5940   64.5730 C.3    77  TYR77       0.1605
      3  C         17.1350   -6.9870   64.5750 C.2    77  TYR77       0.2264
      4  O         16.4410   -6.7650   65.5740 O.2    77  TYR77      -0.2867
      5  CB        18.9240   -5.3210   63.7530 C.3    77  TYR77       0.0534
      6  CG        17.8310   -4.2790   63.8980 C.ar   77  TYR77      -0.0201
      7  CD1       16.6490   -4.3620   63.1340 C.ar   77  TYR77      -0.0009
      8  CD2       17.9520   -3.2310   64.8170 C.ar   77  TYR77      -0.0009
      9  CE1       15.6320   -3.4400   63.2820 C.ar   77  TYR77       0.0417
     10  CE2       16.9340   -2.2890   64.9640 C.ar   77  TYR77       0.0417
     11  CZ        15.7800   -2.3970   64.1950 C.ar   77  TYR77       0.1957
     12  OH        14.7670   -1.4660   64.3140 O.3    77  TYR77      -0.2866
     13  N          8.3850    0.4970   55.8390 N.3   188  LEU188     -0.1245
     14  CA         8.8180    1.8980   55.8070 C.3   188  LEU188      0.1561
     15  C          8.4110    2.5900   54.5220 C.2   188  LEU188      0.2260
     16  O          8.0040    3.7420   54.5580 O.2   188  LEU188     -0.2867
     17  CB        10.2990    2.1110   56.1160 C.3   188  LEU188      0.0270
     18  CG        10.6220    3.5740   56.4750 C.3   188  LEU188      0.0019
     19  CD1       10.0150    3.9510   57.8240 C.3   188  LEU188      0.0001
     20  CD2       12.1150    3.8480   56.4710 C.3   188  LEU188      0.0001
     21  N         10.8640    2.3100   65.0590 N.3   228  LEU228     -0.1245
     22  CA        12.0930    3.0820   64.9650 C.3   228  LEU228      0.1561
     23  C         12.6590    3.6040   66.2720 C.2   228  LEU228      0.2260
     24  O         13.5980    4.3990   66.2270 O.2   228  LEU228     -0.2867
     25  CB        11.8640    4.2920   64.0620 C.3   228  LEU228      0.0270
     26  CG        11.3540    4.1320   62.6320 C.3   228  LEU228      0.0019
     27  CD1       11.3640    5.5140   62.0140 C.3   228  LEU228      0.0001
     28  CD2       12.1970    3.1920   61.7860 C.3   228  LEU228      0.0001
     29  N         14.7750    3.0110   68.5790 N.3   230  SER230     -0.1202
     30  CA        16.1620    2.9000   69.0660 C.3   230  SER230      0.2020
     31  C         16.6700    4.3200   69.1860 C.2   230  SER230      0.2618
     32  O         17.4530    4.6590   70.0780 O.2   230  SER230     -0.2717
     33  CB        17.0780    2.1770   68.0860 C.3   230  SER230      0.2103
     34  OG        16.3490    1.4280   67.1500 O.3   230  SER230     -0.2182
     35  N         16.1920    5.1400   68.2600 N.am  231  VAL231     -0.1979
     36  CA        16.5740    6.5230   68.1710 C.3   231  VAL231      0.1595
     37  C         16.0200    7.3060   69.3380 C.2   231  VAL231      0.2287
     38  O         16.4440    8.4380   69.5570 O.2   231  VAL231     -0.2864
     39  CB        16.0360    7.1680   66.8700 C.3   231  VAL231      0.0276
     40  CG1       16.4280    6.3490   65.6370 C.3   231  VAL231      0.0022
     41  CG2       14.5270    7.3670   66.9570 C.3   231  VAL231      0.0022
     42  N         21.4860    3.9680   72.1340 N.3   238  THR238     -0.1218
     43  CA        21.2350    4.2250   70.7010 C.3   238  THR238      0.1862
     44  C         22.4020    3.7750   69.8000 C.2   238  THR238      0.2287
     45  O         22.1830    3.1180   68.7620 O.2   238  THR238     -0.2866
     46  CB        20.8040    5.6890   70.4640 C.3   238  THR238      0.1770
     47  OG1       19.4550    5.8510   70.9140 O.3   238  THR238     -0.2211
     48  CG2       20.8380    6.0480   69.0080 C.3   238  THR238      0.0375
     49  N         22.4930   -0.2880   69.5320 N.3   241  THR241     -0.1203
     50  CA        21.4320   -0.7050   68.6360 C.3   241  THR241      0.1994
     51  C         21.7870   -0.2870   67.2220 C.2   241  THR241      0.2617
     52  O         21.4730   -0.9980   66.2620 O.2   241  THR241     -0.2717
     53  CB        20.0970   -0.1290   69.0730 C.3   241  THR241      0.1784
     54  OG1       19.8280   -0.6150   70.3790 O.3   241  THR241     -0.2211
     55  CG2       18.9870   -0.6020   68.1810 C.3   241  THR241      0.0376
     56  N         22.4760    0.8420   67.0870 N.am  242  ALA242     -0.1979
     57  CA        23.0330    1.1880   65.7840 C.3   242  ALA242      0.1597
     58  C         23.9460    0.0540   65.2690 C.2   242  ALA242      0.2287
     59  O         23.8020   -0.3590   64.1100 O.2   242  ALA242     -0.2864
     60  CB        23.7630    2.5250   65.8180 C.3   242  ALA242      0.0319
     61  N         21.9150   -2.8280   63.9380 N.3   245  ILE245     -0.1231
     62  CA        21.2300   -2.5930   62.6580 C.3   245  ILE245      0.1692
     63  C         22.1310   -2.8240   61.4220 C.2   245  ILE245      0.2592
     64  O         21.6820   -3.4250   60.4250 O.2   245  ILE245     -0.2718
     65  CB        20.5470   -1.2100   62.5840 C.3   245  ILE245      0.0266
     66  CG1       19.8490   -1.0010   61.2430 C.3   245  ILE245      0.0019
     67  CG2       21.5530   -0.0950   62.6950 C.3   245  ILE245      0.0020
     68  CD1       18.3420   -1.1300   61.2890 C.3   245  ILE245      0.0001
     69  N         23.3820   -2.3450   61.5050 N.am  246  TYR246     -0.1976
     70  CA        24.3440   -2.3660   60.3850 C.3   246  TYR246      0.1639
     71  C         24.9480   -3.7300   60.1300 C.2   246  TYR246      0.2290
     72  O         25.2080   -4.0790   58.9780 O.2   246  TYR246     -0.2864
     73  CB        25.4560   -1.3240   60.5550 C.3   246  TYR246      0.0560
     74  CG        24.9600    0.0740   60.3240 C.ar  246  TYR246     -0.0198
     75  CD1       24.4110    0.4370   59.0950 C.ar  246  TYR246     -0.0009
     76  CD2       25.0130    1.0340   61.3370 C.ar  246  TYR246     -0.0009
     77  CE1       23.9220    1.7160   58.8790 C.ar  246  TYR246      0.0417
     78  CE2       24.5350    2.3200   61.1280 C.ar  246  TYR246      0.0417
     79  CZ        23.9870    2.6540   59.8980 C.ar  246  TYR246      0.1957
     80  OH        23.5080    3.9220   59.6680 O.3   246  TYR246     -0.2866
     81  N         22.4940   -5.1590   57.9600 N.3   249  PHE249     -0.1241
     82  CA        22.5660   -4.4900   56.6530 C.3   249  PHE249      0.1605
     83  C         23.7230   -4.9620   55.8170 C.2   249  PHE249      0.2264
     84  O         23.5540   -5.3020   54.6480 O.2   249  PHE249     -0.2867
     85  CB        22.7040   -2.9850   56.8000 C.3   249  PHE249      0.0534
     86  CG        21.4050   -2.2890   56.9810 C.ar  249  PHE249     -0.0203
     87  CD1       20.2090   -2.9510   56.7240 C.ar  249  PHE249     -0.0042
     88  CD2       21.3700   -0.9670   57.3850 C.ar  249  PHE249     -0.0042
     89  CE1       18.9960   -2.3140   56.8980 C.ar  249  PHE249     -0.0003
     90  CE2       20.1590   -0.3180   57.5530 C.ar  249  PHE249     -0.0003
     91  CZ        18.9690   -0.9930   57.3060 C.ar  249  PHE249     -0.0000
     92  N         24.9510    2.3930   49.6770 N.3   265  PRO265     -0.2102
     93  CA        25.9160    2.7330   50.7500 C.3   265  PRO265      0.1504
     94  C         25.5730    2.1730   52.1240 C.2   265  PRO265      0.2575
     95  O         26.4730    1.7650   52.8620 O.2   265  PRO265     -0.2718
     96  CB        25.8680    4.2680   50.7950 C.3   265  PRO265      0.0282
     97  CG        25.5010    4.6620   49.4200 C.3   265  PRO265      0.0208
     98  CD        24.5350    3.6070   48.9430 C.3   265  PRO265      0.0893
     99  N         24.2820    2.1620   52.4550 N.am  266  MET266     -0.1980
    100  CA        23.7630    1.6520   53.7390 C.3   266  MET266      0.1605
    101  C         24.2070    0.2180   54.0850 C.2   266  MET266      0.2287
    102  O         24.4170   -0.1260   55.2570 O.2   266  MET266     -0.2864
    103  CB        22.2400    1.6950   53.7020 C.3   266  MET266      0.0413
    104  CG        21.5860    1.8450   55.0550 C.3   266  MET266      0.0598
    105  SD        19.7930    1.6980   54.9390 S.3   266  MET266     -0.1393
    106  CE        19.4440    2.4790   53.3550 C.3   266  MET266      0.0692
    107  N         31.7430    1.2320   53.4750 N.3   271  LYS271     -0.1245
    108  CA        31.2750    2.6090   53.6050 C.3   271  LYS271      0.1561
    109  C         31.0310    2.9780   55.0790 C.2   271  LYS271      0.2260
    110  O         30.1840    3.8210   55.3860 O.2   271  LYS271     -0.2867
    111  CB        30.0100    2.8060   52.7530 C.3   271  LYS271      0.0271
    112  CG        30.2180    2.8140   51.2330 C.3   271  LYS271      0.0035
    113  CD        29.7480    4.1370   50.6190 C.3   271  LYS271      0.0206
    114  CE        29.5950    4.1130   49.0950 C.3   271  LYS271      0.1093
    115  NZ        30.9000    4.1790   48.3670 N.3   271  LYS271     -0.1314
    116  N         31.0740    6.5590   56.6090 N.3   274  GLU274     -0.1231
    117  CA        29.9100    7.3690   56.2140 C.3   274  GLU274      0.1699
    118  C         28.6870    7.0970   57.0690 C.2   274  GLU274      0.2592
    119  O         27.6500    7.7430   56.8980 O.2   274  GLU274     -0.2718
    120  CB        29.5320    7.1290   54.7510 C.3   274  GLU274      0.0402
    121  CG        30.1140    8.1370   53.7860 C.3   274  GLU274      0.1161
    122  CD        31.2060    7.5310   52.9400 C.2   274  GLU274      0.3649
    123  OE1       30.8640    7.0130   51.8530 O.co2 274  GLU274     -0.2457
    124  OE2       32.3900    7.5480   53.3640 O.co2 274  GLU274     -0.2457
    125  N         28.7870    6.1340   57.9770 N.am  275  VAL275     -0.1980
    126  CA        27.6660    5.8520   58.8680 C.3   275  VAL275      0.1595
    127  C         27.0880    7.0790   59.6230 C.2   275  VAL275      0.2287
    128  O         25.8810    7.2990   59.5740 O.2   275  VAL275     -0.2864
    129  CB        27.9540    4.6460   59.7770 C.3   275  VAL275      0.0276
    130  CG1       27.0460    4.6380   60.9830 C.3   275  VAL275      0.0022
    131  CG2       27.7930    3.3560   58.9820 C.3   275  VAL275      0.0022
    132  N         24.9820    9.1090   57.5000 N.3   278  GLY278     -0.1210
    133  CA        23.7880    8.3560   57.1600 C.3   278  GLY278      0.1956
    134  C         22.7400    8.5230   58.2430 C.2   278  GLY278      0.2611
    135  O         21.5710    8.7970   57.9570 O.2   278  GLY278     -0.2717
    136  N         23.1600    8.3680   59.4920 N.am  279  GLN279     -0.1979
    137  CA        22.2260    8.4860   60.6000 C.3   279  GLN279      0.1601
    138  C         21.5450    9.8520   60.6110 C.2   279  GLN279      0.2287
    139  O         20.3120    9.9580   60.7540 O.2   279  GLN279     -0.2864
    140  CB        22.9250    8.2150   61.9310 C.3   279  GLN279      0.0394
    141  CG        23.2170    6.7380   62.1610 C.3   279  GLN279      0.0908
    142  CD        21.9540    5.9290   62.3630 C.2   279  GLN279      0.2608
    143  OE1       21.2560    6.0910   63.3660 O.2   279  GLN279     -0.2717
    144  NE2       21.6560    5.0450   61.4160 N.am  279  GLN279     -0.0878
    145  N         18.9720   10.2200   58.1440 N.3   282  PHE282     -0.1241
    146  CA        17.8220    9.3850   58.4480 C.3   282  PHE282      0.1605
    147  C         16.9780   10.0350   59.5510 C.2   282  PHE282      0.2264
    148  O         15.7390    9.9670   59.5240 O.2   282  PHE282     -0.2867
    149  CB        18.3150    7.9850   58.8780 C.3   282  PHE282      0.0534
    150  CG        17.2120    7.0100   59.2360 C.ar  282  PHE282     -0.0203
    151  CD1       16.5570    6.2760   58.2480 C.ar  282  PHE282     -0.0042
    152  CD2       16.8270    6.8230   60.5720 C.ar  282  PHE282     -0.0042
    153  CE1       15.5440    5.3830   58.5690 C.ar  282  PHE282     -0.0003
    154  CE2       15.8060    5.9330   60.9040 C.ar  282  PHE282     -0.0003
    155  CZ        15.1740    5.2080   59.8940 C.ar  282  PHE282     -0.0000
@<TRIPOS>BOND
     1   115   114    1
     2    98    97    1
     3    98    92    1
     4   114   113    1
     5    97    96    1
     6    92    93    1
     7   113   112    1
     8    93    96    1
     9    93    94    1
    10   112   111    1
    11   123   122   ar
    12    94    99   am
    13    94    95    2
    14    99   100    1
    15   111   108    1
    16   122   124   ar
    17   122   121    1
    18   106   105    1
    19   107   108    1
    20   108   109    1
    21   103   100    1
    22   103   104    1
    23   100   101    1
    24   121   120    1
    25   101   102    2
    26    15    16    2
    27    15    14    1
    28    84    83    2
    29   120   117    1
    30   105   104    1
    31   109   110    2
    32    14    13    1
    33    14    17    1
    34    83    82    1
    35    17    18    1
    36   117   116    1
    37   117   118    1
    38    20    18    1
    39    18    19    1
    40    82    85    1
    41    82    81    1
    42    87    89   ar
    43    87    86   ar
    44    85    86    1
    45    89    91   ar
    46   119   118    2
    47    86    88   ar
    48   118   125   am
    49   133   132    1
    50   133   134    1
    51    91    90   ar
    52    88    90   ar
    53   135   134    2
    54   125   126    1
    55   145   146    1
    56   134   136   am
    57   151   153   ar
    58   151   150   ar
    59   146   149    1
    60   146   147    1
    61   153   155   ar
    62   126   127    1
    63   126   129    1
    64   149   150    1
    65    77    75   ar
    66    77    79   ar
    67    72    71    2
    68   131   129    1
    69    75    74   ar
    70   150   152   ar
    71   136   137    1
    72   148   147    2
    73   128   127    2
    74    80    79    1
    75   129   130    1
    76   155   154   ar
    77    79    78   ar
    78    71    70    1
    79    74    73    1
    80    74    76   ar
    81    70    73    1
    82    70    69    1
    83    64    63    2
    84   152   154   ar
    85   137   138    1
    86   137   140    1
    87   138   139    2
    88    78    76   ar
    89    66    68    1
    90    66    65    1
    91   144   142   am
    92    63    69   am
    93    63    62    1
    94    28    26    1
    95   140   141    1
    96    27    26    1
    97   141   142    1
    98   142   143    2
    99    65    62    1
   100    65    67    1
   101    26    25    1
   102    62    61    1
   103     7     9   ar
   104     7     6   ar
   105     9    11   ar
   106     5     6    1
   107     5     2    1
   108     6     8   ar
   109    25    22    1
   110    59    58    2
   111    11    12    1
   112    11    10   ar
   113     1     2    1
   114     2     3    1
   115     3     4    2
   116     8    10   ar
   117    22    21    1
   118    22    23    1
   119    58    57    1
   120    40    39    1
   121    57    60    1
   122    57    56    1
   123    24    23    2
   124    52    51    2
   125    39    41    1
   126    39    36    1
   127    56    51   am
   128    34    33    1
   129    51    50    1
   130    33    30    1
   131    36    35    1
   132    36    37    1
   133    55    53    1
   134    35    31   am
   135    29    30    1
   136    50    53    1
   137    50    49    1
   138    45    44    2
   139    48    46    1
   140    30    31    1
   141    53    54    1
   142    31    32    2
   143    37    38    2
   144    44    43    1
   145    46    43    1
   146    46    47    1
   147    43    42    1
