@<TRIPOS>MOLECULE
tmp/5xujA00.pdb
 119 114 0 0 0
SMALL
GASTEIGER

@<TRIPOS>ATOM
      1  N         18.1340   -6.9560   63.1130 N.3    77  TYR77      -0.1227
      2  CA        17.1050   -5.9590   63.4510 C.3    77  TYR77       0.1736
      3  C         15.6430   -6.4370   63.3930 C.2    77  TYR77       0.2595
      4  O         14.9900   -6.3890   64.4230 O.2    77  TYR77      -0.2718
      5  CB        17.3020   -4.7100   62.6030 C.3    77  TYR77       0.0548
      6  CG        16.3390   -3.5770   62.8420 C.ar   77  TYR77      -0.0200
      7  CD1       16.4770   -2.7340   63.9490 C.ar   77  TYR77      -0.0009
      8  CD2       15.3030   -3.3190   61.9370 C.ar   77  TYR77      -0.0009
      9  CE1       15.5950   -1.6750   64.1540 C.ar   77  TYR77       0.0417
     10  CE2       14.4250   -2.2640   62.1320 C.ar   77  TYR77       0.0417
     11  CZ        14.5760   -1.4410   63.2380 C.ar   77  TYR77       0.1957
     12  OH        13.7020   -0.3860   63.4230 O.3    77  TYR77      -0.2866
     13  N         15.1330   -6.9030   62.2380 N.am   78  HIS78      -0.1975
     14  CA        13.6960   -7.2740   62.1210 C.3    78  HIS78       0.1656
     15  C         13.2770   -8.5770   62.8590 C.2    78  HIS78       0.2291
     16  O         12.5630   -9.4370   62.3230 O.2    78  HIS78      -0.2864
     17  CB        13.2550   -7.3580   60.6720 C.3    78  HIS78       0.0771
     18  CG        13.2970   -6.0570   59.9240 C.ar   78  HIS78       0.0820
     19  ND1       14.4190   -5.6160   59.2520 N.ar   78  HIS78      -0.2267
     20  CD2       12.3330   -5.1320   59.6820 C.ar   78  HIS78       0.1154
     21  CE1       14.1570   -4.4690   58.6540 C.ar   78  HIS78       0.1986
     22  NE2       12.8990   -4.1510   58.8990 N.ar   78  HIS78      -0.2212
     23  N          6.7010    1.8380   54.8940 N.3   174  LEU174     -0.1245
     24  CA         7.1110    3.2350   54.9790 C.3   174  LEU174      0.1561
     25  C          6.7720    4.0060   53.7140 C.2   174  LEU174      0.2260
     26  O          6.6400    5.2230   53.7560 O.2   174  LEU174     -0.2867
     27  CB         8.6010    3.3470   55.3060 C.3   174  LEU174      0.0270
     28  CG         9.0500    4.7440   55.7850 C.3   174  LEU174      0.0019
     29  CD1        8.7180    5.0070   57.2450 C.3   174  LEU174      0.0001
     30  CD2       10.5380    5.0220   55.5240 C.3   174  LEU174      0.0001
     31  N          9.3860    3.0390   64.1090 N.3   214  LEU214     -0.1245
     32  CA        10.6180    3.8060   64.0190 C.3   214  LEU214      0.1561
     33  C         11.1290    4.2080   65.4050 C.2   214  LEU214      0.2260
     34  O         12.1600    4.8860   65.5310 O.2   214  LEU214     -0.2867
     35  CB        10.3680    5.0840   63.2050 C.3   214  LEU214      0.0270
     36  CG        10.0270    4.9370   61.7340 C.3   214  LEU214      0.0019
     37  CD1       10.2200    6.2890   61.0520 C.3   214  LEU214      0.0001
     38  CD2       10.8390    3.8260   61.0480 C.3   214  LEU214      0.0001
     39  N         12.9850    3.4000   67.7060 N.3   216  SER216     -0.1202
     40  CA        14.4550    3.3740   68.0790 C.3   216  SER216      0.2020
     41  C         15.0830    4.7090   68.0690 C.2   216  SER216      0.2618
     42  O         16.0940    4.8970   68.7420 O.2   216  SER216     -0.2717
     43  CB        15.3370    2.5570   67.1020 C.3   216  SER216      0.2103
     44  OG        15.1760    1.1580   67.2740 O.3   216  SER216     -0.2182
     45  N         14.5410    5.6170   67.2570 N.am  217  VAL217     -0.1979
     46  CA        15.0870    7.0000   67.1500 C.3   217  VAL217      0.1595
     47  C         14.7380    7.9350   68.3180 C.2   217  VAL217      0.2287
     48  O         15.2560    9.0270   68.4060 O.2   217  VAL217     -0.2864
     49  CB        14.6480    7.6940   65.8290 C.3   217  VAL217      0.0276
     50  CG1       15.0790    6.8680   64.6290 C.3   217  VAL217      0.0022
     51  CG2       13.1290    7.9080   65.8000 C.3   217  VAL217      0.0022
     52  N         21.0830    1.6430   65.9030 N.3   228  ALA228     -0.1245
     53  CA        21.5470    1.9520   64.5360 C.3   228  ALA228      0.1562
     54  C         22.4370    0.8200   63.9210 C.2   228  ALA228      0.2260
     55  O         22.1880    0.4260   62.7750 O.2   228  ALA228     -0.2867
     56  CB        22.2650    3.2920   64.5150 C.3   228  ALA228      0.0290
     57  N         20.1380   -2.2010   62.5740 N.3   231  ILE231     -0.1231
     58  CA        19.5640   -1.9390   61.2730 C.3   231  ILE231      0.1692
     59  C         20.6520   -2.0360   60.1680 C.2   231  ILE231      0.2592
     60  O         20.5020   -2.7700   59.2030 O.2   231  ILE231     -0.2718
     61  CB        18.8370   -0.5760   61.2410 C.3   231  ILE231      0.0266
     62  CG1       18.2590   -0.3200   59.8500 C.3   231  ILE231      0.0019
     63  CG2       19.7610    0.5510   61.6230 C.3   231  ILE231      0.0020
     64  CD1       16.9900   -1.1190   59.5840 C.3   231  ILE231      0.0001
     65  N         21.7490   -1.3040   60.3420 N.am  232  TYR232     -0.1976
     66  CA        22.8340   -1.3110   59.3930 C.3   232  TYR232      0.1639
     67  C         23.4520   -2.6840   59.1270 C.2   232  TYR232      0.2290
     68  O         23.7750   -2.9850   57.9780 O.2   232  TYR232     -0.2864
     69  CB        23.8640   -0.2400   59.7490 C.3   232  TYR232      0.0560
     70  CG        23.4240    1.0820   59.1680 C.ar  232  TYR232     -0.0198
     71  CD1       23.6440    1.3800   57.8090 C.ar  232  TYR232     -0.0009
     72  CD2       22.7350    2.0030   59.9340 C.ar  232  TYR232     -0.0009
     73  CE1       23.2160    2.5750   57.2500 C.ar  232  TYR232      0.0417
     74  CE2       22.3030    3.2010   59.3760 C.ar  232  TYR232      0.0417
     75  CZ        22.5490    3.4810   58.0380 C.ar  232  TYR232      0.1957
     76  OH        22.1290    4.6680   57.4960 O.3   232  TYR232     -0.2866
     77  N         21.2980   -4.1110   56.2510 N.3   235  PHE235     -0.1241
     78  CA        21.5140   -3.5340   54.9400 C.3   235  PHE235      0.1605
     79  C         22.7810   -4.1350   54.3060 C.2   235  PHE235      0.2264
     80  O         22.7700   -4.5460   53.1360 O.2   235  PHE235     -0.2867
     81  CB        21.6740   -2.0140   55.0460 C.3   235  PHE235      0.0534
     82  CG        20.4880   -1.3080   55.6030 C.ar  235  PHE235     -0.0203
     83  CD1       19.1900   -1.7350   55.3030 C.ar  235  PHE235     -0.0042
     84  CD2       20.6600   -0.1860   56.4110 C.ar  235  PHE235     -0.0042
     85  CE1       18.0790   -1.0590   55.8200 C.ar  235  PHE235     -0.0003
     86  CE2       19.5630    0.4940   56.9210 C.ar  235  PHE235     -0.0003
     87  CZ        18.2670    0.0650   56.6170 C.ar  235  PHE235     -0.0000
     88  N         24.4670    2.5460   51.0860 N.3   252  MET252     -0.1245
     89  CA        23.9290    2.2990   52.4090 C.3   252  MET252      0.1570
     90  C         24.1420    0.8310   52.8080 C.2   252  MET252      0.2261
     91  O         24.3540    0.5050   53.9910 O.2   252  MET252     -0.2867
     92  CB        22.4320    2.6190   52.3640 C.3   252  MET252      0.0387
     93  CG        21.6440    2.4080   53.6460 C.3   252  MET252      0.0595
     94  SD        19.8800    2.3450   53.2720 S.3   252  MET252     -0.1393
     95  CE        19.8340    0.9940   52.0980 C.3   252  MET252      0.0692
     96  N         23.7300    9.5740   57.1080 N.3   264  GLY264     -0.1210
     97  CA        22.5530    8.8190   56.7210 C.3   264  GLY264      0.1956
     98  C         21.4610    8.9460   57.7870 C.2   264  GLY264      0.2611
     99  O         20.2870    9.2100   57.4500 O.2   264  GLY264     -0.2717
    100  N         21.8540    8.7750   59.0610 N.am  265  GLN265     -0.1979
    101  CA        20.9320    8.9610   60.1780 C.3   265  GLN265      0.1601
    102  C         20.3220   10.3790   60.2140 C.2   265  GLN265      0.2287
    103  O         19.0750   10.5160   60.2200 O.2   265  GLN265     -0.2864
    104  CB        21.5690    8.5390   61.5190 C.3   265  GLN265      0.0394
    105  CG        21.7680    7.0360   61.6210 C.3   265  GLN265      0.0908
    106  CD        20.4650    6.2830   61.4300 C.2   265  GLN265      0.2608
    107  OE1       19.6630    6.1700   62.3490 O.2   265  GLN265     -0.2717
    108  NE2       20.2450    5.7600   60.2260 N.am  265  GLN265     -0.0878
    109  N         17.7760   10.8100   57.3960 N.3   268  PHE268     -0.1241
    110  CA        16.6100   10.0180   57.7340 C.3   268  PHE268      0.1605
    111  C         15.7610   10.6660   58.8370 C.2   268  PHE268      0.2264
    112  O         14.5270   10.5910   58.8440 O.2   268  PHE268     -0.2867
    113  CB        17.0330    8.6030   58.1580 C.3   268  PHE268      0.0534
    114  CG        15.8660    7.6990   58.4820 C.ar  268  PHE268     -0.0203
    115  CD1       15.1530    7.0710   57.4580 C.ar  268  PHE268     -0.0042
    116  CD2       15.4370    7.5410   59.7870 C.ar  268  PHE268     -0.0042
    117  CE1       14.0750    6.2820   57.7360 C.ar  268  PHE268     -0.0003
    118  CE2       14.3390    6.7550   60.0740 C.ar  268  PHE268     -0.0003
    119  CZ        13.6600    6.1300   59.0590 C.ar  268  PHE268     -0.0000
@<TRIPOS>BOND
     1    88    89    1
     2    95    94    1
     3    92    89    1
     4    92    93    1
     5    89    90    1
     6    90    91    2
     7    80    79    2
     8    94    93    1
     9    25    26    2
    10    25    24    1
    11    79    78    1
    12    23    24    1
    13    78    81    1
    14    78    77    1
    15    24    27    1
    16    81    82    1
    17    83    82   ar
    18    83    85   ar
    19    27    28    1
    20    30    28    1
    21    82    84   ar
    22    28    29    1
    23    85    87   ar
    24    84    86   ar
    25    87    86   ar
    26    97    96    1
    27    97    98    1
    28    73    71   ar
    29    73    75   ar
    30   109   110    1
    31    99    98    2
    32   115   117   ar
    33   115   114   ar
    34    76    75    1
    35   110   113    1
    36   110   111    1
    37   117   119   ar
    38    98   100   am
    39    71    70   ar
    40    68    67    2
    41    75    74   ar
    42   113   114    1
    43   114   116   ar
    44    21    22   ar
    45    21    19   ar
    46   111   112    2
    47    22    20   ar
    48   119   118   ar
    49   100   101    1
    50    67    66    1
    51    70    69    1
    52    70    72   ar
    53    60    59    2
    54    19    18   ar
    55    74    72   ar
    56    66    69    1
    57    66    65    1
    58    64    62    1
    59    20    18   ar
    60   116   118   ar
    61    62    61    1
    62    18    17    1
    63    59    65   am
    64    59    58    1
    65   101   102    1
    66   101   104    1
    67   102   103    2
    68   108   106   am
    69    17    14    1
    70    38    36    1
    71    37    36    1
    72    61    58    1
    73    61    63    1
    74    58    57    1
    75   106   105    1
    76   106   107    2
    77   104   105    1
    78    36    35    1
    79     8    10   ar
    80     8     6   ar
    81    14    13    1
    82    14    15    1
    83    10    11   ar
    84    13     3   am
    85    16    15    2
    86     5     6    1
    87     5     2    1
    88    55    54    2
    89     6     7   ar
    90     1     2    1
    91    35    32    1
    92    11    12    1
    93    11     9   ar
    94     3     2    1
    95     3     4    2
    96    54    53    1
    97     7     9   ar
    98    32    31    1
    99    32    33    1
   100    56    53    1
   101    53    52    1
   102    50    49    1
   103    33    34    2
   104    51    49    1
   105    49    46    1
   106    43    44    1
   107    43    40    1
   108    46    45    1
   109    46    47    1
   110    45    41   am
   111    39    40    1
   112    41    40    1
   113    41    42    2
   114    47    48    2
