@<TRIPOS>MOLECULE
tmp/5xukA00.pdb
 99 96 0 0 0
SMALL
GASTEIGER

@<TRIPOS>ATOM
      1  N         47.2530   -6.7010  -26.7970 N.3    39  LYS39      -0.1245
      2  CA        47.7760   -7.9750  -27.3190 C.3    39  LYS39       0.1561
      3  C         46.7230   -9.0740  -27.2040 C.2    39  LYS39       0.2260
      4  O         46.3000   -9.4320  -26.1100 O.2    39  LYS39      -0.2867
      5  CB        49.0770   -8.3760  -26.6260 C.3    39  LYS39       0.0271
      6  CG        50.2150   -7.4070  -26.9240 C.3    39  LYS39       0.0035
      7  CD        51.5580   -7.8970  -26.3980 C.3    39  LYS39       0.0206
      8  CE        51.7100   -7.6810  -24.8980 C.3    39  LYS39       0.1093
      9  NZ        53.0970   -7.9790  -24.4300 N.3    39  LYS39      -0.1314
     10  N         47.4930  -11.8860  -24.6120 N.3    42  SER42      -0.1217
     11  CA        47.2640  -11.4390  -23.2360 C.3    42  SER42       0.1889
     12  C         45.7760  -11.2920  -22.8930 C.2    42  SER42       0.2288
     13  O         45.3700  -11.4800  -21.7450 O.2    42  SER42      -0.2866
     14  CB        47.9350  -10.0780  -22.9990 C.3    42  SER42       0.2089
     15  OG        49.3170  -10.1020  -23.3300 O.3    42  SER42      -0.2183
     16  N         43.7680  -13.3560  -19.9090 N.3    46  PHE46      -0.1241
     17  CA        42.9400  -12.8300  -18.8260 C.3    46  PHE46       0.1605
     18  C         41.5590  -13.4430  -18.9110 C.2    46  PHE46       0.2264
     19  O         40.9550  -13.7640  -17.9050 O.2    46  PHE46      -0.2867
     20  CB        42.8440  -11.2880  -18.8660 C.3    46  PHE46       0.0534
     21  CG        44.0970  -10.5790  -18.4030 C.ar   46  PHE46      -0.0203
     22  CD1       45.3340  -11.2430  -18.3340 C.ar   46  PHE46      -0.0042
     23  CD2       44.0520   -9.2240  -18.0690 C.ar   46  PHE46      -0.0042
     24  CE1       46.4820  -10.5800  -17.9080 C.ar   46  PHE46      -0.0003
     25  CE2       45.1980   -8.5540  -17.6560 C.ar   46  PHE46      -0.0003
     26  CZ        46.4160   -9.2300  -17.5770 C.ar   46  PHE46      -0.0000
     27  N         49.0730   -7.3490  -11.6950 N.3    74  LYS74      -0.1245
     28  CA        50.4040   -7.9150  -11.8770 C.3    74  LYS74       0.1561
     29  C         51.3540   -7.5190  -10.7540 C.2    74  LYS74       0.2260
     30  O         51.3370   -6.3820  -10.2890 O.2    74  LYS74      -0.2867
     31  CB        51.0100   -7.4360  -13.1930 C.3    74  LYS74       0.0271
     32  CG        50.3340   -7.9250  -14.4650 C.3    74  LYS74       0.0035
     33  CD        50.1820   -9.4460  -14.5200 C.3    74  LYS74       0.0206
     34  CE        50.3590   -9.9960  -15.9250 C.3    74  LYS74       0.1093
     35  NZ        50.2220   -8.9570  -16.9870 N.3    74  LYS74      -0.1314
     36  N         57.2400   -8.3620  -10.7110 N.3    77  LYS77      -0.1231
     37  CA        57.9000   -9.3230  -11.6060 C.3    77  LYS77       0.1693
     38  C         56.9610   -9.9360  -12.6670 C.2    77  LYS77       0.2592
     39  O         57.2860  -10.9710  -13.2420 O.2    77  LYS77      -0.2718
     40  CB        58.5410  -10.4420  -10.7780 C.3    77  LYS77       0.0285
     41  CG        59.5480   -9.9630   -9.7460 C.3    77  LYS77       0.0035
     42  CD        59.8640  -11.0440   -8.7230 C.3    77  LYS77       0.0206
     43  CE        60.9280  -10.5830   -7.7360 C.3    77  LYS77       0.1093
     44  NZ        60.4620   -9.4620   -6.8690 N.3    77  LYS77      -0.1314
     45  N         55.8120   -9.3010  -12.9150 N.am   78  ASN78      -0.1960
     46  CA        54.8290   -9.7180  -13.9460 C.3    78  ASN78       0.1819
     47  C         54.0630  -11.0260  -13.6470 C.2    78  ASN78       0.2621
     48  O         53.5510  -11.6780  -14.5520 O.2    78  ASN78      -0.2715
     49  CB        55.4740   -9.7690  -15.3380 C.3    78  ASN78       0.1195
     50  CG        54.4480   -9.7480  -16.4670 C.2    78  ASN78       0.2630
     51  OD1       53.3540   -9.1880  -16.3250 O.2    78  ASN78      -0.2716
     52  ND2       54.7980  -10.3560  -17.6000 N.am   78  ASN78      -0.0877
     53  N         53.9820  -11.3850  -12.3710 N.am   79  ALA79      -0.1964
     54  CA        53.2110  -12.5300  -11.9130 C.3    79  ALA79       0.1713
     55  C         51.7230  -12.1420  -11.8230 C.2    79  ALA79       0.2458
     56  O         51.4020  -11.0970  -11.2470 O.2    79  ALA79      -0.2730
     57  CB        53.7120  -12.9540  -10.5410 C.3    79  ALA79       0.0333
     58  N         50.8110  -12.9760  -12.3720 N.am   80  PRO80      -0.2727
     59  CA        49.3790  -12.6360  -12.3020 C.3    80  PRO80       0.1402
     60  C         48.8100  -12.7860  -10.9030 C.2    80  PRO80       0.2269
     61  O         49.0330  -13.8040  -10.2540 O.2    80  PRO80      -0.2865
     62  CB        48.7220  -13.6300  -13.2560 C.3    80  PRO80       0.0296
     63  CG        49.6710  -14.7710  -13.3490 C.3    80  PRO80       0.0237
     64  CD        51.0510  -14.1890  -13.1770 C.3    80  PRO80       0.0939
     65  N         47.0130  -17.9580   -8.9330 N.3    99  ALA99      -0.1231
     66  CA        46.7300  -18.0160  -10.3670 C.3    99  ALA99       0.1694
     67  C         47.9860  -18.1850  -11.2120 C.2    99  ALA99       0.2593
     68  O         49.0880  -17.9270  -10.7330 O.2    99  ALA99      -0.2718
     69  CB        45.9960  -16.7560  -10.7920 C.3    99  ALA99       0.0304
     70  N         47.8170  -18.6370  -12.4640 N.am  100  SER100     -0.1938
     71  CA        48.9120  -18.6690  -13.4210 C.3   100  SER100      0.2055
     72  C         48.3780  -18.7200  -14.8330 C.2   100  SER100      0.2643
     73  O         47.3340  -19.2960  -15.0770 O.2   100  SER100     -0.2714
     74  CB        49.8140  -19.8910  -13.1560 C.3   100  SER100      0.2130
     75  OG        50.9430  -19.9070  -14.0130 O.3   100  SER100     -0.2179
     76  N         49.1250  -18.1530  -15.7720 N.am  101  ILE101     -0.1963
     77  CA        48.7700  -18.1200  -17.1730 C.3   101  ILE101      0.1727
     78  C         49.9340  -18.5340  -18.0570 C.2   101  ILE101      0.2617
     79  O         51.0930  -18.2910  -17.7350 O.2   101  ILE101     -0.2715
     80  CB        48.4170  -16.6850  -17.6260 C.3   101  ILE101      0.0290
     81  CG1       47.1870  -16.1670  -16.8910 C.3   101  ILE101      0.0022
     82  CG2       48.1640  -16.6510  -19.1350 C.3   101  ILE101      0.0023
     83  CD1       47.0600  -14.6510  -16.9660 C.3   101  ILE101      0.0001
     84  N         49.6150  -19.0720  -19.2250 N.am  102  SER102     -0.1936
     85  CA        50.6080  -19.3250  -20.2400 C.3   102  SER102      0.2055
     86  C         49.9300  -19.3170  -21.5880 C.2   102  SER102      0.2643
     87  O         48.7320  -19.5870  -21.6980 O.2   102  SER102     -0.2714
     88  CB        51.2490  -20.7140  -19.9920 C.3   102  SER102      0.2130
     89  OG        51.9300  -21.2040  -21.1590 O.3   102  SER102     -0.2179
     90  N         50.7040  -19.0210  -22.6170 N.am  103  HIS103     -0.1973
     91  CA        50.2420  -19.1130  -24.0020 C.3   103  HIS103      0.1656
     92  C         51.3470  -19.5550  -24.8980 C.2   103  HIS103      0.2291
     93  O         52.4970  -19.1940  -24.7030 O.2   103  HIS103     -0.2864
     94  CB        49.6810  -17.7900  -24.5230 C.3   103  HIS103      0.0771
     95  CG        50.1850  -16.5730  -23.7990 C.ar  103  HIS103      0.0820
     96  ND1       51.3970  -16.0400  -24.0400 N.ar  103  HIS103     -0.2267
     97  CD2       49.5770  -15.7660  -22.8200 C.ar  103  HIS103      0.1154
     98  CE1       51.5690  -14.9510  -23.2470 C.ar  103  HIS103      0.1986
     99  NE2       50.4490  -14.7890  -22.5010 N.ar  103  HIS103     -0.2212
@<TRIPOS>BOND
     1     2     3    1
     2     2     1    1
     3     2     5    1
     4     3     4    2
     5     6     5    1
     6     6     7    1
     7     7     8    1
     8     8     9    1
     9    92    93    2
    10    92    91    1
    11    10    11    1
    12    94    91    1
    13    94    95    1
    14    96    95   ar
    15    96    98   ar
    16    91    90    1
    17    95    97   ar
    18    15    14    1
    19    98    99   ar
    20    11    14    1
    21    11    12    1
    22    12    13    2
    23    97    99   ar
    24    90    86   am
    25    87    86    2
    26    86    85    1
    27    89    88    1
    28    85    88    1
    29    85    84    1
    30    16    17    1
    31    84    78   am
    32    82    80    1
    33    18    17    1
    34    18    19    2
    35    20    17    1
    36    20    21    1
    37    21    22   ar
    38    21    23   ar
    39    22    24   ar
    40    23    25   ar
    41    78    79    2
    42    78    77    1
    43    24    26   ar
    44    25    26   ar
    45    80    77    1
    46    80    81    1
    47    52    50   am
    48    77    76    1
    49    35    34    1
    50    83    81    1
    51    50    51    2
    52    50    49    1
    53    34    33    1
    54    76    72   am
    55    49    46    1
    56    73    72    2
    57    72    71    1
    58    48    47    2
    59    33    32    1
    60    32    31    1
    61    75    74    1
    62    46    47    1
    63    46    45    1
    64    47    53   am
    65    71    74    1
    66    71    70    1
    67    63    62    1
    68    63    64    1
    69    62    59    1
    70    39    38    2
    71    31    28    1
    72    64    58    1
    73    45    38   am
    74    38    37    1
    75    70    67   am
    76    58    59    1
    77    58    55   am
    78    53    54    1
    79    59    60    1
    80    54    55    1
    81    54    57    1
    82    28    27    1
    83    28    29    1
    84    55    56    2
    85    37    40    1
    86    37    36    1
    87    67    68    2
    88    67    66    1
    89    60    61    2
    90    69    66    1
    91    40    41    1
    92    29    30    2
    93    66    65    1
    94    41    42    1
    95    42    43    1
    96    43    44    1
