@<TRIPOS>MOLECULE
tmp/5xulB05.pdb
 80 76 0 0 0
SMALL
GASTEIGER

@<TRIPOS>ATOM
      1  N         19.1840   -9.7370  -48.4000 N.3    48  LYS48      -0.1245
      2  CA        20.4660   -9.2970  -47.8710 C.3    48  LYS48       0.1561
      3  C         21.3390  -10.5050  -47.5550 C.2    48  LYS48       0.2260
      4  O         20.8730  -11.6480  -47.4970 O.2    48  LYS48      -0.2867
      5  CB        20.2650   -8.4210  -46.6270 C.3    48  LYS48       0.0271
      6  CG        19.4740   -7.1540  -46.9300 C.3    48  LYS48       0.0035
      7  CD        18.9170   -6.5120  -45.6730 C.3    48  LYS48       0.0206
      8  CE        18.1050   -5.2640  -46.0090 C.3    48  LYS48       0.1093
      9  NZ        17.8920   -4.4010  -44.8180 N.3    48  LYS48      -0.1314
     10  N         26.1900  -10.2150  -42.5610 N.3    51  ASP51      -0.1225
     11  CA        25.6880   -9.6660  -41.2990 C.3    51  ASP51       0.1805
     12  C         24.3420   -8.9670  -41.4530 C.2    51  ASP51       0.2598
     13  O         23.6120   -8.8440  -40.4630 O.2    51  ASP51      -0.2718
     14  CB        26.7050   -8.6860  -40.6990 C.3    51  ASP51       0.1424
     15  CG        27.7220   -9.3690  -39.7960 C.2    51  ASP51       0.3668
     16  OD1       27.7200  -10.6120  -39.7210 O.co2  51  ASP51      -0.2456
     17  OD2       28.5330   -8.6660  -39.1630 O.co2  51  ASP51      -0.2456
     18  N         23.9930   -8.5100  -42.6630 N.am   52  SER52      -0.1952
     19  CA        22.7320   -7.8080  -42.9090 C.3    52  SER52       0.1924
     20  C         21.5430   -8.7360  -43.1490 C.2    52  SER52       0.2314
     21  O         20.3980   -8.2670  -43.1520 O.2    52  SER52      -0.2863
     22  CB        22.8790   -6.8890  -44.1250 C.3    52  SER52       0.2116
     23  OG        23.6860   -5.7800  -43.8010 O.3    52  SER52      -0.2180
     24  N         18.4860   -9.6510  -37.8440 N.3    61  ASN61      -0.1240
     25  CA        19.6460   -9.6730  -38.7270 C.3    61  ASN61       0.1653
     26  C         20.7650  -10.5380  -38.1440 C.2    61  ASN61       0.2266
     27  O         20.8450  -10.7660  -36.9340 O.2    61  ASN61      -0.2867
     28  CB        20.1420   -8.2550  -39.0690 C.3    61  ASN61       0.1155
     29  CG        20.5920   -7.4560  -37.8590 C.2    61  ASN61       0.2627
     30  OD1       21.6350   -7.7310  -37.2770 O.2    61  ASN61      -0.2716
     31  ND2       19.8340   -6.4250  -37.5160 N.am   61  ASN61      -0.0877
     32  N         23.9170  -10.1730  -37.7770 N.3    63  PHE63      -0.1241
     33  CA        24.8100   -9.5530  -36.8070 C.3    63  PHE63       0.1605
     34  C         24.2470   -9.6710  -35.3900 C.2    63  PHE63       0.2264
     35  O         24.9680  -10.0230  -34.4470 O.2    63  PHE63      -0.2867
     36  CB        25.0650   -8.0880  -37.1620 C.3    63  PHE63       0.0534
     37  CG        25.7400   -7.3350  -36.0670 C.ar   63  PHE63      -0.0203
     38  CD1       27.1180   -7.4080  -35.9090 C.ar   63  PHE63      -0.0042
     39  CD2       24.9970   -6.5980  -35.1540 C.ar   63  PHE63      -0.0042
     40  CE1       27.7460   -6.7270  -34.8750 C.ar   63  PHE63      -0.0003
     41  CE2       25.6130   -5.9310  -34.1170 C.ar   63  PHE63      -0.0003
     42  CZ        26.9860   -5.9920  -33.9780 C.ar   63  PHE63      -0.0000
     43  N         17.2650   -2.5010  -35.9120 N.3   114  ARG114     -0.1231
     44  CA        16.8340   -1.6090  -36.9730 C.3   114  ARG114      0.1694
     45  C         17.9870   -1.2390  -37.8940 C.2   114  ARG114      0.2592
     46  O         17.8000   -1.1310  -39.1110 O.2   114  ARG114     -0.2718
     47  CB        16.2100   -0.3590  -36.3650 C.3   114  ARG114      0.0321
     48  CG        15.9860    0.7610  -37.3550 C.3   114  ARG114      0.0489
     49  CD        14.7500    0.4710  -38.2060 C.3   114  ARG114      0.2205
     50  NE        14.3640    1.6250  -39.0080 N.pl3 114  ARG114     -0.0865
     51  CZ        13.4240    1.5910  -39.9460 C.cat 114  ARG114      0.5346
     52  NH1       12.7860    0.4550  -40.1910 N.pl3 114  ARG114      0.1354
     53  NH2       13.1240    2.6860  -40.6350 N.pl3 114  ARG114      0.1354
     54  N         19.1910   -1.0620  -37.3400 N.am  115  ASN115     -0.1960
     55  CA        20.2860   -0.5600  -38.1570 C.3   115  ASN115      0.1819
     56  C         21.5780   -1.3460  -37.9710 C.2   115  ASN115      0.2622
     57  O         22.6590   -0.8140  -38.2500 O.2   115  ASN115     -0.2715
     58  CB        20.5370    0.9170  -37.8690 C.3   115  ASN115      0.1195
     59  CG        21.1540    1.6250  -39.0460 C.2   115  ASN115      0.2630
     60  OD1       21.9940    2.5130  -38.8880 O.2   115  ASN115     -0.2716
     61  ND2       20.7600    1.2110  -40.2510 N.am  115  ASN115     -0.0877
     62  N         21.4940   -2.5970  -37.5290 N.am  116  GLY116     -0.1940
     63  CA        22.6440   -3.4610  -37.4420 C.3   116  GLY116      0.2014
     64  C         23.7020   -2.9110  -36.5120 C.2   116  GLY116      0.2639
     65  O         23.4310   -2.1420  -35.5790 O.2   116  GLY116     -0.2714
     66  N         24.9460   -3.3020  -36.7870 N.am  117  GLU117     -0.1963
     67  CA        26.0510   -2.8680  -35.9500 C.3   117  GLU117      0.1733
     68  C         26.1510   -1.3460  -35.8960 C.2   117  GLU117      0.2617
     69  O         26.4540   -0.7790  -34.8400 O.2   117  GLU117     -0.2715
     70  CB        27.3510   -3.4860  -36.4580 C.3   117  GLU117      0.0429
     71  CG        28.5420   -3.0950  -35.6410 C.3   117  GLU117      0.1163
     72  CD        29.6970   -4.0420  -35.8330 C.2   117  GLU117      0.3649
     73  OE1       30.5550   -4.1170  -34.9290 O.co2 117  GLU117     -0.2457
     74  OE2       29.7370   -4.7220  -36.8820 O.co2 117  GLU117     -0.2457
     75  N         25.8750   -0.6670  -37.0150 N.am  118  SER118     -0.1950
     76  CA        25.9660    0.7930  -37.0350 C.3   118  SER118      0.1924
     77  C         25.0330    1.4230  -36.0060 C.2   118  SER118      0.2314
     78  O         25.3600    2.4560  -35.4110 O.2   118  SER118     -0.2863
     79  CB        25.6450    1.3290  -38.4300 C.3   118  SER118      0.2116
     80  OG        26.5550    0.8350  -39.3940 O.3   118  SER118     -0.2180
@<TRIPOS>BOND
     1     1     2    1
     2     2     3    1
     3     2     5    1
     4     3     4    2
     5     6     5    1
     6     6     7    1
     7     8     7    1
     8     8     9    1
     9    22    23    1
    10    22    19    1
    11    21    20    2
    12    20    19    1
    13    19    18    1
    14    18    12   am
    15    10    11    1
    16    12    11    1
    17    12    13    2
    18    11    14    1
    19    14    15    1
    20    53    51    1
    21    61    59   am
    22    52    51    1
    23    51    50    2
    24    15    16   ar
    25    15    17   ar
    26    80    79    1
    27    46    45    2
    28    28    25    1
    29    28    29    1
    30    59    60    2
    31    59    58    1
    32    50    49    1
    33    25    26    1
    34    25    24    1
    35    79    76    1
    36    57    56    2
    37    49    48    1
    38    55    56    1
    39    55    58    1
    40    55    54    1
    41    26    27    2
    42    56    62   am
    43    45    54   am
    44    45    44    1
    45    29    31   am
    46    29    30    2
    47    32    33    1
    48    62    63    1
    49    63    64    1
    50    48    47    1
    51    36    33    1
    52    36    37    1
    53    76    75    1
    54    76    77    1
    55    75    68   am
    56    44    47    1
    57    44    43    1
    58    74    72   ar
    59    33    34    1
    60    66    64   am
    61    66    67    1
    62    64    65    2
    63    70    67    1
    64    70    71    1
    65    37    38   ar
    66    37    39   ar
    67    77    78    2
    68    67    68    1
    69    38    40   ar
    70    68    69    2
    71    72    71    1
    72    72    73   ar
    73    34    35    2
    74    39    41   ar
    75    40    42   ar
    76    41    42   ar
