@<TRIPOS>MOLECULE
tmp/5xulA03.pdb
 92 86 0 0 0
SMALL
GASTEIGER

@<TRIPOS>ATOM
      1  N         20.0290   -2.6550   -9.2950 N.3    33  LEU33      -0.1231
      2  CA        19.4920   -1.4320   -8.7070 C.3    33  LEU33       0.1693
      3  C         18.5640   -1.7310   -7.5290 C.2    33  LEU33       0.2591
      4  O         18.5000   -0.9370   -6.5810 O.2    33  LEU33      -0.2718
      5  CB        18.7730   -0.6100   -9.7900 C.3    33  LEU33       0.0284
      6  CG        18.2310    0.7910   -9.4740 C.3    33  LEU33       0.0019
      7  CD1       19.2470    1.6240   -8.7080 C.3    33  LEU33       0.0001
      8  CD2       17.8230    1.5260  -10.7530 C.3    33  LEU33       0.0001
      9  N         17.8780   -2.8850   -7.5550 N.am   34  GLU34      -0.1979
     10  CA        16.8690   -3.2020   -6.5440 C.3    34  GLU34       0.1602
     11  C         17.4860   -3.4770   -5.1790 C.2    34  GLU34       0.2287
     12  O         16.9600   -3.0280   -4.1540 O.2    34  GLU34      -0.2864
     13  CB        16.0530   -4.4120   -6.9810 C.3    34  GLU34       0.0415
     14  CG        15.4120   -4.1330   -8.3630 C.3    34  GLU34       0.1163
     15  CD        14.5350   -2.9050   -8.4490 C.2    34  GLU34       0.3649
     16  OE1       13.5910   -2.9510   -7.6370 O.co2  34  GLU34      -0.2457
     17  OE2       14.8150   -1.9900   -9.3190 O.co2  34  GLU34      -0.2457
     18  N          8.8940   -6.0830    1.1450 N.3    46  ASP46      -0.1239
     19  CA         9.5360   -4.7860    1.3740 C.3    46  ASP46       0.1674
     20  C          8.6770   -3.9230    2.2910 C.2    46  ASP46       0.2266
     21  O          8.6280   -2.6990    2.1710 O.2    46  ASP46      -0.2867
     22  CB         9.8520   -4.0560    0.0660 C.3    46  ASP46       0.1410
     23  CG        10.9490   -3.0060    0.2380 C.2    46  ASP46       0.3668
     24  OD1       11.9330   -3.2660    0.9630 O.co2  46  ASP46      -0.2456
     25  OD2       10.8350   -1.9180   -0.3570 O.co2  46  ASP46      -0.2456
     26  N          5.4540   -3.8350    2.4450 N.3    48  LYS48      -0.1245
     27  CA         4.1990   -3.4710    1.8070 C.3    48  LYS48       0.1561
     28  C          3.2920   -4.6940    1.6970 C.2    48  LYS48       0.2260
     29  O          3.7170   -5.8410    1.8900 O.2    48  LYS48      -0.2867
     30  CB         4.4610   -2.8590    0.4220 C.3    48  LYS48       0.0271
     31  CG         5.3320   -1.6110    0.4350 C.3    48  LYS48       0.0035
     32  CD         5.8560   -1.2730   -0.9590 C.3    48  LYS48       0.0206
     33  CE         5.9070    0.2440   -1.1390 C.3    48  LYS48       0.1093
     34  NZ         7.0370    0.7100   -1.9840 N.3    48  LYS48      -0.1314
     35  N          6.2730   -6.1930   -2.6220 N.3    54  ASN54      -0.1240
     36  CA         7.4440   -6.4700   -3.4430 C.3    54  ASN54       0.1653
     37  C          7.9510   -7.8800   -3.1710 C.2    54  ASN54       0.2266
     38  O          8.0830   -8.2780   -2.0110 O.2    54  ASN54      -0.2867
     39  CB         8.5940   -5.5110   -3.1290 C.3    54  ASN54       0.1155
     40  CG         8.3410   -4.0710   -3.5610 C.2    54  ASN54       0.2627
     41  OD1        9.2590   -3.2480   -3.4940 O.2    54  ASN54      -0.2716
     42  ND2        7.1240   -3.7550   -3.9900 N.am   54  ASN54      -0.0877
     43  N         12.2140   -6.9810   -6.8170 N.3    59  LYS59      -0.1245
     44  CA        11.1550   -6.3230   -6.0540 C.3    59  LYS59       0.1561
     45  C          9.9530   -6.0230   -6.9430 C.2    59  LYS59       0.2260
     46  O          9.3880   -4.9280   -6.8990 O.2    59  LYS59      -0.2867
     47  CB        11.6550   -5.0330   -5.3860 C.3    59  LYS59       0.0271
     48  CG        12.7260   -5.2430   -4.3240 C.3    59  LYS59       0.0035
     49  CD        12.9950   -3.9410   -3.5890 C.3    59  LYS59       0.0206
     50  CE        13.5290   -4.1740   -2.1870 C.3    59  LYS59       0.1093
     51  NZ        13.6240   -2.8990   -1.4380 N.3    59  LYS59      -0.1314
     52  N          6.1530   -5.9500   -7.9250 N.3    61  ASN61      -0.1240
     53  CA         5.0040   -5.7840   -7.0460 C.3    61  ASN61       0.1653
     54  C          3.8760   -6.7260   -7.4570 C.2    61  ASN61       0.2266
     55  O          3.8100   -7.1960   -8.5940 O.2    61  ASN61      -0.2867
     56  CB         4.5280   -4.3200   -6.9970 C.3    61  ASN61       0.1155
     57  CG         4.1510   -3.7480   -8.3590 C.2    61  ASN61       0.2627
     58  OD1        3.1040   -4.0820   -8.9160 O.2    61  ASN61      -0.2716
     59  ND2        4.9830   -2.8420   -8.8750 N.am   61  ASN61      -0.0877
     60  N          6.1670   -1.3200  -12.9080 N.3   113  HIS113     -0.1226
     61  CA         7.1400   -1.7990  -11.9380 C.3   113  HIS113      0.1752
     62  C          7.5240   -0.6840  -10.9730 C.2   113  HIS113      0.2595
     63  O          7.5020   -0.8700   -9.7510 O.2   113  HIS113     -0.2718
     64  CB         8.3680   -2.3460  -12.6560 C.3   113  HIS113      0.0759
     65  CG         9.4320   -2.8490  -11.7340 C.ar  113  HIS113      0.0818
     66  ND1        9.3210   -4.0420  -11.0560 N.ar  113  HIS113     -0.2268
     67  CD2       10.6240   -2.3200  -11.3740 C.ar  113  HIS113      0.1154
     68  CE1       10.4050   -4.2320  -10.3240 C.ar  113  HIS113      0.1986
     69  NE2       11.2100   -3.2010  -10.4980 N.ar  113  HIS113     -0.2212
     70  N          7.8490    0.4950  -11.5080 N.am  114  ARG114     -0.1980
     71  CA         8.3170    1.5980  -10.6710 C.3   114  ARG114      0.1597
     72  C          7.1980    2.1650   -9.8060 C.2   114  ARG114      0.2287
     73  O          7.4140    2.4810   -8.6290 O.2   114  ARG114     -0.2864
     74  CB         8.9090    2.7000  -11.5480 C.3   114  ARG114      0.0334
     75  CG         9.3180    3.9780  -10.8100 C.3   114  ARG114      0.0492
     76  CD        10.5440    3.7510   -9.9440 C.3   114  ARG114      0.2205
     77  NE        11.0730    5.0000   -9.4040 N.pl3 114  ARG114     -0.0865
     78  CZ        12.0770    5.0600   -8.5320 C.cat 114  ARG114      0.5346
     79  NH1       12.6600    3.9410   -8.1120 N.pl3 114  ARG114      0.1354
     80  NH2       12.5110    6.2340   -8.0850 N.pl3 114  ARG114      0.1354
     81  N         14.3480    6.4820  -13.3200 N.3   131  TYR131     -0.1241
     82  CA        14.5800    5.0760  -13.0000 C.3   131  TYR131      0.1605
     83  C         15.0240    4.3090  -14.2410 C.2   131  TYR131      0.2264
     84  O         15.9550    3.4980  -14.1900 O.2   131  TYR131     -0.2867
     85  CB        13.3060    4.4640  -12.4070 C.3   131  TYR131      0.0534
     86  CG        13.3980    2.9720  -12.1680 C.ar  131  TYR131     -0.0201
     87  CD1       14.1810    2.4640  -11.1390 C.ar  131  TYR131     -0.0009
     88  CD2       12.7090    2.0720  -12.9690 C.ar  131  TYR131     -0.0009
     89  CE1       14.2690    1.0990  -10.9110 C.ar  131  TYR131      0.0417
     90  CE2       12.8010    0.6990  -12.7480 C.ar  131  TYR131      0.0417
     91  CZ        13.5870    0.2270  -11.7150 C.ar  131  TYR131      0.1957
     92  OH        13.6960   -1.1260  -11.4820 O.3   131  TYR131     -0.2866
@<TRIPOS>BOND
     1    83    84    2
     2    83    82    1
     3    81    82    1
     4    82    85    1
     5    88    90   ar
     6    88    86   ar
     7    60    61    1
     8    90    91   ar
     9    64    61    1
    10    64    65    1
    11    85    86    1
    12    86    87   ar
    13    61    62    1
    14    65    67   ar
    15    65    66   ar
    16    91    92    1
    17    91    89   ar
    18    74    75    1
    19    74    71    1
    20    70    62   am
    21    70    71    1
    22    67    69   ar
    23    87    89   ar
    24    66    68   ar
    25    62    63    2
    26    75    76    1
    27     8     6    1
    28    71    72    1
    29    69    68   ar
    30    76    77    1
    31    72    73    2
    32     5     6    1
    33     5     2    1
    34     6     7    1
    35    77    78    2
    36    17    15   ar
    37     1     2    1
    38    58    57    2
    39    59    57   am
    40     2     3    1
    41    55    54    2
    42    78    79    1
    43    78    80    1
    44    15    14    1
    45    15    16   ar
    46    14    13    1
    47    57    56    1
    48    52    53    1
    49     9     3   am
    50     9    10    1
    51     3     4    2
    52    54    53    1
    53    53    56    1
    54    13    10    1
    55    45    46    2
    56    45    44    1
    57    43    44    1
    58    10    11    1
    59    44    47    1
    60    47    48    1
    61    11    12    2
    62    48    49    1
    63    42    40   am
    64    49    50    1
    65    40    41    2
    66    40    39    1
    67    36    37    1
    68    36    39    1
    69    36    35    1
    70    37    38    2
    71    50    51    1
    72    34    33    1
    73    33    32    1
    74    32    31    1
    75    25    23   ar
    76    22    23    1
    77    22    19    1
    78    23    24   ar
    79    30    31    1
    80    30    27    1
    81    18    19    1
    82    19    20    1
    83    28    27    1
    84    28    29    2
    85    27    26    1
    86    21    20    2
