@<TRIPOS>MOLECULE
tmp/5xunB00.pdb
 204 199 0 0 0
SMALL
GASTEIGER

@<TRIPOS>ATOM
      1  N         21.9690  -32.3880   35.1530 N.3    21  CYS21      -0.1235
      2  CA        22.3880  -31.3210   36.0470 C.3    21  CYS21       0.1677
      3  C         21.4480  -31.1560   37.2320 C.2    21  CYS21       0.2270
      4  O         21.7430  -30.3630   38.1310 O.2    21  CYS21      -0.2867
      5  CB        22.4950  -29.9930   35.2770 C.3    21  CYS21       0.0956
      6  SG        20.9090  -29.3070   34.7550 S.3    21  CYS21      -0.0801
      7  N         18.2480  -30.1520   36.8970 N.3    23  GLU23      -0.1245
      8  CA        17.1530  -29.3020   36.4450 C.3    23  GLU23       0.1567
      9  C         16.7640  -29.8100   35.0650 C.2    23  GLU23       0.2260
     10  O         17.5670  -29.7520   34.1270 O.2    23  GLU23      -0.2867
     11  CB        17.5640  -27.8310   36.4140 C.3    23  GLU23       0.0388
     12  CG        16.4980  -26.8680   36.9190 C.3    23  GLU23       0.1160
     13  CD        16.4340  -26.8080   38.4330 C.2    23  GLU23       0.3649
     14  OE1       15.6180  -26.0260   38.9650 O.co2  23  GLU23      -0.2457
     15  OE2       17.2060  -27.5370   39.0920 O.co2  23  GLU23      -0.2457
     16  N         17.1390  -27.7330   31.6180 N.3    26  LEU26      -0.1245
     17  CA        18.4670  -27.5940   31.0430 C.3    26  LEU26       0.1561
     18  C         19.0130  -28.9110   30.5240 C.2    26  LEU26       0.2260
     19  O         19.8700  -28.9000   29.6310 O.2    26  LEU26      -0.2867
     20  CB        19.4180  -26.9950   32.0790 C.3    26  LEU26       0.0270
     21  CG        18.9240  -25.6340   32.5990 C.3    26  LEU26       0.0019
     22  CD1       19.9630  -24.9450   33.4680 C.3    26  LEU26       0.0001
     23  CD2       18.4810  -24.7290   31.4620 C.3    26  LEU26       0.0001
     24  N         23.8090  -14.5470   29.6180 N.3    92  LEU92      -0.1231
     25  CA        24.1020  -15.9510   29.8950 C.3    92  LEU92       0.1693
     26  C         22.7560  -16.6560   29.9410 C.2    92  LEU92       0.2593
     27  O         22.0460  -16.5960   30.9470 O.2    92  LEU92      -0.2718
     28  CB        24.8680  -16.0980   31.2050 C.3    92  LEU92       0.0284
     29  CG        25.2100  -17.4950   31.7120 C.3    92  LEU92       0.0019
     30  CD1       26.0660  -18.2200   30.7070 C.3    92  LEU92       0.0001
     31  CD2       25.9380  -17.4100   33.0490 C.3    92  LEU92       0.0001
     32  N         22.3750  -17.2720   28.8220 N.am   93  GLY93      -0.1942
     33  CA        21.0530  -17.8660   28.7370 C.3    93  GLY93       0.2014
     34  C         20.9070  -19.0770   29.6350 C.2    93  GLY93       0.2639
     35  O         19.8650  -19.2720   30.2620 O.2    93  GLY93      -0.2714
     36  N         21.9620  -19.8840   29.7300 N.am   94  ARG94      -0.1963
     37  CA        21.9520  -21.1570   30.4260 C.3    94  ARG94       0.1729
     38  C         23.3600  -21.4930   30.8730 C.2    94  ARG94       0.2616
     39  O         24.3350  -21.1950   30.1770 O.2    94  ARG94      -0.2715
     40  CB        21.4690  -22.2940   29.5280 C.3    94  ARG94       0.0348
     41  CG        20.0050  -22.2980   29.2810 C.3    94  ARG94       0.0492
     42  CD        19.7180  -22.9740   27.9800 C.3    94  ARG94       0.2205
     43  NE        18.4340  -22.5160   27.4880 N.pl3  94  ARG94      -0.0865
     44  CZ        18.2820  -21.4460   26.7260 C.cat  94  ARG94       0.5346
     45  NH1       19.3450  -20.7310   26.3680 N.pl3  94  ARG94       0.1354
     46  NH2       17.0730  -21.0960   26.3260 N.pl3  94  ARG94       0.1354
     47  N         23.4440  -22.1710   32.0140 N.am   95  LEU95      -0.1963
     48  CA        24.6880  -22.7290   32.5150 C.3    95  LEU95       0.1728
     49  C         24.3290  -23.9600   33.3340 C.2    95  LEU95       0.2616
     50  O         23.4100  -23.9040   34.1550 O.2    95  LEU95      -0.2715
     51  CB        25.4480  -21.7140   33.3730 C.3    95  LEU95       0.0311
     52  CG        26.6130  -22.3100   34.1640 C.3    95  LEU95       0.0022
     53  CD1       27.8140  -22.3980   33.2690 C.3    95  LEU95       0.0001
     54  CD2       26.9250  -21.5040   35.4160 C.3    95  LEU95       0.0001
     55  N         25.0260  -25.0680   33.0990 N.am   96  ALA96      -0.1963
     56  CA        24.6970  -26.3080   33.7850 C.3    96  ALA96       0.1728
     57  C         25.9330  -27.1870   33.8720 C.2    96  ALA96       0.2616
     58  O         26.7240  -27.2560   32.9290 O.2    96  ALA96      -0.2715
     59  CB        23.5630  -27.0640   33.0760 C.3    96  ALA96       0.0334
     60  N         26.0870  -27.8470   35.0180 N.am   97  ILE97      -0.1977
     61  CA        27.1490  -28.8130   35.2750 C.3    97  ILE97       0.1596
     62  C         26.4940  -30.1460   35.6120 C.2    97  ILE97       0.2287
     63  O         25.4890  -30.1830   36.3260 O.2    97  ILE97      -0.2864
     64  CB        28.0710  -28.3510   36.4250 C.3    97  ILE97       0.0276
     65  CG1       28.7790  -27.0450   36.0690 C.3    97  ILE97       0.0022
     66  CG2       29.0900  -29.4240   36.7690 C.3    97  ILE97       0.0022
     67  CD1       29.9210  -27.2240   35.0880 C.3    97  ILE97       0.0001
     68  N         29.5060  -31.8990   39.9700 N.3   102  GLN102     -0.1231
     69  CA        29.1650  -30.6740   40.6890 C.3   102  GLN102      0.1698
     70  C         29.8960  -30.5690   42.0310 C.2   102  GLN102      0.2593
     71  O         30.4310  -31.5460   42.5640 O.2   102  GLN102     -0.2718
     72  CB        27.6620  -30.5920   40.9370 C.3   102  GLN102      0.0381
     73  CG        26.8540  -30.4470   39.6770 C.3   102  GLN102      0.0905
     74  CD        25.3890  -30.2640   39.9550 C.2   102  GLN102      0.2608
     75  OE1       24.9640  -30.2260   41.1090 O.2   102  GLN102     -0.2717
     76  NE2       24.5970  -30.1690   38.8960 N.am  102  GLN102     -0.0878
     77  N         29.9160  -29.3450   42.5690 N.am  103  GLY103     -0.1942
     78  CA        30.5190  -29.0530   43.8600 C.3   103  GLY103      0.2014
     79  C         32.0290  -29.0510   43.9100 C.2   103  GLY103      0.2639
     80  O         32.6010  -29.1660   44.9980 O.2   103  GLY103     -0.2714
     81  N         32.7110  -28.8960   42.7790 N.am  104  GLN104     -0.1963
     82  CA        34.1660  -28.8460   42.7190 C.3   104  GLN104      0.1733
     83  C         34.6920  -27.5490   42.1260 C.2   104  GLN104      0.2617
     84  O         35.8950  -27.4540   41.8570 O.2   104  GLN104     -0.2715
     85  CB        34.7060  -30.0050   41.8900 C.3   104  GLN104      0.0408
     86  CG        34.3270  -31.3640   42.3810 C.3   104  GLN104      0.0908
     87  CD        34.7170  -32.4080   41.3830 C.2   104  GLN104      0.2608
     88  OE1       35.6740  -32.2630   40.6240 O.2   104  GLN104     -0.2717
     89  NE2       33.9450  -33.4680   41.3570 N.am  104  GLN104     -0.0878
     90  N         33.8250  -26.5610   41.8930 N.am  105  GLY105     -0.1940
     91  CA        34.2690  -25.3420   41.2600 C.3   105  GLY105      0.2014
     92  C         34.1630  -25.3130   39.7500 C.2   105  GLY105      0.2639
     93  O         34.5740  -24.3150   39.1410 O.2   105  GLY105     -0.2714
     94  N         33.6470  -26.3720   39.1180 N.am  106  TRP106     -0.1959
     95  CA        33.5190  -26.3500   37.6610 C.3   106  TRP106      0.1771
     96  C         32.5320  -25.2840   37.2200 C.2   106  TRP106      0.2620
     97  O         32.7380  -24.6250   36.1940 O.2   106  TRP106     -0.2715
     98  CB        33.1110  -27.7210   37.1220 C.3   106  TRP106      0.0590
     99  CG        34.1950  -28.7340   37.2170 C.ar  106  TRP106      0.0006
    100  CD1       34.1900  -29.8840   37.9540 C.ar  106  TRP106      0.0946
    101  CD2       35.4670  -28.6810   36.5600 C.ar  106  TRP106      0.0152
    102  NE1       35.3790  -30.5570   37.7840 N.ar  106  TRP106     -0.2442
    103  CE2       36.1810  -29.8350   36.9370 C.ar  106  TRP106      0.0810
    104  CE3       36.0690  -27.7710   35.6890 C.ar  106  TRP106      0.0012
    105  CZ2       37.4620  -30.1040   36.4690 C.ar  106  TRP106      0.0191
    106  CZ3       37.3450  -28.0380   35.2310 C.ar  106  TRP106      0.0001
    107  CH2       38.0260  -29.1920   35.6200 C.ar  106  TRP106      0.0015
    108  N         31.4460  -25.1090   37.9750 N.am  107  GLY107     -0.1940
    109  CA        30.5380  -24.0140   37.6890 C.3   107  GLY107      0.2014
    110  C         31.2500  -22.6760   37.7080 C.2   107  GLY107      0.2638
    111  O         31.1020  -21.8680   36.7880 O.2   107  GLY107     -0.2714
    112  N         32.0550  -22.4390   38.7500 N.am  108  GLU108     -0.1977
    113  CA        32.8610  -21.2250   38.8220 C.3   108  GLU108      0.1602
    114  C         33.7720  -21.0950   37.6130 C.2   108  GLU108      0.2287
    115  O         33.8980  -20.0110   37.0330 O.2   108  GLU108     -0.2864
    116  CB        33.7000  -21.2280   40.1010 C.3   108  GLU108      0.0415
    117  CG        34.5940  -20.0110   40.2560 C.3   108  GLU108      0.1163
    118  CD        34.8900  -19.6760   41.7060 C.2   108  GLU108      0.3649
    119  OE1       34.4260  -20.4170   42.5970 O.co2 108  GLU108     -0.2457
    120  OE2       35.6200  -18.6930   41.9510 O.co2 108  GLU108     -0.2457
    121  N         22.0260  -11.9800   33.4630 N.3   132  VAL132     -0.1231
    122  CA        21.6070  -13.3590   33.6980 C.3   132  VAL132      0.1692
    123  C         20.3190  -13.3560   34.5070 C.2   132  VAL132      0.2592
    124  O         20.1490  -12.5600   35.4360 O.2   132  VAL132     -0.2718
    125  CB        22.7240  -14.1800   34.3830 C.3   132  VAL132      0.0266
    126  CG1       23.0240  -13.6540   35.7770 C.3   132  VAL132      0.0020
    127  CG2       22.3600  -15.6520   34.4150 C.3   132  VAL132      0.0020
    128  N         19.3980  -14.2390   34.1280 N.am  133  GLU133     -0.1966
    129  CA        18.1880  -14.4850   34.8980 C.3   133  GLU133      0.1733
    130  C         18.3960  -15.7680   35.6880 C.2   133  GLU133      0.2616
    131  O         18.4690  -16.8540   35.1080 O.2   133  GLU133     -0.2715
    132  CB        16.9710  -14.5960   33.9870 C.3   133  GLU133      0.0429
    133  CG        15.7480  -15.1570   34.6810 C.3   133  GLU133      0.1163
    134  CD        14.4650  -14.7460   33.9970 C.2   133  GLU133      0.3649
    135  OE1       13.4870  -14.4430   34.7090 O.co2 133  GLU133     -0.2457
    136  OE2       14.4500  -14.6840   32.7490 O.co2 133  GLU133     -0.2457
    137  N         18.4930  -15.6430   37.0070 N.am  134  ALA134     -0.1963
    138  CA        18.6990  -16.8170   37.8400 C.3   134  ALA134      0.1728
    139  C         17.4670  -17.7080   37.7660 C.2   134  ALA134      0.2616
    140  O         16.3350  -17.2340   37.9130 O.2   134  ALA134     -0.2715
    141  CB        18.9770  -16.4030   39.2820 C.3   134  ALA134      0.0334
    142  N         17.6950  -19.0010   37.5230 N.am  135  LEU135     -0.1963
    143  CA        16.5910  -19.9280   37.3020 C.3   135  LEU135      0.1728
    144  C         15.8240  -20.2020   38.5880 C.2   135  LEU135      0.2616
    145  O         14.6150  -20.4560   38.5500 O.2   135  LEU135     -0.2715
    146  CB        17.1270  -21.2310   36.7160 C.3   135  LEU135      0.0311
    147  CG        16.1830  -22.0200   35.8140 C.3   135  LEU135      0.0022
    148  CD1       16.0560  -21.3310   34.4580 C.3   135  LEU135      0.0001
    149  CD2       16.6800  -23.4470   35.6640 C.3   135  LEU135      0.0001
    150  N         16.5090  -20.1540   39.7250 N.am  136  ASN136     -0.1972
    151  CA        15.9140  -20.4010   41.0300 C.3   136  ASN136      0.1688
    152  C         16.8310  -19.7910   42.0800 C.2   136  ASN136      0.2292
    153  O         17.8850  -19.2310   41.7620 O.2   136  ASN136     -0.2864
    154  CB        15.6820  -21.8940   41.2630 C.3   136  ASN136      0.1181
    155  CG        16.9190  -22.7300   41.0020 C.2   136  ASN136      0.2629
    156  OD1       18.0270  -22.3860   41.4190 O.2   136  ASN136     -0.2716
    157  ND2       16.7280  -23.8520   40.3190 N.am  136  ASN136     -0.0877
    158  N         18.7220  -21.1620   44.2980 N.3   138  LYS138     -0.1231
    159  CA        20.0160  -21.8440   44.3840 C.3   138  LYS138      0.1693
    160  C         21.0100  -21.2690   43.3740 C.2   138  LYS138      0.2591
    161  O         22.1730  -21.0330   43.7010 O.2   138  LYS138     -0.2718
    162  CB        19.8470  -23.3480   44.1580 C.3   138  LYS138      0.0285
    163  CG        20.8980  -24.2010   44.8490 C.3   138  LYS138      0.0035
    164  CD        21.4160  -25.2930   43.9280 C.3   138  LYS138      0.0206
    165  CE        22.4020  -26.2000   44.6460 C.3   138  LYS138      0.1093
    166  NZ        23.8140  -25.8330   44.3470 N.3   138  LYS138     -0.1314
    167  N         20.5310  -21.0480   42.1480 N.am  139  ALA139     -0.1980
    168  CA        21.3540  -20.4270   41.1150 C.3   139  ALA139      0.1597
    169  C         21.6460  -18.9700   41.4540 C.2   139  ALA139      0.2287
    170  O         22.7630  -18.4830   41.2380 O.2   139  ALA139     -0.2864
    171  CB        20.6600  -20.5360   39.7580 C.3   139  ALA139      0.0319
    172  N         24.3600  -18.6920   43.8930 N.3   142  PHE142     -0.1227
    173  CA        25.5870  -19.0090   43.1710 C.3   142  PHE142      0.1736
    174  C         26.1560  -17.7700   42.4860 C.2   142  PHE142      0.2595
    175  O         27.3500  -17.4750   42.6040 O.2   142  PHE142     -0.2718
    176  CB        25.3020  -20.1200   42.1570 C.3   142  PHE142      0.0547
    177  CG        26.4110  -20.3620   41.1750 C.ar  142  PHE142     -0.0202
    178  CD1       27.5450  -21.0630   41.5500 C.ar  142  PHE142     -0.0042
    179  CD2       26.3030  -19.9210   39.8620 C.ar  142  PHE142     -0.0042
    180  CE1       28.5590  -21.2980   40.6460 C.ar  142  PHE142     -0.0003
    181  CE2       27.3160  -20.1580   38.9510 C.ar  142  PHE142     -0.0003
    182  CZ        28.4470  -20.8410   39.3450 C.ar  142  PHE142     -0.0000
    183  N         25.3140  -17.0310   41.7600 N.am  143  PHE143     -0.1976
    184  CA        25.8130  -15.8730   41.0240 C.3   143  PHE143      0.1639
    185  C         26.1570  -14.7250   41.9650 C.2   143  PHE143      0.2290
    186  O         27.1550  -14.0250   41.7570 O.2   143  PHE143     -0.2864
    187  CB        24.7940  -15.4350   39.9690 C.3   143  PHE143      0.0560
    188  CG        24.7210  -16.3560   38.7740 C.ar  143  PHE143     -0.0200
    189  CD1       25.8280  -16.5370   37.9550 C.ar  143  PHE143     -0.0042
    190  CD2       23.5520  -17.0320   38.4660 C.ar  143  PHE143     -0.0042
    191  CE1       25.7790  -17.3740   36.8630 C.ar  143  PHE143     -0.0003
    192  CE2       23.4950  -17.8740   37.3700 C.ar  143  PHE143     -0.0003
    193  CZ        24.6140  -18.0440   36.5660 C.ar  143  PHE143     -0.0000
    194  N         27.3790  -14.9430   44.9160 N.3   145  ARG145     -0.1245
    195  CA        28.6600  -15.2070   45.5600 C.3   145  ARG145      0.1563
    196  C         29.8260  -14.9140   44.6290 C.2   145  ARG145      0.2260
    197  O         30.9060  -14.5250   45.0920 O.2   145  ARG145     -0.2867
    198  CB        28.7190  -16.6550   46.0440 C.3   145  ARG145      0.0307
    199  CG        29.3340  -16.8030   47.4230 C.3   145  ARG145      0.0489
    200  CD        29.4730  -18.2630   47.8470 C.3   145  ARG145      0.2205
    201  NE        28.3880  -19.1100   47.3540 N.pl3 145  ARG145     -0.0865
    202  CZ        28.5710  -20.1810   46.5870 C.cat 145  ARG145      0.5346
    203  NH1       27.5330  -20.9010   46.1720 N.pl3 145  ARG145      0.1354
    204  NH2       29.7980  -20.5360   46.2340 N.pl3 145  ARG145      0.1354
@<TRIPOS>BOND
     1    46    44    1
     2    45    44    1
     3    44    43    2
     4    43    42    1
     5    42    41    1
     6    33    32    1
     7    33    34    1
     8    32    26   am
     9    41    40    1
    10    40    37    1
    11    24    25    1
    12    19    18    2
    13    34    36   am
    14    34    35    2
    15    36    37    1
    16    25    26    1
    17    25    28    1
    18    26    27    2
    19    39    38    2
    20    37    38    1
    21    18    17    1
    22    30    29    1
    23    38    47   am
    24    17    16    1
    25    17    20    1
    26    28    29    1
    27    23    21    1
    28    29    31    1
    29    47    48    1
    30    20    21    1
    31    48    49    1
    32    48    51    1
    33    21    22    1
    34   136   134   ar
    35    58    57    2
    36    59    56    1
    37    55    49   am
    38    55    56    1
    39    53    52    1
    40    49    50    2
    41    51    52    1
    42   121   122    1
    43   122   125    1
    44   122   123    1
    45    56    57    1
    46    57    60   am
    47   132   133    1
    48   132   129    1
    49   134   133    1
    50   134   135   ar
    51    10     9    2
    52   128   123   am
    53   128   129    1
    54    52    54    1
    55   125   127    1
    56   125   126    1
    57   148   147    1
    58   123   124    2
    59     6     5    1
    60   129   130    1
    61    60    61    1
    62     9     8    1
    63    67    65    1
    64   131   130    2
    65     1     2    1
    66   106   107   ar
    67   106   104   ar
    68    61    62    1
    69    61    64    1
    70     5     2    1
    71    62    63    2
    72   107   105   ar
    73   149   147    1
    74   130   137   am
    75   104   101   ar
    76   147   146    1
    77     2     3    1
    78    65    64    1
    79    97    96    2
    80    11     8    1
    81    11    12    1
    82    64    66    1
    83     8     7    1
    84   105   103   ar
    85   101   103   ar
    86   101    99   ar
    87   193   191   ar
    88   193   192   ar
    89   146   143    1
    90   111   110    2
    91   191   189   ar
    92    12    13    1
    93   103   102   ar
    94   137   138    1
    95   115   114    2
    96    98    99    1
    97    98    95    1
    98    99   100   ar
    99    96    95    1
   100    96   108   am
   101     3     4    2
   102   143   142    1
   103   143   144    1
   104   192   190   ar
   105   142   139   am
   106   114   113    1
   107    95    94    1
   108   109   110    1
   109   109   108    1
   110   110   112   am
   111   139   138    1
   112   139   140    2
   113   102   100   ar
   114   138   141    1
   115   189   188   ar
   116    13    14   ar
   117    13    15   ar
   118   190   188   ar
   119   145   144    2
   120   144   150   am
   121   112   113    1
   122   188   187    1
   123   113   116    1
   124    76    74   am
   125   181   182   ar
   126   181   179   ar
   127    94    92   am
   128    93    92    2
   129   182   180   ar
   130    73    74    1
   131    73    72    1
   132   150   151    1
   133    92    91    1
   134   171   168    1
   135   179   177   ar
   136    74    75    2
   137   187   184    1
   138    68    69    1
   139   116   117    1
   140   117   118    1
   141   157   155   am
   142    88    87    2
   143   180   178   ar
   144    69    72    1
   145    69    70    1
   146   155   154    1
   147   155   156    2
   148   184   183    1
   149   184   185    1
   150   151   154    1
   151   151   152    1
   152   168   169    1
   153   168   167    1
   154   177   178   ar
   155   177   176    1
   156   170   169    2
   157    91    90    1
   158    89    87   am
   159    87    86    1
   160   118   120   ar
   161   118   119   ar
   162   186   185    2
   163   183   174   am
   164   153   152    2
   165    84    83    2
   166    85    86    1
   167    85    82    1
   168    90    83   am
   169    70    71    2
   170    70    77   am
   171    83    82    1
   172   167   160   am
   173   176   173    1
   174   174   175    2
   175   174   173    1
   176    77    78    1
   177    82    81    1
   178    81    79   am
   179   173   172    1
   180   160   161    2
   181   160   159    1
   182    78    79    1
   183    79    80    2
   184   164   165    1
   185   164   163    1
   186   162   159    1
   187   162   163    1
   188   158   159    1
   189   166   165    1
   190   196   197    2
   191   196   195    1
   192   194   195    1
   193   195   198    1
   194   198   199    1
   195   203   202    1
   196   204   202    1
   197   202   201    2
   198   201   200    1
   199   199   200    1
