@<TRIPOS>MOLECULE
tmp/5xvaA00.pdb
 164 154 0 0 0
SMALL
GASTEIGER

@<TRIPOS>ATOM
      1  N          0.6220  -13.9350   19.4460 N.3    29  ILE29      -0.1231
      2  CA        -0.4280  -14.6420   18.7180 C.3    29  ILE29       0.1692
      3  C         -0.7750  -13.9880   17.4040 C.2    29  ILE29       0.2593
      4  O         -1.5550  -14.5710   16.6400 O.2    29  ILE29      -0.2718
      5  CB        -1.7150  -14.8030   19.5560 C.3    29  ILE29       0.0266
      6  CG1       -2.4070  -13.4450   19.7550 C.3    29  ILE29       0.0019
      7  CG2       -1.4230  -15.5170   20.8520 C.3    29  ILE29       0.0020
      8  CD1       -3.7850  -13.5720   20.3210 C.3    29  ILE29       0.0001
      9  N         -0.2680  -12.7940   17.1250 N.am   30  GLY30      -0.1942
     10  CA        -0.6340  -12.1320   15.8920 C.3    30  GLY30       0.2014
     11  C          0.1510  -10.8550   15.7230 C.2    30  GLY30       0.2639
     12  O          0.9990  -10.4980   16.5470 O.2    30  GLY30      -0.2714
     13  N         -0.1420  -10.1710   14.6250 N.am   31  GLU31      -0.1963
     14  CA         0.5420   -8.9290   14.3320 C.3    31  GLU31       0.1733
     15  C         -0.3360   -8.1020   13.4090 C.2    31  GLU31       0.2616
     16  O         -1.2900   -8.5990   12.8050 O.2    31  GLU31      -0.2715
     17  CB         1.9210   -9.1790   13.7120 C.3    31  GLU31       0.0429
     18  CG         1.9590  -10.2220   12.6230 C.3    31  GLU31       0.1163
     19  CD         3.3770  -10.5110   12.1540 C.2    31  GLU31       0.3649
     20  OE1        3.5400  -11.2210   11.1390 O.co2  31  GLU31      -0.2457
     21  OE2        4.3310  -10.0340   12.8060 O.co2  31  GLU31      -0.2457
     22  N         -0.0160   -6.8250   13.3440 N.am   32  GLY32      -0.1955
     23  CA        -0.6480   -5.9190   12.4160 C.3    32  GLY32       0.1869
     24  C          0.3590   -4.8770   12.0020 C.2    32  GLY32       0.2309
     25  O          1.5670   -5.0480   12.2140 O.2    32  GLY32      -0.2863
     26  N          0.6260   -8.5930   18.6790 N.3    37  VAL37      -0.1245
     27  CA        -0.4010   -8.8900   19.6720 C.3    37  VAL37       0.1561
     28  C          0.0460  -10.1210   20.4370 C.2    37  VAL37       0.2260
     29  O          0.3740  -11.1500   19.8340 O.2    37  VAL37      -0.2867
     30  CB        -1.7750   -9.1330   19.0210 C.3    37  VAL37       0.0252
     31  CG1       -2.8260   -9.4950   20.0750 C.3    37  VAL37       0.0019
     32  CG2       -2.2060   -7.9130   18.2300 C.3    37  VAL37       0.0019
     33  N         -5.0030   -9.5550   26.4820 N.3    50  ALA50      -0.1245
     34  CA        -4.2260   -9.2940   25.2830 C.3    50  ALA50       0.1562
     35  C         -3.3250   -8.0920   25.5310 C.2    50  ALA50       0.2260
     36  O         -3.7240   -7.1370   26.2080 O.2    50  ALA50      -0.2867
     37  CB        -5.1510   -9.0440   24.0870 C.3    50  ALA50       0.0290
     38  N         -0.9020   -5.5330   23.2560 N.3    52  LYS52      -0.1245
     39  CA        -0.3010   -5.0680   22.0120 C.3    52  LYS52       0.1561
     40  C          1.0100   -4.3750   22.3210 C.2    52  LYS52       0.2260
     41  O          1.0880   -3.5910   23.2660 O.2    52  LYS52      -0.2867
     42  CB        -1.2330   -4.1040   21.2730 C.3    52  LYS52       0.0271
     43  CG        -2.5410   -4.7210   20.8390 C.3    52  LYS52       0.0035
     44  CD        -3.3080   -3.7990   19.9050 C.3    52  LYS52       0.0206
     45  CE        -3.6410   -2.4920   20.5960 C.3    52  LYS52       0.1093
     46  NZ        -4.5780   -1.6800   19.7830 N.3    52  LYS52      -0.1314
     47  N        -13.7450   -3.3440   21.8920 N.3    81  VAL81      -0.1245
     48  CA       -12.8320   -4.0630   22.7750 C.3    81  VAL81       0.1561
     49  C        -12.3050   -3.1190   23.8470 C.2    81  VAL81       0.2260
     50  O        -11.8160   -2.0200   23.5510 O.2    81  VAL81      -0.2867
     51  CB       -11.6840   -4.6810   21.9640 C.3    81  VAL81       0.0252
     52  CG1      -10.6210   -5.2620   22.8990 C.3    81  VAL81       0.0019
     53  CG2      -12.2320   -5.7520   21.0010 C.3    81  VAL81       0.0019
     54  N         -5.3280   -5.1660   27.0060 N.3    97  MET97      -0.1230
     55  CA        -6.7150   -5.1340   26.5580 C.3    97  MET97       0.1702
     56  C         -7.4250   -6.4410   26.8720 C.2    97  MET97       0.2592
     57  O         -6.8170   -7.4550   27.2090 O.2    97  MET97      -0.2718
     58  CB        -6.8310   -4.8830   25.0500 C.3    97  MET97       0.0401
     59  CG        -5.5870   -4.3620   24.3850 C.3    97  MET97       0.0596
     60  SD        -6.0490   -3.7250   22.7780 S.3    97  MET97      -0.1393
     61  CE        -7.2060   -2.4680   23.3260 C.3    97  MET97       0.0692
     62  N         -8.7440   -6.3860   26.7670 N.am   98  GLU98      -0.1966
     63  CA        -9.5520   -7.5850   26.9170 C.3    98  GLU98       0.1733
     64  C         -9.1970   -8.5700   25.7970 C.2    98  GLU98       0.2616
     65  O         -8.8700   -8.1670   24.6800 O.2    98  GLU98      -0.2715
     66  CB       -11.0320   -7.1620   26.9120 C.3    98  GLU98       0.0429
     67  CG       -12.0100   -7.8990   26.0560 C.3    98  GLU98       0.1163
     68  CD       -13.4220   -7.2850   26.1160 C.2    98  GLU98       0.3649
     69  OE1      -13.6160   -6.1120   25.6950 O.co2  98  GLU98      -0.2457
     70  OE2      -14.3380   -7.9760   26.5940 O.co2  98  GLU98      -0.2457
     71  N         -9.1500   -9.8650   26.1290 N.am   99  PHE99      -0.1960
     72  CA        -8.8090  -10.9040   25.1600 C.3    99  PHE99       0.1771
     73  C        -10.1060  -11.5030   24.6200 C.2    99  PHE99       0.2619
     74  O        -10.9090  -12.0450   25.3920 O.2    99  PHE99      -0.2715
     75  CB        -7.9250  -11.9850   25.7950 C.3    99  PHE99       0.0574
     76  CG        -7.7640  -13.2350   24.9450 C.ar   99  PHE99      -0.0200
     77  CD1       -7.1720  -13.1750   23.6950 C.ar   99  PHE99      -0.0042
     78  CD2       -8.1960  -14.4690   25.4120 C.ar   99  PHE99      -0.0042
     79  CE1       -7.0180  -14.3150   22.9160 C.ar   99  PHE99      -0.0003
     80  CE2       -8.0460  -15.6200   24.6440 C.ar   99  PHE99      -0.0003
     81  CZ        -7.4600  -15.5490   23.3920 C.ar   99  PHE99      -0.0000
     82  N        -10.3050  -11.4010   23.3040 N.am  100  LEU100     -0.1963
     83  CA       -11.4750  -11.9620   22.6320 C.3   100  LEU100      0.1728
     84  C        -11.0900  -13.3120   22.0480 C.2   100  LEU100      0.2616
     85  O        -10.2310  -13.3860   21.1660 O.2   100  LEU100     -0.2715
     86  CB       -11.9960  -11.0380   21.5310 C.3   100  LEU100      0.0311
     87  CG       -13.0270  -10.0890   22.1460 C.3   100  LEU100      0.0022
     88  CD1      -12.3020   -8.9970   22.8860 C.3   100  LEU100      0.0001
     89  CD2      -14.0010   -9.5230   21.1430 C.3   100  LEU100      0.0001
     90  N        -11.7370  -14.3660   22.5370 N.am  101  GLU101     -0.1963
     91  CA       -11.3270  -15.7370   22.2800 C.3   101  GLU101      0.1733
     92  C        -11.9510  -16.3390   21.0240 C.2   101  GLU101      0.2617
     93  O        -11.6830  -17.5060   20.7200 O.2   101  GLU101     -0.2715
     94  CB       -11.6660  -16.6080   23.5030 C.3   101  GLU101      0.0429
     95  CG       -13.1780  -16.7690   23.7910 C.3   101  GLU101      0.1163
     96  CD       -13.8830  -15.4950   24.2740 C.2   101  GLU101      0.3649
     97  OE1      -13.2250  -14.4690   24.4770 O.co2 101  GLU101     -0.2457
     98  OE2      -15.1180  -15.5260   24.4490 O.co2 101  GLU101     -0.2457
     99  N        -12.7740  -15.5920   20.2920 N.am  102  GLY102     -0.1940
    100  CA       -13.2760  -16.0870   19.0220 C.3   102  GLY102      0.2014
    101  C        -12.4220  -15.7390   17.8210 C.2   102  GLY102      0.2639
    102  O        -12.7320  -16.1590   16.7030 O.2   102  GLY102     -0.2714
    103  N        -11.3380  -15.0000   18.0140 N.am  103  GLY103     -0.1939
    104  CA       -10.4760  -14.6070   16.9120 C.3   103  GLY103      0.2014
    105  C        -11.0930  -13.5030   16.0690 C.2   103  GLY103      0.2638
    106  O        -12.0910  -12.8870   16.4350 O.2   103  GLY103     -0.2714
    107  N        -10.4830  -13.2640   14.9110 N.am  104  ALA104     -0.1977
    108  CA       -10.8570  -12.1330   14.0780 C.3   104  ALA104      0.1597
    109  C        -11.7700  -12.5770   12.9410 C.2   104  ALA104      0.2287
    110  O        -11.7370  -13.7300   12.5010 O.2   104  ALA104     -0.2864
    111  CB        -9.6150  -11.4350   13.5120 C.3   104  ALA104      0.0319
    112  N        -10.4680  -14.6330    9.8250 N.3   107  ASP107     -0.1239
    113  CA       -10.3890  -16.0870    9.8110 C.3   107  ASP107      0.1674
    114  C        -11.7140  -16.7160    9.4010 C.2   107  ASP107      0.2266
    115  O        -11.7240  -17.7820    8.7720 O.2   107  ASP107     -0.2867
    116  CB        -9.9420  -16.6020   11.1780 C.3   107  ASP107      0.1410
    117  CG        -8.4730  -16.3230   11.4500 C.2   107  ASP107      0.3668
    118  OD1       -7.6540  -16.4460   10.5090 O.co2 107  ASP107     -0.2456
    119  OD2       -8.1370  -15.9800   12.6040 O.co2 107  ASP107     -0.2456
    120  N        -11.7860   -2.9700    8.7250 N.3   144  LYS144     -0.1245
    121  CA       -11.5260   -4.1230    7.8610 C.3   144  LYS144      0.1561
    122  C        -11.7650   -5.3600    8.7190 C.2   144  LYS144      0.2260
    123  O        -11.8720   -5.2630    9.9470 O.2   144  LYS144     -0.2867
    124  CB       -10.1020   -4.1210    7.2800 C.3   144  LYS144      0.0271
    125  CG        -9.0030   -4.0430    8.3490 C.3   144  LYS144      0.0035
    126  CD        -7.5900   -4.0740    7.7550 C.3   144  LYS144      0.0206
    127  CE        -6.5530   -4.0100    8.8910 C.3   144  LYS144      0.1093
    128  NZ        -5.1750   -3.9070    8.3520 N.3   144  LYS144     -0.1314
    129  N         -9.9220   -7.6970    9.7330 N.3   146  ASP146     -0.1225
    130  CA        -8.9780   -8.0460   10.7930 C.3   146  ASP146      0.1805
    131  C         -9.1210   -7.1570   12.0210 C.2   146  ASP146      0.2598
    132  O         -8.5480   -7.4780   13.0680 O.2   146  ASP146     -0.2718
    133  CB        -7.5280   -8.0030   10.3000 C.3   146  ASP146      0.1424
    134  CG        -6.5740   -8.6880   11.2750 C.2   146  ASP146      0.3668
    135  OD1       -6.7490   -9.9020   11.5190 O.co2 146  ASP146     -0.2456
    136  OD2       -5.6870   -8.0150   11.8280 O.co2 146  ASP146     -0.2456
    137  N         -9.8710   -6.0700   11.9200 N.am  147  SER147     -0.1952
    138  CA       -10.1340   -5.1820   13.0410 C.3   147  SER147      0.1924
    139  C        -11.3440   -5.6060   13.8570 C.2   147  SER147      0.2314
    140  O        -11.6380   -4.9700   14.8740 O.2   147  SER147     -0.2863
    141  CB       -10.3200   -3.7470   12.5280 C.3   147  SER147      0.2116
    142  OG        -9.1380   -3.2860   11.9090 O.3   147  SER147     -0.2180
    143  N        -13.3490   -8.4030   16.1020 N.3   149  LEU149     -0.1245
    144  CA       -13.0870   -9.5600   16.9450 C.3   149  LEU149      0.1561
    145  C        -14.3930  -10.1630   17.4480 C.2   149  LEU149      0.2260
    146  O        -15.4140   -9.4710   17.5650 O.2   149  LEU149     -0.2867
    147  CB       -12.1900   -9.1780   18.1320 C.3   149  LEU149      0.0270
    148  CG       -10.7470   -8.8760   17.7310 C.3   149  LEU149      0.0019
    149  CD1      -10.0230   -8.1870   18.8580 C.3   149  LEU149      0.0001
    150  CD2      -10.0340  -10.1610   17.3250 C.3   149  LEU149      0.0001
    151  N        -11.9540   -3.3760   17.1770 N.3   159  SER159     -0.1202
    152  CA       -10.6400   -3.1960   17.8080 C.3   159  SER159      0.2020
    153  C         -9.7360   -2.4290   16.8420 C.2   159  SER159      0.2618
    154  O        -10.2030   -1.8460   15.8580 O.2   159  SER159     -0.2717
    155  CB       -10.0760   -4.5620   18.2290 C.3   159  SER159      0.2103
    156  OG        -8.8480   -4.4250   18.9340 O.3   159  SER159     -0.2182
    157  N         -8.4310   -2.4070   17.1340 N.am  160  ASP160     -0.1973
    158  CA        -7.3950   -1.7950   16.2880 C.3   160  ASP160      0.1709
    159  C         -7.6740   -0.3160   15.9900 C.2   160  ASP160      0.2293
    160  O         -7.8050    0.1090   14.8360 O.2   160  ASP160     -0.2864
    161  CB        -7.2190   -2.5940   14.9930 C.3   160  ASP160      0.1436
    162  CG        -6.6620   -3.9940   15.2510 C.2   160  ASP160      0.3671
    163  OD1       -6.0970   -4.2210   16.3380 O.co2 160  ASP160     -0.2456
    164  OD2       -6.7690   -4.8640   14.3720 O.co2 160  ASP160     -0.2456
@<TRIPOS>BOND
     1   124   121    1
     2   124   125    1
     3   126   125    1
     4   126   127    1
     5   121   122    1
     6   121   120    1
     7   128   127    1
     8   122   123    2
     9   115   114    2
    10   114   113    1
    11   129   130    1
    12   113   112    1
    13   113   116    1
    14   133   130    1
    15   133   134    1
    16   118   117   ar
    17   130   131    1
    18    20    19   ar
    19   116   117    1
    20   134   135   ar
    21   134   136   ar
    22   117   119   ar
    23   142   141    1
    24   137   131   am
    25   137   138    1
    26    24    25    2
    27    24    23    1
    28   131   132    2
    29    19    18    1
    30    19    21   ar
    31    23    22    1
    32   110   109    2
    33   141   138    1
    34    18    17    1
    35    16    15    2
    36   109   108    1
    37   138   139    1
    38    22    15   am
    39    15    14    1
    40   111   108    1
    41    17    14    1
    42   139   140    2
    43   108   107    1
    44    14    13    1
    45   164   162   ar
    46    13    11   am
    47   160   159    2
    48   107   105   am
    49   161   162    1
    50   161   158    1
    51   162   163   ar
    52    11    10    1
    53    11    12    2
    54   154   153    2
    55    10     9    1
    56   159   158    1
    57   105   106    2
    58   105   104    1
    59   143   144    1
    60   158   157    1
    61     4     3    2
    62   102   101    2
    63   153   157   am
    64   153   152    1
    65   104   103    1
    66   144   145    1
    67   144   147    1
    68     9     3   am
    69   151   152    1
    70   150   148    1
    71     3     2    1
    72   145   146    2
    73   148   147    1
    74   148   149    1
    75   152   155    1
    76   101   103   am
    77   101   100    1
    78   155   156    1
    79    32    30    1
    80    26    27    1
    81     2     1    1
    82     2     5    1
    83    30    27    1
    84    30    31    1
    85   100    99    1
    86     5     6    1
    87     5     7    1
    88    27    28    1
    89     6     8    1
    90    46    45    1
    91    29    28    2
    92    44    45    1
    93    44    43    1
    94    99    92   am
    95    93    92    2
    96    43    42    1
    97    53    51    1
    98    92    91    1
    99    89    87    1
   100    85    84    2
   101    42    39    1
   102    86    87    1
   103    86    83    1
   104    47    48    1
   105    51    48    1
   106    51    52    1
   107    39    40    1
   108    39    38    1
   109    84    90   am
   110    84    83    1
   111    87    88    1
   112    91    90    1
   113    91    94    1
   114    40    41    2
   115    83    82    1
   116    48    49    1
   117    60    61    1
   118    60    59    1
   119    79    81   ar
   120    79    77   ar
   121    82    73   am
   122    81    80   ar
   123    94    95    1
   124    50    49    2
   125    77    76   ar
   126    95    96    1
   127    37    34    1
   128    96    98   ar
   129    96    97   ar
   130    59    58    1
   131    73    72    1
   132    73    74    2
   133    80    78   ar
   134    65    64    2
   135    76    78   ar
   136    76    75    1
   137    58    55    1
   138    72    75    1
   139    72    71    1
   140    34    35    1
   141    34    33    1
   142    35    36    2
   143    69    68   ar
   144    64    71   am
   145    64    63    1
   146    67    68    1
   147    67    66    1
   148    68    70   ar
   149    55    56    1
   150    55    54    1
   151    62    56   am
   152    62    63    1
   153    56    57    2
   154    66    63    1
