@<TRIPOS>MOLECULE
tmp/5xvcA00.pdb
 88 86 0 0 0
SMALL
GASTEIGER

@<TRIPOS>ATOM
      1  N         74.5600   18.6320   -0.3560 N.3   175  ALA175     -0.1245
      2  CA        73.1560   18.5530    0.0570 C.3   175  ALA175      0.1562
      3  C         72.9720   18.3960    1.5820 C.2   175  ALA175      0.2260
      4  O         71.8510   18.4170    2.0860 O.2   175  ALA175     -0.2867
      5  CB        72.4440   17.4360   -0.6900 C.3   175  ALA175      0.0290
      6  N         72.7260   20.0140    4.8090 N.3   177  GLN177     -0.1245
      7  CA        72.4470   21.4100    5.1380 C.3   177  GLN177      0.1566
      8  C         72.3050   21.7220    6.6350 C.2   177  GLN177      0.2260
      9  O         72.0490   22.8650    7.0100 O.2   177  GLN177     -0.2867
     10  CB        71.2090   21.8940    4.3720 C.3   177  GLN177      0.0367
     11  CG        71.3600   21.7730    2.8400 C.3   177  GLN177      0.0905
     12  CD        70.0450   21.8570    2.1070 C.2   177  GLN177      0.2608
     13  OE1       69.0080   22.1820    2.6930 O.2   177  GLN177     -0.2717
     14  NE2       70.0720   21.5590    0.8120 N.am  177  GLN177     -0.0878
     15  N         65.3830   21.6430    5.4680 N.3   268  TYR268     -0.1228
     16  CA        65.3220   21.0520    4.1420 C.3   268  TYR268      0.1721
     17  C         63.9850   21.3400    3.4530 C.2   268  TYR268      0.2437
     18  O         63.3340   20.4170    2.9760 O.2   268  TYR268     -0.2733
     19  CB        65.5470   19.5470    4.2440 C.3   268  TYR268      0.0547
     20  CG        66.9600   19.1320    4.5890 C.ar  268  TYR268     -0.0200
     21  CD1       67.9190   19.0090    3.6000 C.ar  268  TYR268     -0.0009
     22  CD2       67.3290   18.8310    5.9100 C.ar  268  TYR268     -0.0009
     23  CE1       69.2090   18.6080    3.8960 C.ar  268  TYR268      0.0417
     24  CE2       68.6280   18.4280    6.2210 C.ar  268  TYR268      0.0417
     25  CZ        69.5620   18.3190    5.2060 C.ar  268  TYR268      0.1957
     26  OH        70.8490   17.9110    5.4810 O.3   268  TYR268     -0.2866
     27  N         63.5750   22.6240    3.3970 N.am  269  PRO269     -0.2718
     28  CA        62.2150   22.9340    2.9320 C.3   269  PRO269      0.1535
     29  C         61.8930   22.5140    1.4860 C.2   269  PRO269      0.2598
     30  O         60.7210   22.2770    1.2090 O.2   269  PRO269     -0.2715
     31  CB        62.1270   24.4620    3.0800 C.3   269  PRO269      0.0310
     32  CG        63.5510   24.9300    3.0090 C.3   269  PRO269      0.0237
     33  CD        64.3350   23.8520    3.7190 C.3   269  PRO269      0.0939
     34  N         62.8770   22.4030    0.5950 N.am  270  GLU270     -0.1964
     35  CA        62.5530   22.0280   -0.7870 C.3   270  GLU270      0.1733
     36  C         62.2080   20.5480   -0.9010 C.2   270  GLU270      0.2616
     37  O         61.6630   20.1030   -1.9200 O.2   270  GLU270     -0.2715
     38  CB        63.6740   22.3930   -1.7700 C.3   270  GLU270      0.0429
     39  CG        64.0390   23.8890   -1.7890 C.3   270  GLU270      0.1163
     40  CD        62.8250   24.7990   -1.9610 C.2   270  GLU270      0.3649
     41  OE1       62.0310   24.5700   -2.9040 O.co2 270  GLU270     -0.2457
     42  OE2       62.6620   25.7450   -1.1520 O.co2 270  GLU270     -0.2457
     43  N         62.5300   19.7770    0.1370 N.am  271  TRP271     -0.1974
     44  CA        62.1450   18.3650    0.1430 C.3   271  TRP271      0.1640
     45  C         60.6620   18.1800    0.4810 C.2   271  TRP271      0.2290
     46  O         60.1590   17.0560    0.5360 O.2   271  TRP271     -0.2864
     47  CB        63.0810   17.5300    1.0310 C.3   271  TRP271      0.0576
     48  CG        64.4470   17.4940    0.4480 C.ar  271  TRP271      0.0006
     49  CD1       65.4150   18.4550    0.5650 C.ar  271  TRP271      0.0946
     50  CD2       64.9970   16.4740   -0.3920 C.ar  271  TRP271      0.0152
     51  NE1       66.5300   18.0870   -0.1430 N.ar  271  TRP271     -0.2442
     52  CE2       66.2930   16.8790   -0.7470 C.ar  271  TRP271      0.0810
     53  CE3       64.5060   15.2680   -0.8990 C.ar  271  TRP271      0.0012
     54  CZ2       67.1160   16.1080   -1.5590 C.ar  271  TRP271      0.0191
     55  CZ3       65.3200   14.5110   -1.7110 C.ar  271  TRP271      0.0001
     56  CH2       66.6090   14.9320   -2.0320 C.ar  271  TRP271      0.0015
     57  N         59.3670   17.9610   -3.6480 N.3   274  ARG274     -0.1245
     58  CA        59.7510   16.9200   -4.5850 C.3   274  ARG274      0.1563
     59  C         59.5470   15.5660   -3.9030 C.2   274  ARG274      0.2260
     60  O         59.3200   15.5050   -2.6950 O.2   274  ARG274     -0.2867
     61  CB        61.2100   17.0980   -4.9790 C.3   274  ARG274      0.0307
     62  CG        62.1700   16.9210   -3.7940 C.3   274  ARG274      0.0489
     63  CD        63.6090   17.0830   -4.2260 C.3   274  ARG274      0.2205
     64  NE        63.8510   18.4350   -4.7150 N.pl3 274  ARG274     -0.0865
     65  CZ        64.6800   19.2990   -4.1380 C.cat 274  ARG274      0.5346
     66  NH1       65.3680   18.9420   -3.0550 N.pl3 274  ARG274      0.1354
     67  NH2       64.8350   20.5100   -4.6540 N.pl3 274  ARG274      0.1354
     68  N         67.2570   16.4170   -7.9530 N.3   525  PRO525     -0.2116
     69  CA        68.5120   17.0670   -8.3540 C.3   525  PRO525      0.1372
     70  C         69.6990   16.2320   -7.9120 C.2   525  PRO525      0.2244
     71  O         69.6090   15.5620   -6.8820 O.2   525  PRO525     -0.2868
     72  CB        68.4890   18.4030   -7.5910 C.3   525  PRO525      0.0268
     73  CG        67.6080   18.1760   -6.4420 C.3   525  PRO525      0.0207
     74  CD        66.5950   17.1230   -6.8410 C.3   525  PRO525      0.0892
     75  N         73.8350   16.6300   -7.2590 N.3   527  ALA527     -0.1245
     76  CA        75.0330   17.4660   -7.2000 C.3   527  ALA527      0.1562
     77  C         76.2640   16.7000   -7.6550 C.2   527  ALA527      0.2260
     78  O         77.1900   17.2730   -8.2190 O.2   527  ALA527     -0.2867
     79  CB        75.2400   18.0150   -5.7960 C.3   527  ALA527      0.0290
     80  N         70.8880   12.3170   -3.0340 N.3   534  GLU534     -0.1245
     81  CA        69.5420   12.8300   -3.2090 C.3   534  GLU534      0.1567
     82  C         68.5110   11.7410   -3.5910 C.2   534  GLU534      0.2260
     83  O         67.3490   11.8170   -3.1920 O.2   534  GLU534     -0.2867
     84  CB        69.5600   13.9730   -4.2280 C.3   534  GLU534      0.0388
     85  CG        70.5000   15.1430   -3.8490 C.3   534  GLU534      0.1160
     86  CD        71.8710   15.0680   -4.5210 C.2   534  GLU534      0.3649
     87  OE1       72.3890   13.9520   -4.7720 O.co2 534  GLU534     -0.2457
     88  OE2       72.4420   16.1390   -4.7920 O.co2 534  GLU534     -0.2457
@<TRIPOS>BOND
     1    69    68    1
     2    69    70    1
     3    69    72    1
     4    78    77    2
     5    68    74    1
     6    70    71    2
     7    77    76    1
     8    72    73    1
     9    75    76    1
    10    76    79    1
    11    74    73    1
    12    61    58    1
    13    61    62    1
    14    88    86   ar
    15    87    86   ar
    16    64    63    1
    17    64    65    2
    18    67    65    1
    19    58    59    1
    20    58    57    1
    21    86    85    1
    22    84    85    1
    23    84    81    1
    24    63    62    1
    25    65    66    1
    26    59    60    2
    27    82    81    1
    28    82    83    2
    29    81    80    1
    30    41    40   ar
    31    56    55   ar
    32    56    54   ar
    33    40    39    1
    34    40    42   ar
    35    37    36    2
    36    39    38    1
    37    38    35    1
    38    55    53   ar
    39    54    52   ar
    40    36    35    1
    41    36    43   am
    42    53    50   ar
    43    35    34    1
    44    52    50   ar
    45    52    51   ar
    46     5     2    1
    47    50    48   ar
    48     1     2    1
    49    51    49   ar
    50     2     3    1
    51    43    44    1
    52    44    45    1
    53    44    47    1
    54    48    49   ar
    55    48    47    1
    56    45    46    2
    57    34    29   am
    58    14    12   am
    59    30    29    2
    60    29    28    1
    61     3     4    2
    62    12    13    2
    63    12    11    1
    64    11    10    1
    65    28    31    1
    66    28    27    1
    67    18    17    2
    68    32    31    1
    69    32    33    1
    70    27    17   am
    71    27    33    1
    72    17    16    1
    73    21    23   ar
    74    21    20   ar
    75    23    25   ar
    76    16    19    1
    77    16    15    1
    78    19    20    1
    79    10     7    1
    80    20    22   ar
    81     6     7    1
    82     7     8    1
    83    25    26    1
    84    25    24   ar
    85    22    24   ar
    86     8     9    2
