@<TRIPOS>MOLECULE
tmp/5xvfA00.pdb
 149 140 0 0 0
SMALL
GASTEIGER

@<TRIPOS>ATOM
      1  N         84.1760   25.3580  196.9030 N.3    29  ILE29      -0.1231
      2  CA        83.2540   24.8900  195.8660 C.3    29  ILE29       0.1692
      3  C         83.2900   25.7840  194.6290 C.2    29  ILE29       0.2593
      4  O         82.5060   25.5870  193.6930 O.2    29  ILE29      -0.2718
      5  CB        81.7980   24.7880  196.3680 C.3    29  ILE29       0.0266
      6  CG1       81.2250   26.1680  196.6980 C.3    29  ILE29       0.0019
      7  CG2       81.6630   23.8130  197.5340 C.3    29  ILE29       0.0020
      8  CD1       79.7360   26.1420  197.1000 C.3    29  ILE29       0.0001
      9  N         84.1650   26.7740  194.5970 N.am   30  GLY30      -0.1942
     10  CA        84.1680   27.6130  193.4220 C.3    30  GLY30       0.2014
     11  C         84.9280   28.8980  193.6190 C.2    30  GLY30       0.2639
     12  O         85.3430   29.2610  194.7250 O.2    30  GLY30      -0.2714
     13  N         85.1030   29.5800  192.4910 N.am   31  GLU31      -0.1963
     14  CA        85.7180   30.8900  192.4210 C.3    31  GLU31       0.1733
     15  C         84.7910   31.8240  191.6600 C.2    31  GLU31       0.2616
     16  O         84.0500   31.4030  190.7670 O.2    31  GLU31      -0.2715
     17  CB        87.0900   30.8500  191.7260 C.3    31  GLU31       0.0429
     18  CG        88.0240   29.8530  192.3370 C.3    31  GLU31       0.1163
     19  CD        89.4130   30.0330  191.8340 C.2    31  GLU31       0.3649
     20  OE1       89.6250   30.9930  191.0650 O.co2  31  GLU31      -0.2457
     21  OE2       90.2890   29.2250  192.2070 O.co2  31  GLU31      -0.2457
     22  N         84.8200   33.0970  192.0520 N.am   32  GLY32      -0.1955
     23  CA        84.3120   34.1760  191.2400 C.3    32  GLY32       0.1869
     24  C         85.4440   35.1360  190.9150 C.2    32  GLY32       0.2309
     25  O         86.6110   34.9050  191.2580 O.2    32  GLY32      -0.2863
     26  N         84.2230   30.6880  197.1010 N.3    37  VAL37      -0.1245
     27  CA        82.9950   30.3280  197.8060 C.3    37  VAL37       0.1561
     28  C         83.1940   28.9750  198.4880 C.2    37  VAL37       0.2260
     29  O         83.5420   27.9870  197.8290 O.2    37  VAL37      -0.2867
     30  CB        81.7870   30.2940  196.8480 C.3    37  VAL37       0.0252
     31  CG1       80.5410   29.8930  197.5950 C.3    37  VAL37       0.0019
     32  CG2       81.5780   31.6540  196.1810 C.3    37  VAL37       0.0019
     33  N         81.5900   25.9860  201.3940 N.3    39  ILE39      -0.1245
     34  CA        80.5920   25.4840  202.3250 C.3    39  ILE39       0.1561
     35  C         81.2410   25.4710  203.6960 C.2    39  ILE39       0.2260
     36  O         82.4470   25.2410  203.8250 O.2    39  ILE39      -0.2867
     37  CB        80.1090   24.0750  201.9360 C.3    39  ILE39       0.0252
     38  CG1       79.7080   24.0380  200.4970 C.3    39  ILE39       0.0019
     39  CG2       78.8840   23.6720  202.7230 C.3    39  ILE39       0.0019
     40  CD1       79.0710   22.7400  200.1600 C.3    39  ILE39       0.0001
     41  N         76.9420   28.9450  203.0750 N.3    50  ALA50      -0.1245
     42  CA        77.9720   29.3670  202.1340 C.3    50  ALA50       0.1562
     43  C         78.7220   30.5730  202.6930 C.2    50  ALA50       0.2260
     44  O         78.1230   31.4650  203.2990 O.2    50  ALA50      -0.2867
     45  CB        77.3500   29.7360  200.7880 C.3    50  ALA50       0.0290
     46  N         81.4880   33.4030  201.3300 N.3    52  LYS52      -0.1245
     47  CA        82.2470   34.0150  200.2420 C.3    52  LYS52       0.1561
     48  C         83.4220   34.7490  200.8560 C.2    52  LYS52       0.2260
     49  O         83.2480   35.4880  201.8340 O.2    52  LYS52      -0.2867
     50  CB        81.3700   34.9870  199.4520 C.3    52  LYS52       0.0271
     51  CG        81.8940   35.4380  198.0890 C.3    52  LYS52       0.0035
     52  CD        80.7490   36.0910  197.3370 C.3    52  LYS52       0.0206
     53  CE        81.1120   36.5210  195.9320 C.3    52  LYS52       0.1093
     54  NZ        79.9520   37.2940  195.3850 N.3    52  LYS52      -0.1314
     55  N         69.4720   35.5880  197.2000 N.3    81  VAL81      -0.1245
     56  CA        70.2650   34.8770  198.1950 C.3    81  VAL81       0.1561
     57  C         70.1620   35.6270  199.5120 C.2    81  VAL81       0.2260
     58  O         70.2230   36.8600  199.5520 O.2    81  VAL81      -0.2867
     59  CB        71.7180   34.7340  197.7040 C.3    81  VAL81       0.0252
     60  CG1       72.6010   34.0220  198.7410 C.3    81  VAL81       0.0019
     61  CG2       71.7350   33.9650  196.3960 C.3    81  VAL81       0.0019
     62  N         76.0980   33.2460  204.1320 N.3    97  MET97      -0.1230
     63  CA        74.7560   33.2300  203.5540 C.3    97  MET97       0.1702
     64  C         74.2230   31.7970  203.4820 C.2    97  MET97       0.2592
     65  O         74.8810   30.8380  203.9120 O.2    97  MET97      -0.2718
     66  CB        74.7680   33.8910  202.1810 C.3    97  MET97       0.0401
     67  CG        76.0020   33.6050  201.3810 C.3    97  MET97       0.0596
     68  SD        76.3030   34.7630  200.0140 S.3    97  MET97      -0.1393
     69  CE        78.0280   34.4320  199.8030 C.3    97  MET97       0.0692
     70  N         73.0060   31.6530  202.9510 N.am   98  GLU98      -0.1966
     71  CA        72.4130   30.3260  202.8200 C.3    98  GLU98       0.1733
     72  C         73.2190   29.4940  201.8330 C.2    98  GLU98       0.2616
     73  O         73.8920   30.0240  200.9450 O.2    98  GLU98      -0.2715
     74  CB        70.9390   30.3910  202.3720 C.3    98  GLU98       0.0429
     75  CG        70.5880   31.3780  201.2560 C.3    98  GLU98       0.1163
     76  CD        69.1300   31.2470  200.7680 C.2    98  GLU98       0.3649
     77  OE1       68.4720   30.2230  201.0720 O.co2  98  GLU98      -0.2457
     78  OE2       68.6330   32.1750  200.0850 O.co2  98  GLU98      -0.2457
     79  N         73.1690   28.1770  202.0190 N.am   99  PHE99      -0.1960
     80  CA        73.7690   27.2290  201.0870 C.3    99  PHE99       0.1771
     81  C         72.6970   26.7700  200.1060 C.2    99  PHE99       0.2619
     82  O         71.7880   26.0220  200.4740 O.2    99  PHE99      -0.2715
     83  CB        74.3710   26.0340  201.8260 C.3    99  PHE99       0.0574
     84  CG        74.8720   24.9590  200.9070 C.ar   99  PHE99      -0.0200
     85  CD1       75.5300   25.2890  199.7300 C.ar   99  PHE99      -0.0042
     86  CD2       74.7070   23.6200  201.2230 C.ar   99  PHE99      -0.0042
     87  CE1       75.9980   24.2920  198.8770 C.ar   99  PHE99      -0.0003
     88  CE2       75.1700   22.6230  200.3800 C.ar   99  PHE99      -0.0003
     89  CZ        75.8150   22.9650  199.1960 C.ar   99  PHE99      -0.0000
     90  N         72.8010   27.2110  198.8560 N.am  100  LEU100     -0.1963
     91  CA        71.8690   26.7900  197.8120 C.3   100  LEU100      0.1728
     92  C         72.4560   25.5470  197.1510 C.2   100  LEU100      0.2616
     93  O         73.3780   25.6310  196.3280 O.2   100  LEU100     -0.2715
     94  CB        71.6160   27.9360  196.8410 C.3   100  LEU100      0.0311
     95  CG        71.0430   29.1010  197.6680 C.3   100  LEU100      0.0022
     96  CD1       71.2430   30.4440  197.0090 C.3   100  LEU100      0.0001
     97  CD2       69.5710   28.8650  197.9400 C.3   100  LEU100      0.0001
     98  N         71.9010   24.3840  197.5090 N.am  101  GLU101     -0.1963
     99  CA        72.5080   23.0960  197.1990 C.3   101  GLU101      0.1733
    100  C         72.2400   22.5980  195.7780 C.2   101  GLU101      0.2617
    101  O         72.7990   21.5610  195.4080 O.2   101  GLU101     -0.2715
    102  CB        72.0560   22.0370  198.2220 C.3   101  GLU101      0.0429
    103  CG        70.6120   21.5610  198.1160 C.3   101  GLU101      0.1163
    104  CD        69.5940   22.6020  198.5510 C.2   101  GLU101      0.3649
    105  OE1       68.4360   22.5190  198.0810 O.co2 101  GLU101     -0.2457
    106  OE2       69.9400   23.4980  199.3570 O.co2 101  GLU101     -0.2457
    107  N         71.4450   23.3100  194.9600 N.am  102  GLY102     -0.1940
    108  CA        71.2140   22.8990  193.5840 C.3   102  GLY102      0.2014
    109  C         72.2010   23.4280  192.5640 C.2   102  GLY102      0.2639
    110  O         71.9530   23.3260  191.3600 O.2   102  GLY102     -0.2714
    111  N         73.2990   24.0260  193.0100 N.am  103  GLY103     -0.1939
    112  CA        74.3280   24.6420  192.2040 C.3   103  GLY103      0.2014
    113  C         73.8490   25.8470  191.4010 C.2   103  GLY103      0.2638
    114  O         72.7500   26.3680  191.5670 O.2   103  GLY103     -0.2714
    115  N         74.7230   26.2710  190.4970 N.am  104  ALA104     -0.1977
    116  CA        74.4290   27.3850  189.6140 C.3   104  ALA104      0.1597
    117  C         73.7330   26.9030  188.3430 C.2   104  ALA104      0.2287
    118  O         73.8210   25.7330  187.9560 O.2   104  ALA104     -0.2864
    119  CB        75.7080   28.1570  189.2780 C.3   104  ALA104      0.0319
    120  N         75.7650   31.9190  185.5610 N.3   146  ASP146     -0.1239
    121  CA        76.6550   31.7220  186.7050 C.3   146  ASP146      0.1674
    122  C         76.1770   32.4640  187.9500 C.2   146  ASP146      0.2266
    123  O         76.5330   32.0740  189.0640 O.2   146  ASP146     -0.2867
    124  CB        78.0820   32.1790  186.3630 C.3   146  ASP146      0.1410
    125  CG        78.6770   31.4350  185.1880 C.2   146  ASP146      0.3668
    126  OD1       78.7750   30.1960  185.2610 O.co2 146  ASP146     -0.2456
    127  OD2       79.0430   32.0880  184.1830 O.co2 146  ASP146     -0.2456
    128  N         71.3030   30.7950  191.2590 N.3   149  LEU149     -0.1245
    129  CA        71.4710   29.6410  192.1270 C.3   149  LEU149      0.1561
    130  C         70.1350   28.9420  192.3210 C.2   149  LEU149      0.2260
    131  O         69.0690   29.5740  192.2600 O.2   149  LEU149     -0.2867
    132  CB        72.0660   30.0550  193.4620 C.3   149  LEU149      0.0270
    133  CG        73.5070   30.5460  193.3300 C.3   149  LEU149      0.0019
    134  CD1       74.1170   30.8390  194.7100 C.3   149  LEU149      0.0001
    135  CD2       74.3240   29.5070  192.6050 C.3   149  LEU149      0.0001
    136  N         72.0990   35.9260  192.5990 N.3   159  SER159     -0.1202
    137  CA        73.2700   35.9720  193.4710 C.3   159  SER159      0.2020
    138  C         74.3480   36.8340  192.8290 C.2   159  SER159      0.2618
    139  O         74.1060   37.5480  191.8510 O.2   159  SER159     -0.2717
    140  CB        73.8030   34.5630  193.7420 C.3   159  SER159      0.2103
    141  OG        74.7770   34.5990  194.7740 O.3   159  SER159     -0.2182
    142  N         75.5530   36.7480  193.3840 N.am  160  ASP160     -0.1973
    143  CA        76.7180   37.4700  192.8820 C.3   160  ASP160      0.1709
    144  C         76.3910   38.9440  192.6520 C.2   160  ASP160      0.2293
    145  O         76.3260   39.4130  191.5200 O.2   160  ASP160     -0.2864
    146  CB        77.2430   36.8270  191.5940 C.3   160  ASP160      0.1436
    147  CG        78.2410   35.7060  191.8650 C.2   160  ASP160      0.3671
    148  OD1       79.1260   35.8740  192.7380 O.co2 160  ASP160     -0.2456
    149  OD2       78.1310   34.6410  191.2270 O.co2 160  ASP160     -0.2456
@<TRIPOS>BOND
     1   127   125   ar
     2   125   126   ar
     3   125   124    1
     4   120   121    1
     5   124   121    1
     6   121   122    1
     7   122   123    2
     8   118   117    2
     9   117   116    1
    10   119   116    1
    11   116   115    1
    12   115   113   am
    13    16    15    2
    14    24    23    1
    15    24    25    2
    16    20    19   ar
    17   149   147   ar
    18    23    22    1
    19   128   129    1
    20   110   109    2
    21   113   114    2
    22   113   112    1
    23   145   144    2
    24   146   147    1
    25   146   143    1
    26    15    22   am
    27    15    14    1
    28    17    18    1
    29    17    14    1
    30    19    21   ar
    31    19    18    1
    32   139   138    2
    33   147   148   ar
    34   129   130    1
    35   129   132    1
    36   112   111    1
    37   131   130    2
    38    14    13    1
    39    13    11   am
    40   109   111   am
    41   109   108    1
    42   136   137    1
    43   135   133    1
    44   144   143    1
    45   138   142   am
    46   138   137    1
    47   143   142    1
    48   133   132    1
    49   133   134    1
    50    10    11    1
    51    10     9    1
    52   137   140    1
    53   108   107    1
    54    11    12    2
    55     4     3    2
    56   140   141    1
    57     9     3   am
    58     3     2    1
    59   107   100   am
    60    54    53    1
    61   101   100    2
    62   100    99    1
    63     2     5    1
    64     2     1    1
    65    53    52    1
    66    32    30    1
    67    93    92    2
    68     5     6    1
    69     5     7    1
    70    61    59    1
    71     6     8    1
    72    94    95    1
    73    94    91    1
    74    30    31    1
    75    30    27    1
    76    96    95    1
    77    26    27    1
    78    92    98   am
    79    92    91    1
    80    99    98    1
    81    99   102    1
    82    55    56    1
    83    52    51    1
    84    95    97    1
    85    59    56    1
    86    59    60    1
    87    27    28    1
    88    91    90    1
    89    29    28    2
    90   105   104   ar
    91    51    50    1
    92   103   102    1
    93   103   104    1
    94    56    57    1
    95   104   106   ar
    96    90    81   am
    97    87    89   ar
    98    87    85   ar
    99    89    88   ar
   100    50    47    1
   101    57    58    2
   102    85    84   ar
   103    69    68    1
   104    68    67    1
   105    78    76   ar
   106    81    82    2
   107    81    80    1
   108    40    38    1
   109    47    48    1
   110    47    46    1
   111    88    86   ar
   112    38    37    1
   113    76    77   ar
   114    76    75    1
   115    45    42    1
   116    48    49    2
   117    84    86   ar
   118    84    83    1
   119    73    72    2
   120    80    83    1
   121    80    79    1
   122    75    74    1
   123    67    66    1
   124    33    34    1
   125    72    79   am
   126    72    71    1
   127    37    34    1
   128    37    39    1
   129    42    43    1
   130    42    41    1
   131    66    63    1
   132    34    35    1
   133    74    71    1
   134    43    44    2
   135    71    70    1
   136    70    64   am
   137    64    63    1
   138    64    65    2
   139    63    62    1
   140    35    36    2
