@<TRIPOS>MOLECULE
tmp/5xvhA00.pdb
 102 96 0 0 0
SMALL
GASTEIGER

@<TRIPOS>ATOM
      1  N        -25.0400  -26.1130   12.7670 N.3    24  MET24      -0.1245
      2  CA       -24.0160  -25.2240   12.2150 C.3    24  MET24       0.1570
      3  C        -24.4750  -24.4480   10.9750 C.2    24  MET24       0.2261
      4  O        -24.2490  -23.2820   10.8450 O.2    24  MET24      -0.2867
      5  CB       -22.7700  -26.0310   11.8650 C.3    24  MET24       0.0387
      6  CG       -22.1910  -26.7880   13.0100 C.3    24  MET24       0.0595
      7  SD       -21.4000  -25.6930   14.2370 S.3    24  MET24      -0.1393
      8  CE       -20.0080  -25.0430   13.2600 C.3    24  MET24       0.0692
      9  N        -14.5430  -26.7430    9.9580 N.3   133  VAL133     -0.1231
     10  CA       -14.5020  -25.6630   10.9140 C.3   133  VAL133      0.1692
     11  C        -14.3700  -26.1300   12.3530 C.2   133  VAL133      0.2593
     12  O        -14.6260  -27.2220   12.6920 O.2   133  VAL133     -0.2718
     13  CB       -15.7490  -24.7620   10.7970 C.3   133  VAL133      0.0266
     14  CG1      -16.0230  -24.4370    9.3620 C.3   133  VAL133      0.0020
     15  CG2      -16.9590  -25.4710   11.3410 C.3   133  VAL133      0.0020
     16  N        -13.9280  -25.2120   13.1910 N.am  134  THR134     -0.1939
     17  CA       -13.9000  -25.4750   14.6330 C.3   134  THR134      0.2028
     18  C        -14.3790  -24.2330   15.3560 C.2   134  THR134      0.2643
     19  O        -14.3010  -23.1700   14.8310 O.2   134  THR134     -0.2714
     20  CB       -12.5140  -25.8950   15.1600 C.3   134  THR134      0.1808
     21  OG1      -12.6130  -26.1990   16.5370 O.3   134  THR134     -0.2208
     22  CG2      -11.5460  -24.7850   15.0290 C.3   134  THR134      0.0379
     23  N        -14.9480  -24.4290   16.5300 N.am  135  GLY135     -0.1939
     24  CA       -15.5500  -23.3540   17.2720 C.3   135  GLY135      0.2014
     25  C        -16.9450  -23.6500   17.7390 C.2   135  GLY135      0.2639
     26  O        -17.5020  -22.9590   18.5350 O.2   135  GLY135     -0.2714
     27  N        -17.4840  -24.7090   17.2140 N.am  136  GLY136     -0.1954
     28  CA       -18.7570  -25.1800   17.6920 C.3   136  GLY136      0.1869
     29  C        -19.9540  -24.3510   17.2690 C.2   136  GLY136      0.2309
     30  O        -19.8500  -23.4790   16.5440 O.2   136  GLY136     -0.2863
     31  N         -8.7790  -30.9490   10.5270 N.3   183  LYS183     -0.1245
     32  CA        -9.9590  -31.1780   11.3300 C.3   183  LYS183      0.1561
     33  C         -9.8900  -32.4820   12.1170 C.2   183  LYS183      0.2260
     34  O        -10.2880  -32.5240   13.2100 O.2   183  LYS183     -0.2867
     35  CB       -11.2330  -31.1130   10.4710 C.3   183  LYS183      0.0271
     36  CG       -12.5380  -31.2700   11.2640 C.3   183  LYS183      0.0035
     37  CD       -12.7310  -30.2020   12.3350 C.3   183  LYS183      0.0206
     38  CE       -14.1280  -30.2930   12.9330 C.3   183  LYS183      0.1093
     39  NZ       -14.3490  -29.5030   14.1590 N.3   183  LYS183     -0.1314
     40  N         -7.7500  -31.9740   15.0290 N.3   186  ASN186     -0.1225
     41  CA        -8.5330  -31.2350   15.9570 C.3   186  ASN186      0.1785
     42  C         -9.5120  -32.1140   16.7240 C.2   186  ASN186      0.2597
     43  O         -9.7130  -31.9030   17.8360 O.2   186  ASN186     -0.2718
     44  CB        -9.3270  -30.2130   15.1460 C.3   186  ASN186      0.1169
     45  CG       -10.0290  -29.1910   15.9720 C.2   186  ASN186      0.2627
     46  OD1      -11.2120  -29.3040   16.2830 O.2   186  ASN186     -0.2716
     47  ND2       -9.3350  -28.1660   16.2520 N.am  186  ASN186     -0.0877
     48  N        -10.1520  -33.0370   16.0380 N.am  187  GLN187     -0.1979
     49  CA       -11.1110  -33.8940   16.6820 C.3   187  GLN187      0.1601
     50  C        -10.5130  -34.8690   17.6990 C.2   187  GLN187      0.2287
     51  O        -11.1540  -35.2540   18.6090 O.2   187  GLN187     -0.2864
     52  CB       -11.9920  -34.6300   15.6650 C.3   187  GLN187      0.0394
     53  CG       -12.7290  -33.6910   14.7570 C.3   187  GLN187      0.0908
     54  CD       -13.5180  -32.6580   15.5160 C.2   187  GLN187      0.2608
     55  OE1      -13.0350  -31.5990   15.7580 O.2   187  GLN187     -0.2717
     56  NE2      -14.7550  -32.9590   15.8190 N.am  187  GLN187     -0.0878
     57  N        -10.3390  -32.5240   20.5950 N.3   190  VAL190     -0.1245
     58  CA       -11.6210  -32.2640   21.1620 C.3   190  VAL190      0.1561
     59  C        -12.2020  -33.4810   21.8730 C.2   190  VAL190      0.2260
     60  O        -12.7470  -33.3710   22.9210 O.2   190  VAL190     -0.2867
     61  CB       -12.6000  -31.8190   20.0820 C.3   190  VAL190      0.0252
     62  CG1      -14.0520  -31.8900   20.5660 C.3   190  VAL190      0.0019
     63  CG2      -12.2620  -30.4340   19.6140 C.3   190  VAL190      0.0019
     64  N        -16.9700  -24.1960   26.3170 N.3   230  LEU230     -0.1231
     65  CA       -18.2150  -24.3630   25.5460 C.3   230  LEU230      0.1693
     66  C        -19.3370  -25.0860   26.2420 C.2   230  LEU230      0.2592
     67  O        -20.4790  -24.7420   26.0480 O.2   230  LEU230     -0.2718
     68  CB       -17.9920  -25.0220   24.1760 C.3   230  LEU230      0.0284
     69  CG       -17.0990  -24.2900   23.1870 C.3   230  LEU230      0.0019
     70  CD1      -16.8660  -25.1720   21.9830 C.3   230  LEU230      0.0001
     71  CD2      -17.6900  -22.9650   22.7870 C.3   230  LEU230      0.0001
     72  N        -18.9710  -26.1340   26.9900 N.am  231  TYR231     -0.1976
     73  CA       -19.9630  -27.0740   27.4640 C.3   231  TYR231      0.1639
     74  C        -20.1200  -27.2870   28.9770 C.2   231  TYR231      0.2290
     75  O        -21.0900  -27.8400   29.3790 O.2   231  TYR231     -0.2864
     76  CB       -19.7530  -28.4310   26.7790 C.3   231  TYR231      0.0560
     77  CG       -19.6600  -28.3740   25.2520 C.ar  231  TYR231     -0.0198
     78  CD1      -20.6470  -27.7770   24.4740 C.ar  231  TYR231     -0.0009
     79  CD2      -18.5920  -28.9160   24.6160 C.ar  231  TYR231     -0.0009
     80  CE1      -20.5190  -27.7140   23.0910 C.ar  231  TYR231      0.0417
     81  CE2      -18.4600  -28.8780   23.2400 C.ar  231  TYR231      0.0417
     82  CZ       -19.4250  -28.2750   22.4780 C.ar  231  TYR231      0.1957
     83  OH       -19.2060  -28.2620   21.1270 O.3   231  TYR231     -0.2866
     84  N        -22.6180  -30.3790   19.8300 N.3   244  PHE244     -0.1241
     85  CA       -22.0380  -31.2330   18.8190 C.3   244  PHE244      0.1605
     86  C        -22.4890  -32.6430   19.1060 C.2   244  PHE244      0.2264
     87  O        -22.2810  -33.1290   20.1360 O.2   244  PHE244     -0.2867
     88  CB       -20.5130  -31.0890   18.9590 C.3   244  PHE244      0.0534
     89  CG       -19.6930  -31.9460   18.0370 C.ar  244  PHE244     -0.0203
     90  CD1      -20.1040  -32.2290   16.7740 C.ar  244  PHE244     -0.0042
     91  CD2      -18.4900  -32.4410   18.4530 C.ar  244  PHE244     -0.0042
     92  CE1      -19.3640  -33.0060   15.9400 C.ar  244  PHE244     -0.0003
     93  CE2      -17.7380  -33.2440   17.6180 C.ar  244  PHE244     -0.0003
     94  CZ       -18.2020  -33.5250   16.3780 C.ar  244  PHE244     -0.0000
     95  N        -21.8040  -34.0830   22.8670 N.3   290  ILE290     -0.1245
     96  CA       -20.7010  -34.9260   23.2700 C.3   290  ILE290      0.1561
     97  C        -20.4030  -34.7460   24.7650 C.2   290  ILE290      0.2260
     98  O        -19.8370  -35.5570   25.3810 O.2   290  ILE290     -0.2867
     99  CB       -19.4330  -34.7000   22.4600 C.3   290  ILE290      0.0252
    100  CG1      -19.0400  -33.2340   22.4690 C.3   290  ILE290      0.0019
    101  CG2      -19.6210  -35.2120   21.0470 C.3   290  ILE290      0.0019
    102  CD1      -17.6690  -32.9020   21.9360 C.3   290  ILE290      0.0001
@<TRIPOS>BOND
     1    14    13    1
     2     9    10    1
     3    35    36    1
     4    35    32    1
     5    31    32    1
     6    13    10    1
     7    13    15    1
     8     4     3    2
     9    10    11    1
    10     3     2    1
    11    36    37    1
    12    32    33    1
    13     5     2    1
    14     5     6    1
    15    33    34    2
    16     2     1    1
    17    37    38    1
    18    11    12    2
    19    11    16   am
    20    38    39    1
    21     6     7    1
    22    16    17    1
    23     8     7    1
    24    17    20    1
    25    17    18    1
    26    53    54    1
    27    53    52    1
    28    19    18    2
    29    40    41    1
    30    22    20    1
    31    44    41    1
    32    44    45    1
    33    20    21    1
    34    18    23   am
    35    54    55    2
    36    54    56   am
    37    52    49    1
    38    92    94   ar
    39    92    90   ar
    40    41    42    1
    41    45    47   am
    42    45    46    2
    43    48    49    1
    44    48    42   am
    45    94    93   ar
    46    23    24    1
    47    30    29    2
    48    49    50    1
    49    42    43    2
    50    90    89   ar
    51    27    28    1
    52    27    25   am
    53    29    28    1
    54    24    25    1
    55    93    91   ar
    56    50    51    2
    57    25    26    2
    58    89    91   ar
    59    89    88    1
    60    85    88    1
    61    85    86    1
    62    85    84    1
    63    86    87    2
    64    63    61    1
    65    61    62    1
    66    61    58    1
    67    57    58    1
    68   101    99    1
    69    83    82    1
    70    58    59    1
    71    59    60    2
    72   102   100    1
    73    70    69    1
    74    99   100    1
    75    99    96    1
    76    82    80   ar
    77    82    81   ar
    78    71    69    1
    79    95    96    1
    80    80    78   ar
    81    69    68    1
    82    81    79   ar
    83    96    97    1
    84    68    65    1
    85    78    77   ar
    86    79    77   ar
    87    97    98    2
    88    77    76    1
    89    65    66    1
    90    65    64    1
    91    67    66    2
    92    66    72   am
    93    76    73    1
    94    72    73    1
    95    73    74    1
    96    74    75    2
