@<TRIPOS>MOLECULE
tmp/5xvkA01.pdb
 112 107 0 0 0
SMALL
GASTEIGER

@<TRIPOS>ATOM
      1  N         18.9340   14.6620    4.2490 N.3    17  TYR17      -0.1241
      2  CA        18.4290   14.4870    5.6110 C.3    17  TYR17       0.1605
      3  C         18.6280   13.0550    6.1060 C.2    17  TYR17       0.2264
      4  O         19.1510   12.8420    7.2050 O.2    17  TYR17      -0.2867
      5  CB        16.9390   14.8760    5.6970 C.3    17  TYR17       0.0534
      6  CG        16.3370   14.7080    7.0810 C.ar   17  TYR17      -0.0201
      7  CD1       16.6760   15.5710    8.1260 C.ar   17  TYR17      -0.0009
      8  CD2       15.4230   13.6890    7.3440 C.ar   17  TYR17      -0.0009
      9  CE1       16.1200   15.4180    9.3990 C.ar   17  TYR17       0.0417
     10  CE2       14.8610   13.5280    8.6180 C.ar   17  TYR17       0.0417
     11  CZ        15.2210   14.3920    9.6350 C.ar   17  TYR17       0.1957
     12  OH        14.6680   14.2420   10.8800 O.3    17  TYR17      -0.2866
     13  N         21.2120   11.8070    9.2160 N.3    21  TYR21      -0.1227
     14  CA        20.5870   11.4450   10.4830 C.3    21  TYR21       0.1736
     15  C         20.2610    9.9540   10.6490 C.2    21  TYR21       0.2595
     16  O         20.1780    9.4580   11.7800 O.2    21  TYR21      -0.2718
     17  CB        19.3280   12.2890   10.7100 C.3    21  TYR21       0.0548
     18  CG        19.6210   13.7340   11.0570 C.ar   21  TYR21      -0.0200
     19  CD1       19.9070   14.1100   12.3710 C.ar   21  TYR21      -0.0009
     20  CD2       19.6270   14.7180   10.0740 C.ar   21  TYR21      -0.0009
     21  CE1       20.1930   15.4360   12.6930 C.ar   21  TYR21       0.0417
     22  CE2       19.9010   16.0450   10.3850 C.ar   21  TYR21       0.0417
     23  CZ        20.1790   16.3940   11.6990 C.ar   21  TYR21       0.1957
     24  OH        20.4480   17.7000   12.0140 O.3    21  TYR21      -0.2866
     25  N         20.0740    9.2450    9.5350 N.am   22  TYR22      -0.1976
     26  CA        19.5420    7.8770    9.5980 C.3    22  TYR22       0.1639
     27  C         20.3290    6.7860    8.8520 C.2    22  TYR22       0.2290
     28  O         19.7970    5.6920    8.6440 O.2    22  TYR22      -0.2864
     29  CB        18.0530    7.8690    9.1890 C.3    22  TYR22       0.0560
     30  CG        17.2140    8.7310   10.1070 C.ar   22  TYR22      -0.0198
     31  CD1       16.8550    8.2760   11.3720 C.ar   22  TYR22      -0.0009
     32  CD2       16.8200   10.0200    9.7320 C.ar   22  TYR22      -0.0009
     33  CE1       16.1170    9.0620   12.2380 C.ar   22  TYR22       0.0417
     34  CE2       16.0710   10.8200   10.6010 C.ar   22  TYR22       0.0417
     35  CZ        15.7320   10.3310   11.8540 C.ar   22  TYR22       0.1957
     36  OH        14.9970   11.0870   12.7390 O.3    22  TYR22      -0.2866
     37  N          9.6370   14.3270   15.8420 N.3   161  LEU161     -0.1245
     38  CA        10.5440   15.4050   15.4290 C.3   161  LEU161      0.1561
     39  C          9.9090   16.4270   14.4700 C.2   161  LEU161      0.2260
     40  O         10.5910   17.0280   13.6280 O.2   161  LEU161     -0.2867
     41  CB        11.8540   14.8160   14.8770 C.3   161  LEU161      0.0270
     42  CG        12.7680   14.1820   15.9390 C.3   161  LEU161      0.0019
     43  CD1       13.7940   13.2360   15.2980 C.3   161  LEU161      0.0001
     44  CD2       13.4480   15.2590   16.7950 C.3   161  LEU161      0.0001
     45  N          8.1190   20.7210   17.0770 N.3   164  ASP164     -0.1225
     46  CA         9.1090   21.7430   17.4340 C.3   164  ASP164      0.1805
     47  C          9.6220   22.5110   16.2140 C.2   164  ASP164      0.2597
     48  O          9.9310   23.6990   16.3150 O.2   164  ASP164     -0.2718
     49  CB        10.2840   21.1300   18.2050 C.3   164  ASP164      0.1424
     50  CG         9.9450   20.8430   19.6500 C.2   164  ASP164      0.3668
     51  OD1        8.8320   21.1990   20.0980 O.co2 164  ASP164     -0.2456
     52  OD2       10.8010   20.2680   20.3480 O.co2 164  ASP164     -0.2456
     53  N          9.7000   21.8320   15.0740 N.am  165  ALA165     -0.1979
     54  CA        10.1520   22.4510   13.8150 C.3   165  ALA165      0.1597
     55  C          9.0560   23.2790   13.1450 C.2   165  ALA165      0.2287
     56  O          9.3460   24.2430   12.4280 O.2   165  ALA165     -0.2864
     57  CB        10.6450   21.3840   12.8470 C.3   165  ALA165      0.0319
     58  N         10.2200   14.3070   20.2610 N.3   194  ASP194     -0.1225
     59  CA        10.8040   15.5430   19.7560 C.3   194  ASP194      0.1805
     60  C         12.0700   15.9200   20.5160 C.2   194  ASP194      0.2597
     61  O         12.3790   15.3350   21.5490 O.2   194  ASP194     -0.2718
     62  CB         9.7840   16.6850   19.8150 C.3   194  ASP194      0.1424
     63  CG         9.7860   17.5290   18.5630 C.2   194  ASP194      0.3668
     64  OD1       10.8470   17.6290   17.9100 O.co2 194  ASP194     -0.2456
     65  OD2        8.7180   18.0850   18.2270 O.co2 194  ASP194     -0.2456
     66  N         12.7940   16.9000   19.9850 N.am  195  ALA195     -0.1979
     67  CA        14.0090   17.3830   20.6250 C.3   195  ALA195      0.1597
     68  C         13.6520   18.2620   21.8210 C.2   195  ALA195      0.2287
     69  O         12.6270   18.9460   21.8090 O.2   195  ALA195     -0.2864
     70  CB        14.8630   18.1570   19.6170 C.3   195  ALA195      0.0319
     71  N         15.8670   22.6040   21.8560 N.3   198  SER198     -0.1217
     72  CA        16.5440   22.8230   20.5760 C.3   198  SER198      0.1889
     73  C         15.9690   24.0510   19.8960 C.2   198  SER198      0.2288
     74  O         14.7470   24.1800   19.7700 O.2   198  SER198     -0.2866
     75  CB        16.4220   21.6030   19.6450 C.3   198  SER198      0.2089
     76  OG        16.9040   21.9120   18.3300 O.3   198  SER198     -0.2183
     77  N         18.1900   22.8740   13.9210 N.3   201  TYR201     -0.1241
     78  CA        18.8900   21.6760   13.4610 C.3   201  TYR201      0.1605
     79  C         19.3740   21.9010   12.0240 C.2   201  TYR201      0.2264
     80  O         18.7550   22.6460   11.2660 O.2   201  TYR201     -0.2867
     81  CB        18.0110   20.4160   13.5770 C.3   201  TYR201      0.0534
     82  CG        16.8360   20.3580   12.6190 C.ar  201  TYR201     -0.0201
     83  CD1       16.8860   19.5590   11.4690 C.ar  201  TYR201     -0.0009
     84  CD2       15.6700   21.0860   12.8660 C.ar  201  TYR201     -0.0009
     85  CE1       15.8000   19.5040   10.5780 C.ar  201  TYR201      0.0417
     86  CE2       14.5770   21.0320   11.9830 C.ar  201  TYR201      0.0417
     87  CZ        14.6540   20.2390   10.8500 C.ar  201  TYR201      0.1957
     88  OH        13.5880   20.1930    9.9830 O.3   201  TYR201     -0.2866
     89  N         13.8660   25.5690   15.4190 N.3   210  SER210     -0.1217
     90  CA        13.1440   24.6940   16.3210 C.3   210  SER210      0.1889
     91  C         12.7150   25.5260   17.5300 C.2   210  SER210      0.2288
     92  O         13.3660   26.5080   17.8880 O.2   210  SER210     -0.2866
     93  CB        14.0130   23.5010   16.7370 C.3   210  SER210      0.2089
     94  OG        13.3860   22.7230   17.7420 O.3   210  SER210     -0.2183
     95  N         22.5150   15.7300   19.8100 N.3   239  TYR239     -0.1241
     96  CA        23.0190   15.6820   18.4340 C.3   239  TYR239      0.1605
     97  C         24.4270   16.2880   18.3860 C.2   239  TYR239      0.2264
     98  O         24.8410   16.9930   19.3260 O.2   239  TYR239     -0.2867
     99  CB        22.0870   16.4190   17.4600 C.3   239  TYR239      0.0534
    100  CG        20.7560   15.7240   17.2110 C.ar  239  TYR239     -0.0201
    101  CD1       20.6740   14.5960   16.3820 C.ar  239  TYR239     -0.0009
    102  CD2       19.5780   16.2130   17.7800 C.ar  239  TYR239     -0.0009
    103  CE1       19.4410   13.9530   16.1380 C.ar  239  TYR239      0.0417
    104  CE2       18.3410   15.5860   17.5390 C.ar  239  TYR239      0.0417
    105  CZ        18.2850   14.4570   16.7230 C.ar  239  TYR239      0.1957
    106  OH        17.0760   13.8350   16.4940 O.3   239  TYR239     -0.2866
    107  N         22.9780   20.7270   16.0900 N.3   244  SER244     -0.1217
    108  CA        21.8300   21.1890   16.8680 C.3   244  SER244      0.1889
    109  C         22.3490   21.6670   18.2130 C.2   244  SER244      0.2288
    110  O         23.4890   21.3780   18.5900 O.2   244  SER244     -0.2866
    111  CB        20.8080   20.0620   17.0930 C.3   244  SER244      0.2089
    112  OG        19.6840   20.5120   17.8690 O.3   244  SER244     -0.2183
@<TRIPOS>BOND
     1     1     2    1
     2     2     5    1
     3     2     3    1
     4     5     6    1
     5     3     4    2
     6     6     8   ar
     7     6     7   ar
     8     8    10   ar
     9     7     9   ar
    10    10    11   ar
    11    28    27    2
    12    27    26    1
    13    29    26    1
    14    29    30    1
    15    13    14    1
    16     9    11   ar
    17    25    26    1
    18    25    15   am
    19    11    12    1
    20    32    30   ar
    21    32    34   ar
    22    88    87    1
    23    20    22   ar
    24    20    18   ar
    25    30    31   ar
    26    22    23   ar
    27    14    15    1
    28    14    17    1
    29    85    87   ar
    30    85    83   ar
    31    34    35   ar
    32    15    16    2
    33    17    18    1
    34    87    86   ar
    35    18    19   ar
    36    80    79    2
    37    31    33   ar
    38    83    82   ar
    39    23    24    1
    40    23    21   ar
    41    35    33   ar
    42    35    36    1
    43    86    84   ar
    44    79    78    1
    45    19    21   ar
    46    56    55    2
    47    82    84   ar
    48    82    81    1
    49    57    54    1
    50    55    54    1
    51    78    81    1
    52    78    77    1
    53    40    39    2
    54    54    53    1
    55    39    38    1
    56    41    38    1
    57    41    42    1
    58    53    47   am
    59    43    42    1
    60    89    90    1
    61    38    37    1
    62    42    44    1
    63   107   108    1
    64   103   101   ar
    65   103   105   ar
    66    47    48    2
    67    47    46    1
    68    90    93    1
    69    90    91    1
    70   101   100   ar
    71   106   105    1
    72   105   104   ar
    73    93    94    1
    74   108   111    1
    75   108   109    1
    76    45    46    1
    77   111   112    1
    78   100    99    1
    79   100   102   ar
    80    46    49    1
    81    99    96    1
    82    91    92    2
    83   104   102   ar
    84    64    63   ar
    85    49    50    1
    86   109   110    2
    87    65    63   ar
    88    76    75    1
    89    97    96    1
    90    97    98    2
    91    96    95    1
    92    63    62    1
    93    70    67    1
    94    75    72    1
    95    50    51   ar
    96    50    52   ar
    97    59    62    1
    98    59    58    1
    99    59    60    1
   100    74    73    2
   101    73    72    1
   102    66    60   am
   103    66    67    1
   104    60    61    2
   105    72    71    1
   106    67    68    1
   107    69    68    2
