@<TRIPOS>MOLECULE
tmp/5xvsB01.pdb
 125 115 0 0 0
SMALL
GASTEIGER

@<TRIPOS>ATOM
      1  N          5.2070   23.6230   64.7290 N.3    12  ALA12      -0.1231
      2  CA         5.2320   24.7120   63.7680 C.3    12  ALA12       0.1694
      3  C          4.4190   24.3870   62.5220 C.2    12  ALA12       0.2591
      4  O          3.4540   25.0830   62.1710 O.2    12  ALA12      -0.2718
      5  CB         6.7030   25.0000   63.4160 C.3    12  ALA12       0.0304
      6  N          4.8170   23.3160   61.8440 N.am   13  GLU13      -0.1979
      7  CA         4.1320   22.8700   60.6430 C.3    13  GLU13       0.1602
      8  C          2.6790   22.4890   60.9270 C.2    13  GLU13       0.2287
      9  O          1.8100   22.7110   60.0790 O.2    13  GLU13      -0.2864
     10  CB         4.9290   21.7250   60.0360 C.3    13  GLU13       0.0415
     11  CG         4.1310   20.5840   59.5220 C.3    13  GLU13       0.1163
     12  CD         4.5840   19.3000   60.1380 C.2    13  GLU13       0.3649
     13  OE1        4.3700   19.1260   61.3570 O.co2  13  GLU13      -0.2457
     14  OE2        5.1740   18.4750   59.4120 O.co2  13  GLU13      -0.2457
     15  N          0.7580   25.6400   60.9700 N.3    16  LEU16      -0.1245
     16  CA         0.6220   26.0880   59.5870 C.3    16  LEU16       0.1561
     17  C         -0.4520   25.2970   58.8460 C.2    16  LEU16       0.2260
     18  O         -1.1850   25.8550   58.0250 O.2    16  LEU16      -0.2867
     19  CB         1.9600   25.9800   58.8570 C.3    16  LEU16       0.0270
     20  CG         3.0810   26.8860   59.3640 C.3    16  LEU16       0.0019
     21  CD1        4.1840   27.0010   58.3230 C.3    16  LEU16       0.0001
     22  CD2        2.5420   28.2610   59.7300 C.3    16  LEU16       0.0001
     23  N          4.4240   19.3910   54.3090 N.3   101  LEU101     -0.1231
     24  CA         4.7600   20.8070   54.3660 C.3   101  LEU101      0.1693
     25  C          6.2180   20.9540   54.7730 C.2   101  LEU101      0.2593
     26  O          6.6280   20.4560   55.8280 O.2   101  LEU101     -0.2718
     27  CB         3.8510   21.5570   55.3440 C.3   101  LEU101      0.0284
     28  CG         3.6850   23.0720   55.1490 C.3   101  LEU101      0.0019
     29  CD1        2.6120   23.6350   56.0620 C.3   101  LEU101      0.0001
     30  CD2        4.9860   23.8260   55.3670 C.3   101  LEU101      0.0001
     31  N          6.9890   21.6460   53.9420 N.am  102  GLY102     -0.1942
     32  CA         8.2700   22.1430   54.3780 C.3   102  GLY102      0.2014
     33  C          9.4880   21.3410   53.9810 C.2   102  GLY102      0.2639
     34  O          9.5780   20.8020   52.8710 O.2   102  GLY102     -0.2714
     35  N         10.4400   21.2600   54.9150 N.am  103  ASP103     -0.1957
     36  CA        11.8140   20.9570   54.5370 C.3   103  ASP103      0.1840
     37  C         12.6090   20.2590   55.6380 C.2   103  ASP103      0.2621
     38  O         13.8440   20.2720   55.5840 O.2   103  ASP103     -0.2715
     39  CB        12.5140   22.2640   54.1560 C.3   103  ASP103      0.1450
     40  CG        12.3130   23.3510   55.2070 C.2   103  ASP103      0.3671
     41  OD1       11.7510   23.0430   56.2810 O.co2 103  ASP103     -0.2456
     42  OD2       12.7230   24.5060   54.9740 O.co2 103  ASP103     -0.2456
     43  N         11.9560   19.6680   56.6320 N.am  104  ARG104     -0.1977
     44  CA        12.6590   19.0340   57.7390 C.3   104  ARG104      0.1597
     45  C         13.0120   17.5870   57.3940 C.2   104  ARG104      0.2287
     46  O         12.5120   17.0150   56.4240 O.2   104  ARG104     -0.2864
     47  CB        11.8110   19.1150   59.0080 C.3   104  ARG104      0.0334
     48  CG        11.5610   20.5420   59.4650 C.3   104  ARG104      0.0492
     49  CD        10.9610   20.5530   60.8530 C.3   104  ARG104      0.2205
     50  NE        11.4810   19.4440   61.6430 N.pl3 104  ARG104     -0.0865
     51  CZ        12.6040   19.5030   62.3460 C.cat 104  ARG104      0.5346
     52  NH1       13.3090   20.6260   62.3620 N.pl3 104  ARG104      0.1354
     53  NH2       13.0260   18.4450   63.0270 N.pl3 104  ARG104      0.1354
     54  N          5.0770   24.7770   50.2650 N.3   125  HIS125     -0.1241
     55  CA         6.1880   25.6790   50.5790 C.3   125  HIS125      0.1621
     56  C          7.4870   25.2540   49.8950 C.2   125  HIS125      0.2264
     57  O          8.5770   25.4300   50.4480 O.2   125  HIS125     -0.2867
     58  CB         6.4000   25.8150   52.0920 C.3   125  HIS125      0.0745
     59  CG         5.4610   26.7850   52.7490 C.ar  125  HIS125      0.0817
     60  ND1        5.6030   28.1510   52.6280 N.ar  125  HIS125     -0.2268
     61  CD2        4.3990   26.5900   53.5660 C.ar  125  HIS125      0.1154
     62  CE1        4.6560   28.7550   53.3230 C.ar  125  HIS125      0.1986
     63  NE2        3.9130   27.8300   53.9040 N.ar  125  HIS125     -0.2212
     64  N         11.4680   27.7550   47.9090 N.3   128  GLU128     -0.1245
     65  CA        12.0750   28.7780   48.7420 C.3   128  GLU128      0.1567
     66  C         13.5470   28.4450   48.9780 C.2   128  GLU128      0.2260
     67  O         14.0270   27.3660   48.6300 O.2   128  GLU128     -0.2867
     68  CB        11.3080   28.8980   50.0610 C.3   128  GLU128      0.0388
     69  CG         9.7950   28.9050   49.8600 C.3   128  GLU128      0.1160
     70  CD         9.0160   29.0760   51.1470 C.2   128  GLU128      0.3649
     71  OE1        9.6420   29.2450   52.2170 O.co2 128  GLU128     -0.2457
     72  OE2        7.7680   29.0430   51.0860 O.co2 128  GLU128     -0.2457
     73  N         18.0610   21.9120   55.4810 N.3   135  ASP135     -0.1239
     74  CA        16.6770   21.9560   55.0240 C.3   135  ASP135      0.1674
     75  C         16.5650   22.4630   53.5930 C.2   135  ASP135      0.2266
     76  O         15.5690   22.1950   52.9160 O.2   135  ASP135     -0.2867
     77  CB        15.8490   22.8670   55.9370 C.3   135  ASP135      0.1410
     78  CG        15.7950   22.3770   57.3680 C.2   135  ASP135      0.3668
     79  OD1       16.6190   21.5130   57.7440 O.co2 135  ASP135     -0.2456
     80  OD2       14.9250   22.8680   58.1180 O.co2 135  ASP135     -0.2456
     81  N         14.5390   20.4270   50.9910 N.3   139  ARG139     -0.1245
     82  CA        13.3600   21.0020   50.3500 C.3   139  ARG139      0.1563
     83  C         13.3540   20.7170   48.8560 C.2   139  ARG139      0.2260
     84  O         12.3390   20.2780   48.3030 O.2   139  ARG139     -0.2867
     85  CB        13.3020   22.5090   50.6050 C.3   139  ARG139      0.0307
     86  CG        12.0460   23.1780   50.0550 C.3   139  ARG139      0.0489
     87  CD        12.0860   24.6880   50.2270 C.3   139  ARG139      0.2205
     88  NE        12.5380   25.0660   51.5600 N.pl3 139  ARG139     -0.0865
     89  CZ        13.7170   25.6160   51.8220 C.cat 139  ARG139      0.5346
     90  NH1       14.5710   25.8710   50.8410 N.pl3 139  ARG139      0.1354
     91  NH2       14.0380   25.9090   53.0700 N.pl3 139  ARG139      0.1354
     92  N         11.3970   30.7110   60.7010 N.3   290  SER290     -0.1217
     93  CA        10.6850   31.1470   59.5080 C.3   290  SER290      0.1889
     94  C          9.5430   32.0930   59.8380 C.2   290  SER290      0.2288
     95  O          9.1410   32.8800   58.9750 O.2   290  SER290     -0.2866
     96  CB        10.1500   29.9430   58.7430 C.3   290  SER290      0.2089
     97  OG         9.1830   29.2640   59.5220 O.3   290  SER290     -0.2183
     98  N          7.5080   35.4950   57.7720 N.3   294  SER294     -0.1217
     99  CA         6.1370   35.4240   57.2680 C.3   294  SER294      0.1889
    100  C          5.1600   35.9460   58.3140 C.2   294  SER294      0.2288
    101  O          4.5550   37.0000   58.1000 O.2   294  SER294     -0.2866
    102  CB         5.7800   34.0030   56.8260 C.3   294  SER294      0.2089
    103  OG         5.3450   33.2240   57.9230 O.3   294  SER294     -0.2183
    104  N         20.1700   30.9960   58.5530 N.3   309  ARG309     -0.1245
    105  CA        19.1640   29.9450   58.4340 C.3   309  ARG309      0.1563
    106  C         18.0360   30.3530   57.4910 C.2   309  ARG309      0.2260
    107  O         17.5000   29.5090   56.7670 O.2   309  ARG309     -0.2867
    108  CB        18.6080   29.5780   59.8090 C.3   309  ARG309      0.0307
    109  CG        17.7250   28.3350   59.7970 C.3   309  ARG309      0.0489
    110  CD        17.4450   27.8370   61.2030 C.3   309  ARG309      0.2205
    111  NE        16.5730   26.6640   61.2070 N.pl3 309  ARG309     -0.0865
    112  CZ        15.2440   26.7150   61.2400 C.cat 309  ARG309      0.5346
    113  NH1       14.6170   27.8860   61.2740 N.pl3 309  ARG309      0.1354
    114  NH2       14.5400   25.5920   61.2360 N.pl3 309  ARG309      0.1354
    115  N         15.3130   33.9040   51.6230 N.3   313  ARG313     -0.1245
    116  CA        13.8790   34.1390   51.6280 C.3   313  ARG313      0.1563
    117  C         13.5580   35.5840   51.2650 C.2   313  ARG313      0.2260
    118  O         14.3810   36.4930   51.4170 O.2   313  ARG313     -0.2867
    119  CB        13.2830   33.8210   52.9920 C.3   313  ARG313      0.0307
    120  CG        13.2620   32.3590   53.3130 C.3   313  ARG313      0.0489
    121  CD        12.2080   32.0770   54.3500 C.3   313  ARG313      0.2205
    122  NE        11.5320   30.8360   54.0170 N.pl3 313  ARG313     -0.0865
    123  CZ        11.5860   29.7340   54.7510 C.cat 313  ARG313      0.5346
    124  NH1       12.2550   29.7040   55.8960 N.pl3 313  ARG313      0.1354
    125  NH2       10.9530   28.6630   54.3390 N.pl3 313  ARG313      0.1354
@<TRIPOS>BOND
     1    64    65    1
     2    84    83    2
     3    67    66    2
     4    65    66    1
     5    65    68    1
     6    83    82    1
     7    69    68    1
     8    69    70    1
     9    56    57    2
    10    56    55    1
    11    86    87    1
    12    86    85    1
    13    87    88    1
    14    54    55    1
    15    82    85    1
    16    82    81    1
    17    55    58    1
    18    90    89    1
    19    72    70   ar
    20    70    71   ar
    21   117   118    2
    22   117   116    1
    23    88    89    2
    24   115   116    1
    25   116   119    1
    26    89    91    1
    27    58    59    1
    28    60    59   ar
    29    60    62   ar
    30    59    61   ar
    31    34    33    2
    32    76    75    2
    33   119   120    1
    34   120   121    1
    35    62    63   ar
    36    61    63   ar
    37    75    74    1
    38    31    32    1
    39    31    25   am
    40    33    32    1
    41    33    35   am
    42   122   121    1
    43   122   123    2
    44    39    36    1
    45    39    40    1
    46    23    24    1
    47   125   123    1
    48    24    25    1
    49    24    27    1
    50    36    35    1
    51    36    37    1
    52   123   124    1
    53    25    26    2
    54    42    40   ar
    55    74    73    1
    56    74    77    1
    57    28    27    1
    58    28    30    1
    59    28    29    1
    60    40    41   ar
    61    38    37    2
    62    37    43   am
    63    77    78    1
    64    46    45    2
    65    43    44    1
    66   107   106    2
    67   102    99    1
    68   102   103    1
    69    99    98    1
    70    99   100    1
    71    78    79   ar
    72    78    80   ar
    73    45    44    1
    74   106   105    1
    75    44    47    1
    76    18    17    2
    77   101   100    2
    78    21    20    1
    79   105   104    1
    80   105   108    1
    81    96    93    1
    82    96    97    1
    83    17    16    1
    84    19    20    1
    85    19    16    1
    86    95    94    2
    87    47    48    1
    88    20    22    1
    89    14    12   ar
    90    48    49    1
    91    93    94    1
    92    93    92    1
    93    11    10    1
    94    11    12    1
    95    16    15    1
    96   109   108    1
    97   109   110    1
    98    10     7    1
    99     9     8    2
   100    12    13   ar
   101     7     8    1
   102     7     6    1
   103    49    50    1
   104   110   111    1
   105   111   112    2
   106   114   112    1
   107   112   113    1
   108    50    51    2
   109     6     3   am
   110     4     3    2
   111    51    52    1
   112    51    53    1
   113     3     2    1
   114     5     2    1
   115     2     1    1
