@<TRIPOS>MOLECULE
tmp/5xvsB00.pdb
 179 166 0 0 0
SMALL
GASTEIGER

@<TRIPOS>ATOM
      1  N          5.2120   21.0220   65.9220 N.3    11  ARG11      -0.1231
      2  CA         4.2730   22.0610   66.2990 C.3    11  ARG11       0.1694
      3  C          4.0880   23.0470   65.1520 C.2    11  ARG11       0.2591
      4  O          2.9780   23.3000   64.6740 O.2    11  ARG11      -0.2718
      5  CB         4.7840   22.7620   67.5490 C.3    11  ARG11       0.0321
      6  CG         6.2750   23.1680   67.4870 C.3    11  ARG11       0.0489
      7  CD         6.4940   24.5310   68.1230 C.3    11  ARG11       0.2205
      8  NE         7.7980   25.1080   67.8270 N.pl3  11  ARG11      -0.0865
      9  CZ         8.4680   25.8700   68.6800 C.cat  11  ARG11       0.5346
     10  NH1        7.9610   26.1150   69.8790 N.pl3  11  ARG11       0.1354
     11  NH2        9.6460   26.3770   68.3430 N.pl3  11  ARG11       0.1354
     12  N          5.2070   23.6230   64.7290 N.am   12  ALA12      -0.1980
     13  CA         5.2320   24.7120   63.7680 C.3    12  ALA12       0.1597
     14  C          4.4190   24.3870   62.5220 C.2    12  ALA12       0.2287
     15  O          3.4540   25.0830   62.1710 O.2    12  ALA12      -0.2864
     16  CB         6.7030   25.0000   63.4160 C.3    12  ALA12       0.0319
     17  N          0.7580   25.6400   60.9700 N.3    16  LEU16      -0.1245
     18  CA         0.6220   26.0880   59.5870 C.3    16  LEU16       0.1561
     19  C         -0.4520   25.2970   58.8460 C.2    16  LEU16       0.2260
     20  O         -1.1850   25.8550   58.0250 O.2    16  LEU16      -0.2867
     21  CB         1.9600   25.9800   58.8570 C.3    16  LEU16       0.0270
     22  CG         3.0810   26.8860   59.3640 C.3    16  LEU16       0.0019
     23  CD1        4.1840   27.0010   58.3230 C.3    16  LEU16       0.0001
     24  CD2        2.5420   28.2610   59.7300 C.3    16  LEU16       0.0001
     25  N          8.8080   15.4340   66.5340 N.3    39  MET39      -0.1245
     26  CA         8.7780   16.2730   67.7270 C.3    39  MET39       0.1570
     27  C          7.4510   16.2050   68.4640 C.2    39  MET39       0.2261
     28  O          7.3990   16.5420   69.6540 O.2    39  MET39      -0.2867
     29  CB         9.0870   17.7220   67.3490 C.3    39  MET39       0.0387
     30  CG        10.5610   17.9720   67.0580 C.3    39  MET39       0.0595
     31  SD        10.8950   19.4630   66.0920 S.3    39  MET39      -0.1393
     32  CE        10.1220   20.7020   67.1280 C.3    39  MET39       0.0692
     33  N         11.9560   19.6680   56.6320 N.3   104  ARG104     -0.1245
     34  CA        12.6590   19.0340   57.7390 C.3   104  ARG104      0.1563
     35  C         13.0120   17.5870   57.3940 C.2   104  ARG104      0.2260
     36  O         12.5120   17.0150   56.4240 O.2   104  ARG104     -0.2867
     37  CB        11.8110   19.1150   59.0080 C.3   104  ARG104      0.0307
     38  CG        11.5610   20.5420   59.4650 C.3   104  ARG104      0.0489
     39  CD        10.9610   20.5530   60.8530 C.3   104  ARG104      0.2205
     40  NE        11.4810   19.4440   61.6430 N.pl3 104  ARG104     -0.0865
     41  CZ        12.6040   19.5030   62.3460 C.cat 104  ARG104      0.5346
     42  NH1       13.3090   20.6260   62.3620 N.pl3 104  ARG104      0.1354
     43  NH2       13.0260   18.4450   63.0270 N.pl3 104  ARG104      0.1354
     44  N         18.0610   21.9120   55.4810 N.3   135  ASP135     -0.1239
     45  CA        16.6770   21.9560   55.0240 C.3   135  ASP135      0.1674
     46  C         16.5650   22.4630   53.5930 C.2   135  ASP135      0.2266
     47  O         15.5690   22.1950   52.9160 O.2   135  ASP135     -0.2867
     48  CB        15.8490   22.8670   55.9370 C.3   135  ASP135      0.1410
     49  CG        15.7950   22.3770   57.3680 C.2   135  ASP135      0.3668
     50  OD1       16.6190   21.5130   57.7440 O.co2 135  ASP135     -0.2456
     51  OD2       14.9250   22.8680   58.1180 O.co2 135  ASP135     -0.2456
     52  N         13.0840   32.8510   69.2030 N.3   208  THR208     -0.1218
     53  CA        13.1430   31.4570   68.7720 C.3   208  THR208      0.1862
     54  C         14.4270   31.2880   67.9740 C.2   208  THR208      0.2287
     55  O         14.5670   31.8820   66.9010 O.2   208  THR208     -0.2866
     56  CB        11.9290   31.0760   67.9220 C.3   208  THR208      0.1770
     57  OG1       10.7230   31.3680   68.6370 O.3   208  THR208     -0.2211
     58  CG2       11.9720   29.5970   67.5860 C.3   208  THR208      0.0375
     59  N         16.9620   28.2650   66.4330 N.3   210  HIS210     -0.1241
     60  CA        17.2090   26.8770   66.0860 C.3   210  HIS210      0.1621
     61  C         18.6400   26.6990   65.6020 C.2   210  HIS210      0.2264
     62  O         19.2650   27.6510   65.1200 O.2   210  HIS210     -0.2867
     63  CB        16.2480   26.4210   64.9800 C.3   210  HIS210      0.0745
     64  CG        14.8040   26.6130   65.3130 C.ar  210  HIS210      0.0817
     65  ND1       14.1510   25.8490   66.2540 N.ar  210  HIS210     -0.2268
     66  CD2       13.8810   27.4700   64.8160 C.ar  210  HIS210      0.1154
     67  CE1       12.8900   26.2310   66.3300 C.ar  210  HIS210      0.1986
     68  NE2       12.6990   27.2100   65.4640 N.ar  210  HIS210     -0.2212
     69  N         10.4540   30.2700   72.8230 N.3   238  SER238     -0.1217
     70  CA        10.0110   28.9330   72.4650 C.3   238  SER238      0.1889
     71  C         11.2350   28.0320   72.3100 C.2   238  SER238      0.2288
     72  O         12.3750   28.4980   72.2310 O.2   238  SER238     -0.2866
     73  CB         9.1810   28.9580   71.1820 C.3   238  SER238      0.2089
     74  OG         9.9980   29.2630   70.0640 O.3   238  SER238     -0.2183
     75  N         14.0960   23.4010   67.7070 N.3   241  ASN241     -0.1240
     76  CA        13.5660   22.1710   67.1320 C.3   241  ASN241      0.1653
     77  C         14.5130   20.9990   67.4160 C.2   241  ASN241      0.2266
     78  O         15.4360   21.0870   68.2340 O.2   241  ASN241     -0.2867
     79  CB        13.3050   22.3620   65.6410 C.3   241  ASN241      0.1155
     80  CG        14.5650   22.7180   64.8570 C.2   241  ASN241      0.2627
     81  OD1       15.6420   22.1670   65.0950 O.2   241  ASN241     -0.2716
     82  ND2       14.4300   23.6410   63.9100 N.am  241  ASN241     -0.0877
     83  N          4.0880   26.7740   72.3840 N.3   270  PHE270     -0.1241
     84  CA         2.7720   27.3810   72.4710 C.3   270  PHE270      0.1605
     85  C          1.8250   26.7120   71.4850 C.2   270  PHE270      0.2264
     86  O          2.2460   26.1700   70.4590 O.2   270  PHE270     -0.2867
     87  CB         2.8300   28.8750   72.1420 C.3   270  PHE270      0.0534
     88  CG         3.9040   29.6360   72.8680 C.ar  270  PHE270     -0.0203
     89  CD1        3.5980   30.3850   73.9920 C.ar  270  PHE270     -0.0042
     90  CD2        5.2080   29.6420   72.4010 C.ar  270  PHE270     -0.0042
     91  CE1        4.5770   31.1040   74.6510 C.ar  270  PHE270     -0.0003
     92  CE2        6.1930   30.3570   73.0580 C.ar  270  PHE270     -0.0003
     93  CZ         5.8780   31.0910   74.1790 C.ar  270  PHE270     -0.0000
     94  N         -0.5530   27.4750   68.4810 N.3   272  ILE272     -0.1245
     95  CA        -0.2950   28.5180   67.4920 C.3   272  ILE272      0.1561
     96  C         -1.2540   29.6840   67.6810 C.2   272  ILE272      0.2260
     97  O         -0.9320   30.8190   67.3200 O.2   272  ILE272     -0.2867
     98  CB        -0.3510   27.9750   66.0530 C.3   272  ILE272      0.0252
     99  CG1        0.2100   29.0340   65.0910 C.3   272  ILE272      0.0019
    100  CG2       -1.7730   27.5810   65.6860 C.3   272  ILE272      0.0019
    101  CD1        0.0200   28.7410   63.6140 C.3   272  ILE272      0.0001
    102  N          0.7320   31.2260   70.2660 N.3   275  TYR275     -0.1227
    103  CA         1.9900   31.7110   69.7020 C.3   275  TYR275      0.1736
    104  C          1.7820   32.9900   68.9010 C.2   275  TYR275      0.2595
    105  O          2.5590   33.9430   69.0230 O.2   275  TYR275     -0.2718
    106  CB         2.6440   30.6450   68.8210 C.3   275  TYR275      0.0548
    107  CG         3.9860   31.0960   68.2760 C.ar  275  TYR275     -0.0200
    108  CD1        5.1200   31.0870   69.0830 C.ar  275  TYR275     -0.0009
    109  CD2        4.1170   31.5530   66.9700 C.ar  275  TYR275     -0.0009
    110  CE1        6.3480   31.5060   68.6040 C.ar  275  TYR275      0.0417
    111  CE2        5.3480   31.9730   66.4780 C.ar  275  TYR275      0.0417
    112  CZ         6.4580   31.9450   67.3010 C.ar  275  TYR275      0.1957
    113  OH         7.6820   32.3600   66.8280 O.3   275  TYR275     -0.2866
    114  N          0.7550   33.0180   68.0510 N.am  276  LEU276     -0.1980
    115  CA         0.4510   34.2410   67.3180 C.3   276  LEU276      0.1596
    116  C          0.0050   35.3560   68.2550 C.2   276  LEU276      0.2287
    117  O          0.2820   36.5330   67.9910 O.2   276  LEU276     -0.2864
    118  CB        -0.6130   33.9650   66.2550 C.3   276  LEU276      0.0297
    119  CG        -0.2050   32.9400   65.1940 C.3   276  LEU276      0.0022
    120  CD1       -1.2100   32.9030   64.0620 C.3   276  LEU276      0.0001
    121  CD2        1.1950   33.2250   64.6690 C.3   276  LEU276      0.0001
    122  N         13.9200   31.8290   63.0550 N.3   289  SER289     -0.1202
    123  CA        12.7940   31.0040   62.6500 C.3   289  SER289      0.2020
    124  C         12.1210   31.5800   61.4090 C.2   289  SER289      0.2619
    125  O         12.2530   32.7640   61.0870 O.2   289  SER289     -0.2717
    126  CB        11.7760   30.8690   63.7900 C.3   289  SER289      0.2103
    127  OG        10.9970   32.0390   63.9550 O.3   289  SER289     -0.2182
    128  N         11.3970   30.7110   60.7010 N.am  290  SER290     -0.1937
    129  CA        10.6850   31.1470   59.5080 C.3   290  SER290      0.2055
    130  C          9.5430   32.0930   59.8380 C.2   290  SER290      0.2643
    131  O          9.1410   32.8800   58.9750 O.2   290  SER290     -0.2714
    132  CB        10.1500   29.9430   58.7430 C.3   290  SER290      0.2130
    133  OG         9.1830   29.2640   59.5220 O.3   290  SER290     -0.2179
    134  N          9.0180   32.0430   61.0660 N.am  291  SER291     -0.1949
    135  CA         7.9840   32.9980   61.4500 C.3   291  SER291      0.1924
    136  C          8.5030   34.4250   61.3990 C.2   291  SER291      0.2314
    137  O          7.7210   35.3600   61.1960 O.2   291  SER291     -0.2863
    138  CB         7.4500   32.6920   62.8490 C.3   291  SER291      0.2116
    139  OG         8.3360   33.1350   63.8570 O.3   291  SER291     -0.2180
    140  N          5.0020   35.2570   59.4480 N.3   295  GLU295     -0.1245
    141  CA         4.0370   35.6900   60.4560 C.3   295  GLU295      0.1567
    142  C          4.3840   37.0660   61.0060 C.2   295  GLU295      0.2260
    143  O          3.5260   37.9540   61.0620 O.2   295  GLU295     -0.2867
    144  CB         3.9650   34.6660   61.5900 C.3   295  GLU295      0.0388
    145  CG         2.9280   33.5690   61.4080 C.3   295  GLU295      0.1160
    146  CD         3.3260   32.5310   60.3760 C.2   295  GLU295      0.3649
    147  OE1        4.5050   32.5230   59.9630 O.co2 295  GLU295     -0.2457
    148  OE2        2.4570   31.7240   59.9770 O.co2 295  GLU295     -0.2457
    149  N         20.1700   30.9960   58.5530 N.3   309  ARG309     -0.1231
    150  CA        19.1640   29.9450   58.4340 C.3   309  ARG309      0.1694
    151  C         18.0360   30.3530   57.4910 C.2   309  ARG309      0.2591
    152  O         17.5000   29.5090   56.7670 O.2   309  ARG309     -0.2718
    153  CB        18.6080   29.5780   59.8090 C.3   309  ARG309      0.0321
    154  CG        17.7250   28.3350   59.7970 C.3   309  ARG309      0.0489
    155  CD        17.4450   27.8370   61.2030 C.3   309  ARG309      0.2205
    156  NE        16.5730   26.6640   61.2070 N.pl3 309  ARG309     -0.0865
    157  CZ        15.2440   26.7150   61.2400 C.cat 309  ARG309      0.5346
    158  NH1       14.6170   27.8860   61.2740 N.pl3 309  ARG309      0.1354
    159  NH2       14.5400   25.5920   61.2360 N.pl3 309  ARG309      0.1354
    160  N         17.6840   31.6390   57.4620 N.am  310  GLN310     -0.1979
    161  CA        16.6290   32.1510   56.5990 C.3   310  GLN310      0.1601
    162  C         17.1800   32.8590   55.3670 C.2   310  GLN310      0.2287
    163  O         16.4430   33.5940   54.7010 O.2   310  GLN310     -0.2864
    164  CB        15.7180   33.1020   57.3800 C.3   310  GLN310      0.0394
    165  CG        15.0770   32.4860   58.6080 C.3   310  GLN310      0.0908
    166  CD        14.2510   31.2590   58.2770 C.2   310  GLN310      0.2608
    167  OE1       13.5990   31.1950   57.2340 O.2   310  GLN310     -0.2717
    168  NE2       14.2800   30.2740   59.1630 N.am  310  GLN310     -0.0878
    169  N         15.3130   33.9040   51.6230 N.3   313  ARG313     -0.1245
    170  CA        13.8790   34.1390   51.6280 C.3   313  ARG313      0.1563
    171  C         13.5580   35.5840   51.2650 C.2   313  ARG313      0.2260
    172  O         14.3810   36.4930   51.4170 O.2   313  ARG313     -0.2867
    173  CB        13.2830   33.8210   52.9920 C.3   313  ARG313      0.0307
    174  CG        13.2620   32.3590   53.3130 C.3   313  ARG313      0.0489
    175  CD        12.2080   32.0770   54.3500 C.3   313  ARG313      0.2205
    176  NE        11.5320   30.8360   54.0170 N.pl3 313  ARG313     -0.0865
    177  CZ        11.5860   29.7340   54.7510 C.cat 313  ARG313      0.5346
    178  NH1       12.2550   29.7040   55.8960 N.pl3 313  ARG313      0.1354
    179  NH2       10.9530   28.6630   54.3390 N.pl3 313  ARG313      0.1354
@<TRIPOS>BOND
     1   171   172    2
     2   171   170    1
     3   169   170    1
     4   170   173    1
     5    47    46    2
     6   173   174    1
     7   174   175    1
     8    46    45    1
     9   176   175    1
    10   176   177    2
    11   179   177    1
    12   163   162    2
    13   177   178    1
    14    45    44    1
    15    45    48    1
    16   162   161    1
    17    48    49    1
    18    36    35    2
    19   161   164    1
    20   161   160    1
    21    33    34    1
    22   152   151    2
    23   167   166    2
    24    49    50   ar
    25    49    51   ar
    26   164   165    1
    27    35    34    1
    28   160   151   am
    29   151   150    1
    30    34    37    1
    31    20    19    2
    32   166   165    1
    33   166   168   am
    34    23    22    1
    35   150   149    1
    36   150   153    1
    37   132   129    1
    38   132   133    1
    39    19    18    1
    40    21    22    1
    41    21    18    1
    42   131   130    2
    43    37    38    1
    44    22    24    1
    45   140   141    1
    46    38    39    1
    47   129   130    1
    48   129   128    1
    49    18    17    1
    50   154   153    1
    51   154   155    1
    52   130   134   am
    53   147   146   ar
    54   148   146   ar
    55   146   145    1
    56   141   142    1
    57   141   144    1
    58   128   124   am
    59    39    40    1
    60   142   143    2
    61   134   135    1
    62   125   124    2
    63   137   136    2
    64   155   156    1
    65   156   157    2
    66   159   157    1
    67   157   158    1
    68   136   135    1
    69   145   144    1
    70   124   123    1
    71   135   138    1
    72    40    41    2
    73    15    14    2
    74    41    42    1
    75    41    43    1
    76    14    13    1
    77   123   122    1
    78   123   126    1
    79   138   139    1
    80    16    13    1
    81   101    99    1
    82    13    12    1
    83   126   127    1
    84    82    80   am
    85   120   119    1
    86   121   119    1
    87     4     3    2
    88    12     3   am
    89    66    64   ar
    90    66    68   ar
    91    80    81    2
    92    80    79    1
    93    63    64    1
    94    63    60    1
    95    99    98    1
    96    62    61    2
    97     3     2    1
    98   119   118    1
    99    64    65   ar
   100    68    67   ar
   101    61    60    1
   102    79    76    1
   103   100    98    1
   104     1     2    1
   105    98    95    1
   106    60    59    1
   107    31    30    1
   108    31    32    1
   109    65    67   ar
   110   118   115    1
   111     2     5    1
   112   111   109   ar
   113   111   112   ar
   114    25    26    1
   115   113   112    1
   116    55    54    2
   117   109   107   ar
   118    30    29    1
   119    76    77    1
   120    76    75    1
   121   112   110   ar
   122   115   114    1
   123   115   116    1
   124    97    96    2
   125    29    26    1
   126    77    78    2
   127     6     5    1
   128     6     7    1
   129    95    96    1
   130    95    94    1
   131    58    56    1
   132    26    27    1
   133     8     7    1
   134     8     9    2
   135    56    57    1
   136    56    53    1
   137    54    53    1
   138   117   116    2
   139   114   104   am
   140   107   106    1
   141   107   108   ar
   142    11     9    1
   143    27    28    2
   144   110   108   ar
   145     9    10    1
   146    53    52    1
   147   106   103    1
   148   104   105    2
   149   104   103    1
   150   103   102    1
   151    74    73    1
   152    86    85    2
   153    73    70    1
   154    85    84    1
   155    87    84    1
   156    87    88    1
   157    72    71    2
   158    71    70    1
   159    83    84    1
   160    90    88   ar
   161    90    92   ar
   162    70    69    1
   163    88    89   ar
   164    92    93   ar
   165    89    91   ar
   166    93    91   ar
