@<TRIPOS>MOLECULE
tmp/5xvuA00.pdb
 208 197 0 0 0
SMALL
GASTEIGER

@<TRIPOS>ATOM
      1  N          3.3020   -0.8850  -19.8200 N.3    38  ILE38      -0.1231
      2  CA         2.9470   -2.2530  -20.1530 C.3    38  ILE38       0.1692
      3  C          2.0690   -2.9390  -19.0850 C.2    38  ILE38       0.2593
      4  O          1.4280   -3.9560  -19.3860 O.2    38  ILE38      -0.2718
      5  CB         4.2250   -3.0720  -20.4790 C.3    38  ILE38       0.0266
      6  CG1        5.2540   -3.0670  -19.3100 C.3    38  ILE38       0.0019
      7  CG2        4.8390   -2.5800  -21.7870 C.3    38  ILE38       0.0020
      8  CD1        6.4220   -4.0400  -19.4460 C.3    38  ILE38       0.0001
      9  N          2.0490   -2.4000  -17.8650 N.am   39  GLY39      -0.1942
     10  CA         1.2740   -2.9910  -16.7870 C.3    39  GLY39       0.2014
     11  C          0.7680   -2.0180  -15.7470 C.2    39  GLY39       0.2639
     12  O          1.3190   -0.9270  -15.5560 O.2    39  GLY39      -0.2714
     13  N         -0.2950   -2.4300  -15.0640 N.am   40  ARG40      -0.1963
     14  CA        -0.9270   -1.6850  -13.9950 C.3    40  ARG40       0.1729
     15  C         -1.1930   -2.6560  -12.8550 C.2    40  ARG40       0.2617
     16  O         -1.7770   -3.7250  -13.0640 O.2    40  ARG40      -0.2715
     17  CB        -2.2380   -1.0960  -14.4820 C.3    40  ARG40       0.0348
     18  CG        -2.1150    0.1480  -15.3440 C.3    40  ARG40       0.0492
     19  CD        -3.4410    0.5240  -15.9990 C.3    40  ARG40       0.2205
     20  NE        -4.5660    0.3750  -15.0660 N.pl3  40  ARG40      -0.0865
     21  CZ        -5.6540   -0.3640  -15.2760 C.cat  40  ARG40       0.5346
     22  NH1       -5.8110   -1.0200  -16.4180 N.pl3  40  ARG40       0.1354
     23  NH2       -6.5910   -0.4510  -14.3440 N.pl3  40  ARG40       0.1354
     24  N         -0.7170   -2.2910  -11.6770 N.am   41  GLY41      -0.1940
     25  CA        -0.8830   -3.0730  -10.4690 C.3    41  GLY41       0.2014
     26  C         -1.7070   -2.3070   -9.4600 C.2    41  GLY41       0.2639
     27  O         -2.1450   -1.1780   -9.7290 O.2    41  GLY41      -0.2714
     28  N         -1.9160   -2.9290   -8.2840 N.am   42  LYS42      -0.1963
     29  CA        -2.6650   -2.3490   -7.1740 C.3    42  LYS42       0.1728
     30  C         -1.9310   -1.1050   -6.6410 C.2    42  LYS42       0.2616
     31  O         -2.5440   -0.0490   -6.4740 O.2    42  LYS42      -0.2715
     32  CB        -2.8490   -3.4120   -6.0800 C.3    42  LYS42       0.0311
     33  CG        -3.9980   -3.1520   -5.1240 C.3    42  LYS42       0.0038
     34  CD        -4.2000   -4.3460   -4.2090 C.3    42  LYS42       0.0206
     35  CE        -5.2800   -4.1050   -3.1930 C.3    42  LYS42       0.1093
     36  NZ        -5.4220   -5.2580   -2.2770 N.3    42  LYS42      -0.1314
     37  N         -0.6090   -1.2290   -6.4340 N.am   43  TYR43      -0.1960
     38  CA         0.2320   -0.1410   -5.9320 C.3    43  TYR43       0.1771
     39  C          1.4810    0.0800   -6.8140 C.2    43  TYR43       0.2620
     40  O          2.5290    0.5010   -6.3090 O.2    43  TYR43      -0.2715
     41  CB         0.6370   -0.3710   -4.4490 C.3    43  TYR43       0.0574
     42  CG        -0.4550   -0.9010   -3.5370 C.ar   43  TYR43      -0.0198
     43  CD1       -1.4450   -0.0560   -3.0370 C.ar   43  TYR43      -0.0009
     44  CD2       -0.4660   -2.2360   -3.1270 C.ar   43  TYR43      -0.0009
     45  CE1       -2.4460   -0.5350   -2.1840 C.ar   43  TYR43       0.0417
     46  CE2       -1.4650   -2.7290   -2.2810 C.ar   43  TYR43       0.0417
     47  CZ        -2.4540   -1.8750   -1.8090 C.ar   43  TYR43       0.1957
     48  OH        -3.4380   -2.3540   -0.9640 O.3    43  TYR43      -0.2866
     49  N          1.3790   -0.2250   -8.1200 N.am   44  SER44      -0.1950
     50  CA         2.4820   -0.0390   -9.0630 C.3    44  SER44       0.1924
     51  C          2.0270    0.1830  -10.4960 C.2    44  SER44       0.2314
     52  O          0.8710   -0.0580  -10.8320 O.2    44  SER44      -0.2863
     53  CB         3.4580   -1.2130   -9.0070 C.3    44  SER44       0.2116
     54  OG         2.9970   -2.3120   -9.7730 O.3    44  SER44      -0.2180
     55  N          3.9280   -0.6290  -14.3910 N.3    46  VAL46      -0.1245
     56  CA         5.0730   -1.2420  -15.0620 C.3    46  VAL46       0.1561
     57  C          5.2000   -0.6810  -16.4720 C.2    46  VAL46       0.2260
     58  O          4.2120   -0.6240  -17.1890 O.2    46  VAL46      -0.2867
     59  CB         5.0600   -2.7870  -15.0060 C.3    46  VAL46       0.0252
     60  CG1        6.2950   -3.3700  -15.6760 C.3    46  VAL46       0.0019
     61  CG2        4.9840   -3.2690  -13.5640 C.3    46  VAL46       0.0019
     62  N         11.8890   -3.9130  -17.6530 N.3    59  ALA59      -0.1245
     63  CA        10.5460   -3.5820  -17.2210 C.3    59  ALA59       0.1562
     64  C         10.7240   -2.7790  -15.9250 C.2    59  ALA59       0.2260
     65  O         11.2450   -3.2970  -14.9290 O.2    59  ALA59      -0.2867
     66  CB         9.7710   -4.8430  -16.9680 C.3    59  ALA59       0.0290
     67  N          9.2100   -1.0640  -12.8080 N.3    61  LYS61      -0.1245
     68  CA         8.0260   -1.1090  -11.9440 C.3    61  LYS61       0.1561
     69  C          8.0740    0.0190  -10.9510 C.2    61  LYS61       0.2260
     70  O          8.7670   -0.0960   -9.9430 O.2    61  LYS61      -0.2867
     71  CB         7.9210   -2.4780  -11.2380 C.3    61  LYS61       0.0271
     72  CG         6.7310   -2.6840  -10.2830 C.3    61  LYS61       0.0035
     73  CD         6.7250   -4.1290   -9.7900 C.3    61  LYS61       0.0206
     74  CE         5.9120   -4.3240   -8.5410 C.3    61  LYS61       0.1093
     75  NZ         5.8230   -5.7550   -8.1570 N.3    61  LYS61      -0.1314
     76  N          6.6730    2.3720   -7.9710 N.3    63  LEU63      -0.1245
     77  CA         5.8720    2.0600   -6.7850 C.3    63  LEU63       0.1561
     78  C          5.0680    3.2300   -6.1530 C.2    63  LEU63       0.2260
     79  O          5.6200    4.2900   -5.8400 O.2    63  LEU63      -0.2867
     80  CB         6.7740    1.4050   -5.7180 C.3    63  LEU63       0.0270
     81  CG         7.5650    0.1570   -6.1510 C.3    63  LEU63       0.0019
     82  CD1        8.4990   -0.2890   -5.0640 C.3    63  LEU63       0.0001
     83  CD2        6.6520   -0.9980   -6.5800 C.3    63  LEU63       0.0001
     84  N          3.7580    2.6810   -0.5190 N.3    66  VAL66      -0.1245
     85  CA         3.5920    1.4230    0.2170 C.3    66  VAL66       0.1561
     86  C          4.7100    1.3180    1.2610 C.2    66  VAL66       0.2260
     87  O          5.8340    1.7660    0.9950 O.2    66  VAL66      -0.2867
     88  CB         3.4570    0.1750   -0.7110 C.3    66  VAL66       0.0252
     89  CG1        4.6960   -0.0760   -1.5700 C.3    66  VAL66       0.0019
     90  CG2        2.9880   -1.0760    0.0280 C.3    66  VAL66       0.0019
     91  N          6.8140   -3.9940    2.8810 N.3    70  LYS70      -0.1245
     92  CA         6.3360   -4.6690    1.6670 C.3    70  LYS70       0.1561
     93  C          7.3880   -4.6960    0.5360 C.2    70  LYS70       0.2260
     94  O          7.5000   -5.7100   -0.1680 O.2    70  LYS70      -0.2867
     95  CB         5.0580   -3.9740    1.1660 C.3    70  LYS70       0.0271
     96  CG         3.9600   -4.9190    0.6890 C.3    70  LYS70       0.0035
     97  CD         3.9490   -5.1340   -0.8230 C.3    70  LYS70       0.0206
     98  CE         2.8530   -6.1010   -1.2190 C.3    70  LYS70       0.1093
     99  NZ         2.9140   -6.4630   -2.6620 N.3    70  LYS70      -0.1314
    100  N          9.7420   -8.0020   -0.9590 N.3    74  GLU74      -0.1245
    101  CA         9.7700   -8.2890   -2.3990 C.3    74  GLU74       0.1567
    102  C         11.2030   -8.2700   -2.9220 C.2    74  GLU74       0.2260
    103  O         11.5900   -9.2110   -3.6100 O.2    74  GLU74      -0.2867
    104  CB         8.8920   -7.3080   -3.1710 C.3    74  GLU74       0.0388
    105  CG         8.7990   -7.6540   -4.6380 C.3    74  GLU74       0.1160
    106  CD         7.8830   -6.8080   -5.4960 C.2    74  GLU74       0.3649
    107  OE1        7.2110   -5.8920   -4.9540 O.co2  74  GLU74      -0.2457
    108  OE2        7.8200   -7.0940   -6.7180 O.co2  74  GLU74      -0.2457
    109  N         11.8100  -14.3700  -12.5770 N.3    88  ILE88      -0.1245
    110  CA        12.1430  -13.0120  -13.0360 C.3    88  ILE88       0.1561
    111  C         13.3730  -12.4570  -12.3010 C.2    88  ILE88       0.2260
    112  O         13.4880  -12.5950  -11.0820 O.2    88  ILE88      -0.2867
    113  CB        10.9230  -12.0570  -12.9900 C.3    88  ILE88       0.0252
    114  CG1       11.0710  -10.8860  -13.9570 C.3    88  ILE88       0.0019
    115  CG2       10.5930  -11.5840  -11.5880 C.3    88  ILE88       0.0019
    116  CD1       10.8080  -11.2290  -15.4220 C.3    88  ILE88       0.0001
    117  N         13.4130   -4.8040  -13.6730 N.3   106  PHE106     -0.1227
    118  CA        13.4290   -6.2400  -13.9350 C.3   106  PHE106      0.1736
    119  C         13.8450   -6.5090  -15.3590 C.2   106  PHE106      0.2595
    120  O         13.6250   -5.6530  -16.2100 O.2   106  PHE106     -0.2718
    121  CB        12.0160   -6.8350  -13.7710 C.3   106  PHE106      0.0547
    122  CG        11.4010   -6.7260  -12.4020 C.ar  106  PHE106     -0.0202
    123  CD1       10.5980   -5.6440  -12.0690 C.ar  106  PHE106     -0.0042
    124  CD2       11.5890   -7.7250  -11.4570 C.ar  106  PHE106     -0.0042
    125  CE1       10.0290   -5.5430  -10.8010 C.ar  106  PHE106     -0.0003
    126  CE2       11.0090   -7.6270  -10.1980 C.ar  106  PHE106     -0.0003
    127  CZ        10.2670   -6.5180   -9.8660 C.ar  106  PHE106     -0.0000
    128  N         14.3240   -7.7380  -15.6530 N.am  107  GLU107     -0.1965
    129  CA        14.5780   -8.1810  -17.0200 C.3   107  GLU107      0.1733
    130  C         13.2370   -8.1280  -17.7860 C.2   107  GLU107      0.2616
    131  O         12.1900   -8.4400  -17.2110 O.2   107  GLU107     -0.2715
    132  CB        15.1810   -9.6000  -17.0520 C.3   107  GLU107      0.0429
    133  CG        14.3340  -10.7210  -16.4630 C.3   107  GLU107      0.1163
    134  CD        14.5900  -12.1180  -17.0010 C.2   107  GLU107      0.3649
    135  OE1       14.6490  -13.0630  -16.1830 O.co2 107  GLU107     -0.2457
    136  OE2       14.7060  -12.2780  -18.2390 O.co2 107  GLU107     -0.2457
    137  N         13.2480   -7.6690  -19.0410 N.am  108  TYR108     -0.1960
    138  CA        12.0050   -7.5540  -19.8010 C.3   108  TYR108      0.1771
    139  C         11.6040   -8.8840  -20.4340 C.2   108  TYR108      0.2619
    140  O         12.4580   -9.5420  -21.0180 O.2   108  TYR108     -0.2715
    141  CB        12.1320   -6.4380  -20.8700 C.3   108  TYR108      0.0574
    142  CG        10.9170   -6.3020  -21.7650 C.ar  108  TYR108     -0.0198
    143  CD1        9.7520   -5.6960  -21.3060 C.ar  108  TYR108     -0.0009
    144  CD2       10.9140   -6.8270  -23.0530 C.ar  108  TYR108     -0.0009
    145  CE1        8.6140   -5.6130  -22.1030 C.ar  108  TYR108      0.0417
    146  CE2        9.7790   -6.7570  -23.8590 C.ar  108  TYR108      0.0417
    147  CZ         8.6310   -6.1400  -23.3810 C.ar  108  TYR108      0.1957
    148  OH         7.5170   -6.0390  -24.1810 O.3   108  TYR108     -0.2866
    149  N         10.3140   -9.2660  -20.3470 N.am  109  ILE109     -0.1977
    150  CA         9.7500  -10.4580  -21.0180 C.3   109  ILE109      0.1596
    151  C          8.6240   -9.9690  -21.9240 C.2   109  ILE109      0.2287
    152  O          7.6800   -9.3430  -21.4320 O.2   109  ILE109     -0.2864
    153  CB         9.2710  -11.6020  -20.0750 C.3   109  ILE109      0.0276
    154  CG1       10.3600  -12.0460  -19.0930 C.3   109  ILE109      0.0022
    155  CG2        8.7110  -12.7900  -20.8590 C.3   109  ILE109      0.0022
    156  CD1       11.6910  -12.5470  -19.6830 C.3   109  ILE109      0.0001
    157  N          5.5600  -10.3410  -23.1220 N.3   111  ASN111     -0.1240
    158  CA         4.3500  -11.1150  -22.8750 C.3   111  ASN111      0.1653
    159  C          3.2100  -10.7570  -23.8400 C.2   111  ASN111      0.2266
    160  O          3.1890   -9.6640  -24.4220 O.2   111  ASN111     -0.2867
    161  CB         3.9040  -10.9530  -21.4180 C.3   111  ASN111      0.1155
    162  CG         2.7740  -11.8640  -20.9580 C.2   111  ASN111      0.2627
    163  OD1        2.8430  -13.1080  -21.0150 O.2   111  ASN111     -0.2716
    164  ND2        1.7090  -11.2520  -20.4630 N.am  111  ASN111     -0.0877
    165  N         -1.9200  -14.6680  -14.7400 N.3   153  HIS153     -0.1226
    166  CA        -1.6030  -13.2440  -14.7420 C.3   153  HIS153      0.1752
    167  C         -0.1920  -12.9550  -14.2390 C.2   153  HIS153      0.2596
    168  O          0.3580  -11.8850  -14.5350 O.2   153  HIS153     -0.2718
    169  CB        -2.6140  -12.4970  -13.8670 C.3   153  HIS153      0.0759
    170  CG        -4.0320  -12.8810  -14.1330 C.ar  153  HIS153      0.0818
    171  ND1       -4.5230  -14.1280  -13.7790 N.ar  153  HIS153     -0.2268
    172  CD2       -5.0220  -12.1640  -14.7070 C.ar  153  HIS153      0.1154
    173  CE1       -5.7840  -14.1350  -14.1650 C.ar  153  HIS153      0.1986
    174  NE2       -6.1330  -12.9680  -14.7150 N.ar  153  HIS153     -0.2212
    175  N          0.3780  -13.8850  -13.4530 N.am  154  ASN154     -0.1974
    176  CA         1.7080  -13.7420  -12.8840 C.3   154  ASN154      0.1688
    177  C          2.7280  -14.6420  -13.5620 C.2   154  ASN154      0.2292
    178  O          3.8170  -14.8610  -13.0350 O.2   154  ASN154     -0.2864
    179  CB         1.6650  -13.9290  -11.3800 C.3   154  ASN154      0.1181
    180  CG         0.9240  -12.8230  -10.6640 C.2   154  ASN154      0.2629
    181  OD1        0.8660  -11.6530  -11.0910 O.2   154  ASN154     -0.2716
    182  ND2        0.3900  -13.1530   -9.5200 N.am  154  ASN154     -0.0877
    183  N          4.6840  -14.7540  -17.2010 N.3   156  MET156     -0.1245
    184  CA         5.0450  -14.0550  -18.4410 C.3   156  MET156      0.1570
    185  C          5.6220  -15.0580  -19.4130 C.2   156  MET156      0.2261
    186  O          6.5190  -15.8190  -19.0450 O.2   156  MET156     -0.2867
    187  CB         6.0550  -12.9120  -18.2020 C.3   156  MET156      0.0387
    188  CG         5.5820  -11.8480  -17.2520 C.3   156  MET156      0.0595
    189  SD         4.2500  -10.8240  -17.8990 S.3   156  MET156     -0.1393
    190  CE         2.8060  -11.4930  -17.0160 C.3   156  MET156      0.0692
    191  N          6.4420  -14.0480  -12.2000 N.3   167  ILE167     -0.1231
    192  CA         6.5840  -12.6720  -11.7250 C.3   167  ILE167      0.1692
    193  C          5.6950  -12.4010  -10.4960 C.2   167  ILE167      0.2592
    194  O          5.1310  -13.3480   -9.9320 O.2   167  ILE167     -0.2718
    195  CB         6.3590  -11.6590  -12.8870 C.3   167  ILE167      0.0266
    196  CG1        4.9180  -11.6420  -13.4000 C.3   167  ILE167      0.0019
    197  CG2        7.3410  -11.8970  -14.0200 C.3   167  ILE167      0.0020
    198  CD1        4.4630  -10.3410  -13.9810 C.3   167  ILE167      0.0001
    199  N          5.5770  -11.1220  -10.0810 N.am  168  SER168     -0.1952
    200  CA         4.7670  -10.6750   -8.9470 C.3   168  SER168      0.1924
    201  C          5.1280  -11.3710   -7.6260 C.2   168  SER168      0.2314
    202  O          4.3370  -12.1590   -7.0870 O.2   168  SER168     -0.2863
    203  CB         3.2800  -10.7810   -9.2610 C.3   168  SER168      0.2116
    204  OG         2.4900  -10.0660   -8.3280 O.3   168  SER168     -0.2180
    205  N          5.4930   -9.8320   -4.8010 N.3   170  GLY170     -0.1225
    206  CA         5.0160   -8.8900   -3.7930 C.3   170  GLY170      0.1811
    207  C          4.3010   -9.5330   -2.6220 C.2   170  GLY170      0.2280
    208  O          4.3980   -9.0460   -1.4920 O.2   170  GLY170     -0.2866
@<TRIPOS>BOND
     1   160   159    2
     2   148   147    1
     3   146   147   ar
     4   146   144   ar
     5   159   158    1
     6   147   145   ar
     7   157   158    1
     8   144   142   ar
     9   158   161    1
    10   145   143   ar
    11   151   152    2
    12   151   150    1
    13     7     5    1
    14   142   143   ar
    15   142   141    1
    16   161   162    1
    17   150   149    1
    18   150   153    1
    19   140   139    2
    20   163   162    2
    21   162   164   am
    22   141   138    1
    23   155   153    1
    24     5     2    1
    25     5     6    1
    26   139   149   am
    27   139   138    1
    28     2     1    1
    29     2     3    1
    30   153   154    1
    31   138   137    1
    32   156   154    1
    33     8     6    1
    34   185   186    2
    35   185   184    1
    36     4     3    2
    37     3     9   am
    38   137   130   am
    39   184   187    1
    40   184   183    1
    41   136   134   ar
    42   187   188    1
    43   189   188    1
    44   189   190    1
    45     9    10    1
    46   130   131    2
    47   130   129    1
    48    62    63    1
    49    63    66    1
    50    63    64    1
    51    58    57    2
    52   132   129    1
    53   132   133    1
    54   129   128    1
    55   134   133    1
    56   134   135   ar
    57    10    11    1
    58    57    56    1
    59    22    21    1
    60   120   119    2
    61    19    18    1
    62    19    20    1
    63    64    65    2
    64    11    12    2
    65    11    13   am
    66    60    59    1
    67   128   119   am
    68   116   114    1
    69   119   118    1
    70    18    17    1
    71    21    20    2
    72    21    23    1
    73    13    14    1
    74    56    59    1
    75    56    55    1
    76    59    61    1
    77   166   165    1
    78   166   167    1
    79   166   169    1
    80   174   172   ar
    81   174   173   ar
    82   172   170   ar
    83   168   167    2
    84    17    14    1
    85   167   175   am
    86   173   171   ar
    87   170   169    1
    88   170   171   ar
    89   197   195    1
    90    14    15    1
    91   198   196    1
    92   114   113    1
    93   118   121    1
    94   118   117    1
    95   121   122    1
    96   177   178    2
    97   177   176    1
    98   175   176    1
    99   196   195    1
   100    16    15    2
   101   110   113    1
   102   110   109    1
   103   110   111    1
   104   113   115    1
   105   195   192    1
   106   176   179    1
   107    15    24   am
   108    67    68    1
   109   122   123   ar
   110   122   124   ar
   111   111   112    2
   112   191   192    1
   113   123   125   ar
   114    68    71    1
   115    68    69    1
   116   192   193    1
   117    24    25    1
   118   124   126   ar
   119   179   180    1
   120    71    72    1
   121   181   180    2
   122    69    70    2
   123    52    51    2
   124   125   127   ar
   125   180   182   am
   126   193   199   am
   127   193   194    2
   128    51    50    1
   129    25    26    1
   130    72    73    1
   131   126   127   ar
   132   199   200    1
   133    73    74    1
   134    54    53    1
   135    27    26    2
   136    26    28   am
   137   203   200    1
   138   203   204    1
   139    50    53    1
   140    50    49    1
   141   200   201    1
   142    74    75    1
   143    28    29    1
   144    49    39   am
   145    76    77    1
   146   201   202    2
   147    29    30    1
   148    29    32    1
   149    39    40    2
   150    39    38    1
   151    77    78    1
   152    77    80    1
   153   108   106   ar
   154    30    31    2
   155    30    37   am
   156    83    81    1
   157    37    38    1
   158    78    79    2
   159    81    80    1
   160    81    82    1
   161    32    33    1
   162    38    41    1
   163   106   107   ar
   164   106   105    1
   165    33    34    1
   166   205   206    1
   167   105   104    1
   168    41    42    1
   169    34    35    1
   170   206   207    1
   171   103   102    2
   172    42    44   ar
   173    42    43   ar
   174    35    36    1
   175   104   101    1
   176    44    46   ar
   177    43    45   ar
   178   102   101    1
   179    99    98    1
   180   207   208    2
   181   101   100    1
   182    46    47   ar
   183    45    47   ar
   184    47    48    1
   185    89    88    1
   186    98    97    1
   187    97    96    1
   188    88    90    1
   189    88    85    1
   190    84    85    1
   191    94    93    2
   192    85    86    1
   193    93    92    1
   194    96    95    1
   195    87    86    2
   196    95    92    1
   197    92    91    1
