@<TRIPOS>MOLECULE
tmp/5xvxA03.pdb
 112 101 0 0 0
SMALL
GASTEIGER

@<TRIPOS>ATOM
      1  N         -8.8230   14.0490  105.0340 N.3    77  LYS77      -0.1231
      2  CA        -7.8900   14.6070  104.1000 C.3    77  LYS77       0.1693
      3  C         -8.2120   16.1050  103.9850 C.2    77  LYS77       0.2593
      4  O         -9.3810   16.4810  103.8220 O.2    77  LYS77      -0.2718
      5  CB        -8.0510   13.9990  102.7320 C.3    77  LYS77       0.0285
      6  CG        -7.0180   14.4670  101.7150 C.3    77  LYS77       0.0035
      7  CD        -5.7430   13.7010  101.8830 C.3    77  LYS77       0.0206
      8  CE        -4.5660   14.3140  101.1220 C.3    77  LYS77       0.1093
      9  NZ        -3.9430   15.5030  101.7820 N.3    77  LYS77      -0.1314
     10  N         -7.1820   16.9110  104.1300 N.am   78  GLY78      -0.1942
     11  CA        -7.2960   18.3470  103.8920 C.3    78  GLY78       0.2014
     12  C         -6.1390   19.0650  104.5320 C.2    78  GLY78       0.2639
     13  O         -5.3980   18.5150  105.3420 O.2    78  GLY78      -0.2714
     14  N         -5.9740   20.3240  104.1750 N.am   79  GLY79      -0.1954
     15  CA        -4.7950   21.0660  104.5710 C.3    79  GLY79       0.1869
     16  C         -4.7070   21.6390  105.9560 C.2    79  GLY79       0.2309
     17  O         -5.6330   21.5150  106.7690 O.2    79  GLY79      -0.2863
     18  N        -14.5270   20.5270  102.5740 N.3    98  GLN98      -0.1245
     19  CA       -13.5990   19.4930  102.1560 C.3    98  GLN98       0.1566
     20  C        -14.2570   18.1220  101.9670 C.2    98  GLN98       0.2260
     21  O        -13.8400   17.3430  101.0790 O.2    98  GLN98      -0.2867
     22  CB       -12.4220   19.3800  103.1620 C.3    98  GLN98       0.0367
     23  CG       -11.1640   18.8260  102.5340 C.3    98  GLN98       0.0905
     24  CD       -10.4420   19.8330  101.6630 C.2    98  GLN98       0.2608
     25  OE1      -10.5860   21.0230  101.8450 O.2    98  GLN98      -0.2717
     26  NE2       -9.6350   19.3480  100.7270 N.am   98  GLN98      -0.0878
     27  N        -16.0230   18.3970   98.4650 N.3   101  LYS101     -0.1245
     28  CA       -14.9610   18.5630   97.4820 C.3   101  LYS101      0.1561
     29  C        -14.2850   17.2220   97.2310 C.2   101  LYS101      0.2260
     30  O        -14.0940   16.7720   96.0850 O.2   101  LYS101     -0.2867
     31  CB       -13.9380   19.5640   97.9870 C.3   101  LYS101      0.0271
     32  CG       -12.7720   19.8400   97.0340 C.3   101  LYS101      0.0035
     33  CD       -11.6560   20.6520   97.6640 C.3   101  LYS101      0.0206
     34  CE       -12.1350   21.8520   98.4590 C.3   101  LYS101      0.1093
     35  NZ       -11.0230   22.7520   98.8270 N.3   101  LYS101     -0.1314
     36  N         -9.5600   19.3840  108.1560 N.3   113  LYS113     -0.1245
     37  CA        -8.7520   20.6050  108.0140 C.3   113  LYS113      0.1561
     38  C         -8.1390   20.9120  109.3630 C.2   113  LYS113      0.2260
     39  O         -8.7560   20.5960  110.3950 O.2   113  LYS113     -0.2867
     40  CB        -9.6600   21.7890  107.6050 C.3   113  LYS113      0.0271
     41  CG        -8.8880   22.8450  106.8360 C.3   113  LYS113      0.0035
     42  CD        -8.7060   22.4360  105.3920 C.3   113  LYS113      0.0206
     43  CE        -7.9530   23.4950  104.6240 C.3   113  LYS113      0.1093
     44  NZ        -8.0300   23.1180  103.2100 N.3   113  LYS113     -0.1314
     45  N         -1.8840   18.4390  104.6080 N.3   151  ALA151     -0.1231
     46  CA        -1.1630   19.0330  103.4950 C.3   151  ALA151      0.1694
     47  C         -1.0740   20.5240  103.8280 C.2   151  ALA151      0.2593
     48  O         -1.3810   20.9300  104.9460 O.2   151  ALA151     -0.2718
     49  CB        -1.9120   18.8120  102.2130 C.3   151  ALA151      0.0304
     50  N         -0.6390   21.3260  102.8640 N.am  152  GLY152     -0.1942
     51  CA        -0.6210   22.7790  103.0300 C.3   152  GLY152      0.2014
     52  C         -1.9940   23.4200  102.8700 C.2   152  GLY152      0.2638
     53  O         -2.9930   22.7330  102.6850 O.2   152  GLY152     -0.2714
     54  N         -2.0140   24.7380  103.0380 N.am  153  ASP153     -0.1971
     55  CA        -3.1370   25.6270  102.7220 C.3   153  ASP153      0.1709
     56  C         -2.4950   26.9990  102.9790 C.2   153  ASP153      0.2293
     57  O         -1.2790   27.1420  102.8360 O.2   153  ASP153     -0.2864
     58  CB        -4.3260   25.3700  103.6460 C.3   153  ASP153      0.1436
     59  CG        -5.6320   26.0500  103.1850 C.2   153  ASP153      0.3671
     60  OD1       -6.3260   25.5470  102.2640 O.co2 153  ASP153     -0.2456
     61  OD2       -5.9750   27.0960  103.8050 O.co2 153  ASP153     -0.2456
     62  N          1.9290   18.3320   91.8720 N.3   192  ARG192     -0.1245
     63  CA         1.2410   18.8380   93.0610 C.3   192  ARG192      0.1563
     64  C          1.3610   20.3630   93.2860 C.2   192  ARG192      0.2260
     65  O          0.3690   20.9950   93.6810 O.2   192  ARG192     -0.2867
     66  CB         1.6090   18.0640   94.3600 C.3   192  ARG192      0.0307
     67  CG         0.8310   18.5270   95.5890 C.3   192  ARG192      0.0489
     68  CD        -0.6570   18.2230   95.4520 C.3   192  ARG192      0.2205
     69  NE        -1.5340   18.8040   96.4900 N.pl3 192  ARG192     -0.0865
     70  CZ        -2.0130   20.0460   96.4940 C.cat 192  ARG192      0.5346
     71  NH1       -1.6700   20.9320   95.5380 N.pl3 192  ARG192      0.1354
     72  NH2       -2.8480   20.4310   97.4410 N.pl3 192  ARG192      0.1354
     73  N         -3.6870   22.8720   92.0490 N.3   196  THR196     -0.1218
     74  CA        -4.9110   23.5800   92.3800 C.3   196  THR196      0.1862
     75  C         -5.2160   24.6390   91.2930 C.2   196  THR196      0.2287
     76  O         -6.3220   24.6850   90.7310 O.2   196  THR196     -0.2866
     77  CB        -4.8730   24.1960   93.7700 C.3   196  THR196      0.1770
     78  OG1       -4.6110   23.1220   94.7160 O.3   196  THR196     -0.2211
     79  CG2       -6.1960   24.8130   94.1060 C.3   196  THR196      0.0375
     80  N        -11.2190   28.7900   98.9810 N.3   345  ASN345     -0.1240
     81  CA       -12.3690   28.2040   99.6130 C.3   345  ASN345      0.1653
     82  C        -13.3450   29.2860  100.1180 C.2   345  ASN345      0.2266
     83  O        -12.9610   30.1980  100.8180 O.2   345  ASN345     -0.2867
     84  CB       -11.9210   27.2840  100.7680 C.3   345  ASN345      0.1155
     85  CG       -11.2980   26.0070  100.2340 C.2   345  ASN345      0.2627
     86  OD1      -11.9620   25.2620   99.5000 O.2   345  ASN345     -0.2716
     87  ND2      -10.0370   25.7640  100.5550 N.am  345  ASN345     -0.0877
     88  N        -11.6830   24.0350   92.6560 N.3   378  ASN378     -0.1240
     89  CA       -10.3720   24.0090   93.3030 C.3   378  ASN378      0.1653
     90  C         -9.9850   22.5940   93.7910 C.2   378  ASN378      0.2266
     91  O         -8.9120   22.4380   94.3580 O.2   378  ASN378     -0.2867
     92  CB       -10.2140   25.0780   94.3900 C.3   378  ASN378      0.1155
     93  CG       -10.9070   24.7600   95.7040 C.2   378  ASN378      0.2627
     94  OD1      -11.0090   23.5970   96.1090 O.2   378  ASN378     -0.2716
     95  ND2      -11.3590   25.7930   96.3960 N.am  378  ASN378     -0.0877
     96  N         -6.2740   20.2560   93.6460 N.3   381  GLY381     -0.1210
     97  CA        -5.1700   20.1810   94.6070 C.3   381  GLY381      0.1956
     98  C         -5.2980   18.9080   95.4230 C.2   381  GLY381      0.2611
     99  O         -4.3890   18.0910   95.4290 O.2   381  GLY381     -0.2717
    100  N         -6.4400   18.7700   96.0500 N.am  382  VAL382     -0.1979
    101  CA        -6.7030   17.5630   96.8510 C.3   382  VAL382      0.1595
    102  C         -6.6970   16.2780   95.9820 C.2   382  VAL382      0.2287
    103  O         -6.2700   15.2160   96.4430 O.2   382  VAL382     -0.2864
    104  CB        -7.9290   17.7330   97.7620 C.3   382  VAL382      0.0276
    105  CG1       -9.2320   17.5850   97.0060 C.3   382  VAL382      0.0022
    106  CG2       -7.8460   16.6720   98.8910 C.3   382  VAL382      0.0022
    107  N         -3.1730   15.5170   95.5860 N.3   385  SER385     -0.1217
    108  CA        -2.7850   14.9350   96.9100 C.3   385  SER385      0.1889
    109  C         -3.1720   13.4590   97.0140 C.2   385  SER385      0.2288
    110  O         -2.3740   12.6500   97.4810 O.2   385  SER385     -0.2866
    111  CB        -3.3780   15.7070   98.0910 C.3   385  SER385      0.2089
    112  OG        -2.6740   16.9030   98.3730 O.3   385  SER385     -0.2183
@<TRIPOS>BOND
     1    76    75    2
     2    75    74    1
     3    62    63    1
     4    73    74    1
     5    74    77    1
     6    88    89    1
     7    63    64    1
     8    63    66    1
     9    64    65    2
    10    89    90    1
    11    89    92    1
    12    96    97    1
    13    77    79    1
    14    77    78    1
    15    90    91    2
    16    66    67    1
    17    92    93    1
    18    97    98    1
    19    98    99    2
    20    98   100   am
    21    68    67    1
    22    68    69    1
    23    71    70    1
    24   107   108    1
    25    93    94    2
    26    93    95   am
    27   102   103    2
    28   102   101    1
    29   100   101    1
    30    30    29    2
    31    69    70    2
    32    70    72    1
    33   101   104    1
    34   108   109    1
    35   108   111    1
    36   105   104    1
    37   109   110    2
    38    32    33    1
    39    32    31    1
    40    29    28    1
    41    28    31    1
    42    28    27    1
    43    33    34    1
    44   104   106    1
    45   111   112    1
    46    34    35    1
    47    80    81    1
    48    86    85    2
    49    81    82    1
    50    81    84    1
    51    82    83    2
    52    85    87   am
    53    85    84    1
    54    26    24   am
    55    21    20    2
    56     8     9    1
    57     8     7    1
    58    24    25    2
    59    24    23    1
    60     6     7    1
    61     6     5    1
    62    20    19    1
    63    19    18    1
    64    19    22    1
    65    49    46    1
    66    60    59   ar
    67    23    22    1
    68    53    52    2
    69    55    56    1
    70    55    54    1
    71    55    58    1
    72     5     2    1
    73    57    56    2
    74    50    51    1
    75    50    47   am
    76    52    51    1
    77    52    54   am
    78    59    58    1
    79    59    61   ar
    80    44    43    1
    81    46    47    1
    82    46    45    1
    83     4     3    2
    84    47    48    2
    85    11    10    1
    86    11    12    1
    87     3     2    1
    88     3    10   am
    89     2     1    1
    90    14    12   am
    91    14    15    1
    92    12    13    2
    93    15    16    1
    94    43    42    1
    95    42    41    1
    96    16    17    2
    97    41    40    1
    98    40    37    1
    99    37    36    1
   100    37    38    1
   101    38    39    2
