@<TRIPOS>MOLECULE
tmp/5xvxA01.pdb
 67 64 0 0 0
SMALL
GASTEIGER

@<TRIPOS>ATOM
      1  N        -18.7530   24.8760   77.2010 N.3   210  HIS210     -0.1226
      2  CA       -20.1530   24.5950   77.2840 C.3   210  HIS210      0.1752
      3  C        -21.0180   25.8320   77.0320 C.2   210  HIS210      0.2595
      4  O        -21.9620   25.7810   76.2430 O.2   210  HIS210     -0.2718
      5  CB       -20.5250   23.9890   78.6400 C.3   210  HIS210      0.0759
      6  CG       -21.9670   23.6430   78.7400 C.ar  210  HIS210      0.0818
      7  ND1      -22.4760   22.4560   78.2690 N.ar  210  HIS210     -0.2268
      8  CD2      -23.0230   24.3530   79.2040 C.ar  210  HIS210      0.1154
      9  CE1      -23.7800   22.4280   78.4820 C.ar  210  HIS210      0.1986
     10  NE2      -24.1350   23.5710   79.0380 N.ar  210  HIS210     -0.2212
     11  N        -20.7170   26.9230   77.7170 N.am  211  ALA211     -0.1980
     12  CA       -21.5510   28.1340   77.6160 C.3   211  ALA211      0.1597
     13  C        -21.5380   28.7390   76.1950 C.2   211  ALA211      0.2287
     14  O        -22.5270   29.3430   75.7840 O.2   211  ALA211     -0.2864
     15  CB       -21.1060   29.1730   78.6100 C.3   211  ALA211      0.0319
     16  N        -20.7340   26.9920   73.2820 N.3   213  ASN213     -0.1240
     17  CA       -20.8230   25.9380   72.2650 C.3   213  ASN213      0.1653
     18  C        -19.5020   25.7410   71.5230 C.2   213  ASN213      0.2266
     19  O        -19.4650   25.5540   70.2960 O.2   213  ASN213     -0.2867
     20  CB       -21.9900   26.2320   71.2890 C.3   213  ASN213      0.1155
     21  CG       -23.3450   26.1430   71.9680 C.2   213  ASN213      0.2627
     22  OD1      -23.7340   25.0860   72.4630 O.2   213  ASN213     -0.2716
     23  ND2      -24.0650   27.2540   72.0000 N.am  213  ASN213     -0.0877
     24  N        -28.1990   31.4820   78.2230 N.3   365  GLY365     -0.1210
     25  CA       -26.9590   31.0470   77.5940 C.3   365  GLY365      0.1956
     26  C        -25.7330   31.8560   77.9590 C.2   365  GLY365      0.2611
     27  O        -25.5390   32.2240   79.1240 O.2   365  GLY365     -0.2717
     28  N        -24.9340   32.1840   76.9460 N.am  366  ALA366     -0.1979
     29  CA       -23.6780   32.8890   77.1390 C.3   366  ALA366      0.1597
     30  C        -23.7850   34.3370   77.6210 C.2   366  ALA366      0.2287
     31  O        -22.7670   34.9260   77.9510 O.2   366  ALA366     -0.2864
     32  CB       -22.8200   32.8000   75.8890 C.3   366  ALA366      0.0319
     33  N        -28.8970   19.4850   86.0810 N.3   423  GLN423     -0.1245
     34  CA       -29.9020   19.2600   85.0250 C.3   423  GLN423      0.1566
     35  C        -30.9790   18.2850   85.4940 C.2   423  GLN423      0.2260
     36  O        -32.1460   18.4450   85.1480 O.2   423  GLN423     -0.2867
     37  CB       -29.2590   18.8020   83.7150 C.3   423  GLN423      0.0367
     38  CG       -30.1930   18.8040   82.5020 C.3   423  GLN423      0.0905
     39  CD       -30.6880   20.1920   82.0890 C.2   423  GLN423      0.2608
     40  OE1      -29.9560   21.1700   82.1170 O.2   423  GLN423     -0.2717
     41  NE2      -31.9330   20.2620   81.6660 N.am  423  GLN423     -0.0878
     42  N        -32.7600   27.1590   77.7010 N.3   431  GLY431     -0.1210
     43  CA       -31.7060   28.1240   77.3970 C.3   431  GLY431      0.1956
     44  C        -30.8980   28.6710   78.5710 C.2   431  GLY431      0.2612
     45  O        -29.9370   29.3930   78.3520 O.2   431  GLY431     -0.2717
     46  N        -31.2800   28.3400   79.8020 N.am  432  VAL432     -0.1965
     47  CA       -30.5970   28.8590   80.9980 C.3   432  VAL432      0.1727
     48  C        -29.5100   27.8270   81.4080 C.2   432  VAL432      0.2616
     49  O        -29.7470   26.6250   81.3860 O.2   432  VAL432     -0.2715
     50  CB       -31.6010   29.1200   82.1280 C.3   432  VAL432      0.0290
     51  CG1      -30.9110   29.4650   83.4500 C.3   432  VAL432      0.0023
     52  CG2      -32.5440   30.2490   81.7320 C.3   432  VAL432      0.0023
     53  N        -28.3280   28.3190   81.7510 N.am  433  LEU433     -0.1964
     54  CA       -27.2260   27.4400   82.2080 C.3   433  LEU433      0.1713
     55  C        -27.6440   26.7790   83.5180 C.2   433  LEU433      0.2458
     56  O        -28.2220   27.4320   84.3740 O.2   433  LEU433     -0.2730
     57  CB       -25.9420   28.2350   82.4310 C.3   433  LEU433      0.0310
     58  CG       -25.2940   28.8400   81.1840 C.3   433  LEU433      0.0022
     59  CD1      -24.2520   29.8860   81.5210 C.3   433  LEU433      0.0001
     60  CD2      -24.7040   27.7930   80.2670 C.3   433  LEU433      0.0001
     61  N        -27.3590   25.4740   83.6760 N.am  434  PRO434     -0.2727
     62  CA       -27.6390   24.8450   84.9750 C.3   434  PRO434      0.1402
     63  C        -26.7350   25.4280   86.0890 C.2   434  PRO434      0.2269
     64  O        -25.6460   25.8840   85.8030 O.2   434  PRO434     -0.2865
     65  CB       -27.3180   23.3680   84.7290 C.3   434  PRO434      0.0296
     66  CG       -27.1620   23.1980   83.2800 C.3   434  PRO434      0.0237
     67  CD       -26.7670   24.5320   82.7260 C.3   434  PRO434      0.0939
@<TRIPOS>BOND
     1    19    18    2
     2    20    21    1
     3    20    17    1
     4    18    17    1
     5    21    23   am
     6    21    22    2
     7    17    16    1
     8    14    13    2
     9    32    29    1
    10    13    12    1
    11     4     3    2
    12    28    29    1
    13    28    26   am
    14     3     2    1
    15     3    11   am
    16    29    30    1
    17     1     2    1
    18     2     5    1
    19    43    42    1
    20    43    44    1
    21    25    26    1
    22    25    24    1
    23    12    11    1
    24    12    15    1
    25    30    31    2
    26    26    27    2
    27     7     9   ar
    28     7     6   ar
    29    45    44    2
    30     9    10   ar
    31    44    46   am
    32     5     6    1
    33     6     8   ar
    34    10     8   ar
    35    46    47    1
    36    60    58    1
    37    47    48    1
    38    47    50    1
    39    58    59    1
    40    58    57    1
    41    49    48    2
    42    48    53   am
    43    41    39   am
    44    52    50    1
    45    53    54    1
    46    39    40    2
    47    39    38    1
    48    50    51    1
    49    54    57    1
    50    54    55    1
    51    38    37    1
    52    67    66    1
    53    67    61    1
    54    66    65    1
    55    55    61   am
    56    55    56    2
    57    61    62    1
    58    37    34    1
    59    65    62    1
    60    62    63    1
    61    34    35    1
    62    34    33    1
    63    36    35    2
    64    64    63    2
