@<TRIPOS>MOLECULE
tmp/5xw0A05.pdb
 112 101 0 0 0
SMALL
GASTEIGER

@<TRIPOS>ATOM
      1  N         -8.9310   14.1560  105.3240 N.3    77  LYS77      -0.1231
      2  CA        -7.9890   14.7430  104.4110 C.3    77  LYS77       0.1693
      3  C         -8.3030   16.2290  104.2620 C.2    77  LYS77       0.2593
      4  O         -9.4680   16.5980  104.0990 O.2    77  LYS77      -0.2718
      5  CB        -8.1000   14.0740  103.0470 C.3    77  LYS77       0.0285
      6  CG        -7.0530   14.5680  102.0510 C.3    77  LYS77       0.0035
      7  CD        -5.7940   13.7310  102.1760 C.3    77  LYS77       0.0206
      8  CE        -4.6390   14.3760  101.4340 C.3    77  LYS77       0.1093
      9  NZ        -4.0650   15.5920  102.0790 N.3    77  LYS77      -0.1314
     10  N         -7.2640   17.0340  104.3720 N.am   78  GLY78      -0.1942
     11  CA        -7.3550   18.4730  104.1600 C.3    78  GLY78       0.2014
     12  C         -6.1840   19.1750  104.7920 C.2    78  GLY78       0.2639
     13  O         -5.4460   18.5960  105.5510 O.2    78  GLY78      -0.2714
     14  N         -6.0100   20.4420  104.4520 N.am   79  GLY79      -0.1954
     15  CA        -4.8330   21.2000  104.8460 C.3    79  GLY79       0.1869
     16  C         -4.7490   21.7140  106.2650 C.2    79  GLY79       0.2309
     17  O         -5.6940   21.6010  107.0760 O.2    79  GLY79      -0.2863
     18  N        -14.6570   20.5350  102.8640 N.3    98  GLN98      -0.1245
     19  CA       -13.7320   19.4840  102.4630 C.3    98  GLN98       0.1566
     20  C        -14.3970   18.1420  102.2370 C.2    98  GLN98       0.2260
     21  O        -14.0030   17.3910  101.3260 O.2    98  GLN98      -0.2867
     22  CB       -12.6080   19.3380  103.4910 C.3    98  GLN98       0.0367
     23  CG       -11.3690   18.6820  102.9110 C.3    98  GLN98       0.0905
     24  CD       -10.5340   19.6260  102.0580 C.2    98  GLN98       0.2608
     25  OE1      -10.1870   20.7130  102.4970 O.2    98  GLN98      -0.2717
     26  NE2      -10.1600   19.1880  100.8770 N.am   98  GLN98      -0.0878
     27  N        -16.1950   18.3700   98.7630 N.3   101  LYS101     -0.1245
     28  CA       -15.1380   18.5210   97.7700 C.3   101  LYS101      0.1561
     29  C        -14.4400   17.1930   97.5080 C.2   101  LYS101      0.2260
     30  O        -14.2700   16.7380   96.3600 O.2   101  LYS101     -0.2867
     31  CB       -14.1400   19.5590   98.2570 C.3   101  LYS101      0.0271
     32  CG       -12.9840   19.8370   97.3090 C.3   101  LYS101      0.0035
     33  CD       -11.9000   20.7230   97.8880 C.3   101  LYS101      0.0206
     34  CE       -12.4220   21.7740   98.8360 C.3   101  LYS101      0.1093
     35  NZ       -11.3720   22.7590   99.1540 N.3   101  LYS101     -0.1314
     36  N         -9.6870   19.4040  108.4980 N.3   113  LYS113     -0.1245
     37  CA        -8.9170   20.6360  108.3980 C.3   113  LYS113      0.1561
     38  C         -8.3160   20.9580  109.7500 C.2   113  LYS113      0.2260
     39  O         -8.9370   20.6990  110.7750 O.2   113  LYS113     -0.2867
     40  CB        -9.8060   21.8320  107.9690 C.3   113  LYS113      0.0271
     41  CG        -9.0250   22.8530  107.1670 C.3   113  LYS113      0.0035
     42  CD        -8.8460   22.3510  105.7490 C.3   113  LYS113      0.0206
     43  CE        -8.0050   23.3190  104.9220 C.3   113  LYS113      0.1093
     44  NZ        -7.8430   22.7920  103.5520 N.3   113  LYS113     -0.1314
     45  N         -1.8460   18.5260  105.0070 N.3   151  ALA151     -0.1231
     46  CA        -1.0480   19.1220  103.9350 C.3   151  ALA151      0.1694
     47  C         -1.0230   20.6230  104.2360 C.2   151  ALA151      0.2593
     48  O         -1.4400   21.0380  105.3210 O.2   151  ALA151     -0.2718
     49  CB        -1.6690   18.8460  102.5770 C.3   151  ALA151      0.0304
     50  N         -0.5840   21.4390  103.2830 N.am  152  GLY152     -0.1942
     51  CA        -0.4720   22.8780  103.5110 C.3   152  GLY152      0.2014
     52  C         -1.5630   23.7190  102.8610 C.2   152  GLY152      0.2638
     53  O         -1.7100   23.7160  101.6350 O.2   152  GLY152     -0.2714
     54  N         -2.3130   24.4330  103.6970 N.am  153  ASP153     -0.1971
     55  CA        -3.2780   25.4490  103.2750 C.3   153  ASP153      0.1709
     56  C         -2.5910   26.8220  103.4600 C.2   153  ASP153      0.2293
     57  O         -1.3630   26.9180  103.3250 O.2   153  ASP153     -0.2864
     58  CB        -4.5650   25.2920  104.0890 C.3   153  ASP153      0.1436
     59  CG        -5.7480   26.0800  103.5110 C.2   153  ASP153      0.3671
     60  OD1       -6.3810   25.6160  102.5320 O.co2 153  ASP153     -0.2456
     61  OD2       -6.0600   27.1480  104.1040 O.co2 153  ASP153     -0.2456
     62  N          1.7930   18.4700   92.2490 N.3   192  ARG192     -0.1245
     63  CA         1.0830   18.9200   93.4590 C.3   192  ARG192      0.1563
     64  C          1.1540   20.4400   93.6880 C.2   192  ARG192      0.2260
     65  O          0.1470   21.0300   94.0290 O.2   192  ARG192     -0.2867
     66  CB         1.5050   18.1660   94.7430 C.3   192  ARG192      0.0307
     67  CG         0.7310   18.6040   95.9930 C.3   192  ARG192      0.0489
     68  CD        -0.7630   18.3440   95.8640 C.3   192  ARG192      0.2205
     69  NE        -1.5910   18.8670   96.9630 N.pl3 192  ARG192     -0.0865
     70  CZ        -2.0890   20.1000   97.0500 C.cat 192  ARG192      0.5346
     71  NH1       -1.8080   21.0290   96.1180 N.pl3 192  ARG192      0.1354
     72  NH2       -2.8800   20.4230   98.0670 N.pl3 192  ARG192      0.1354
     73  N         -3.8550   22.9400   92.3740 N.3   196  THR196     -0.1218
     74  CA        -5.0870   23.6740   92.6660 C.3   196  THR196      0.1862
     75  C         -5.3700   24.7480   91.5720 C.2   196  THR196      0.2287
     76  O         -6.4690   24.7700   91.0040 O.2   196  THR196     -0.2866
     77  CB        -5.0650   24.2840   94.0680 C.3   196  THR196      0.1770
     78  OG1       -4.8470   23.2170   95.0090 O.3   196  THR196     -0.2211
     79  CG2       -6.3840   24.9580   94.3930 C.3   196  THR196      0.0375
     80  N        -11.3120   28.9080   99.3260 N.3   345  ASN345     -0.1240
     81  CA       -12.4630   28.2780   99.9310 C.3   345  ASN345      0.1653
     82  C        -13.4350   29.3260  100.4600 C.2   345  ASN345      0.2266
     83  O        -13.0460   30.2190  101.1900 O.2   345  ASN345     -0.2867
     84  CB       -12.0260   27.3270  101.0690 C.3   345  ASN345      0.1155
     85  CG       -11.4550   26.0450  100.5280 C.2   345  ASN345      0.2627
     86  OD1      -12.1420   25.3220   99.7960 O.2   345  ASN345     -0.2716
     87  ND2      -10.2110   25.7490  100.8610 N.am  345  ASN345     -0.0877
     88  N        -11.8030   24.1160   93.0540 N.3   378  ASN378     -0.1240
     89  CA       -10.4750   24.0680   93.6900 C.3   378  ASN378      0.1653
     90  C        -10.0500   22.6520   94.1610 C.2   378  ASN378      0.2266
     91  O         -8.9890   22.5160   94.7490 O.2   378  ASN378     -0.2867
     92  CB       -10.3180   25.1460   94.7770 C.3   378  ASN378      0.1155
     93  CG       -11.0340   24.8260   96.0830 C.2   378  ASN378      0.2627
     94  OD1      -11.1530   23.6660   96.4920 O.2   378  ASN378     -0.2716
     95  ND2      -11.5200   25.8700   96.7520 N.am  378  ASN378     -0.0877
     96  N         -6.2940   20.3370   94.0650 N.3   381  GLY381     -0.1210
     97  CA        -5.2250   20.2200   95.0530 C.3   381  GLY381      0.1956
     98  C         -5.3470   18.9260   95.8480 C.2   381  GLY381      0.2611
     99  O         -4.4320   18.0990   95.8670 O.2   381  GLY381     -0.2717
    100  N         -6.4900   18.7650   96.4860 N.am  382  VAL382     -0.1979
    101  CA        -6.7430   17.5700   97.2880 C.3   382  VAL382      0.1595
    102  C         -6.7410   16.3110   96.4050 C.2   382  VAL382      0.2287
    103  O         -6.3210   15.2490   96.8460 O.2   382  VAL382     -0.2864
    104  CB        -8.0110   17.7330   98.1470 C.3   382  VAL382      0.0276
    105  CG1       -9.2860   17.6050   97.3100 C.3   382  VAL382      0.0022
    106  CG2       -7.9910   16.7340   99.3220 C.3   382  VAL382      0.0022
    107  N         -3.1940   15.5010   95.9660 N.3   385  SER385     -0.1217
    108  CA        -2.7780   14.9210   97.2690 C.3   385  SER385      0.1889
    109  C         -3.1870   13.4370   97.3690 C.2   385  SER385      0.2288
    110  O         -2.3870   12.6170   97.7930 O.2   385  SER385     -0.2866
    111  CB        -3.3350   15.7260   98.4390 C.3   385  SER385      0.2089
    112  OG        -2.5880   16.9030   98.6790 O.3   385  SER385     -0.2183
@<TRIPOS>BOND
     1    76    75    2
     2    75    74    1
     3    62    63    1
     4    73    74    1
     5    74    77    1
     6    88    89    1
     7    63    64    1
     8    63    66    1
     9    64    65    2
    10    89    90    1
    11    89    92    1
    12    96    97    1
    13    77    79    1
    14    77    78    1
    15    90    91    2
    16    66    67    1
    17    92    93    1
    18    97    98    1
    19    98    99    2
    20    98   100   am
    21    68    67    1
    22    68    69    1
    23   107   108    1
    24    93    94    2
    25    93    95   am
    26    71    70    1
    27    30    29    2
    28   102   103    2
    29   102   101    1
    30   100   101    1
    31    69    70    2
    32    70    72    1
    33   108   109    1
    34   108   111    1
    35   101   104    1
    36    32    33    1
    37    32    31    1
    38   105   104    1
    39   109   110    2
    40    29    28    1
    41    28    31    1
    42    28    27    1
    43    33    34    1
    44   104   106    1
    45   111   112    1
    46    34    35    1
    47    80    81    1
    48    86    85    2
    49    81    82    1
    50    81    84    1
    51    82    83    2
    52    85    87   am
    53    85    84    1
    54    26    24   am
    55    21    20    2
    56     8     9    1
    57     8     7    1
    58    53    52    2
    59     6     7    1
    60     6     5    1
    61    24    25    2
    62    24    23    1
    63    20    19    1
    64    19    18    1
    65    19    22    1
    66    60    59   ar
    67    49    46    1
    68    52    51    1
    69    52    54   am
    70    23    22    1
    71     5     2    1
    72    55    56    1
    73    55    54    1
    74    55    58    1
    75    50    51    1
    76    50    47   am
    77    57    56    2
    78    59    58    1
    79    59    61   ar
    80    44    43    1
    81    46    47    1
    82    46    45    1
    83     4     3    2
    84    11    10    1
    85    11    12    1
    86    47    48    2
    87     3    10   am
    88     3     2    1
    89     2     1    1
    90    14    12   am
    91    14    15    1
    92    12    13    2
    93    15    16    1
    94    43    42    1
    95    42    41    1
    96    16    17    2
    97    41    40    1
    98    40    37    1
    99    37    36    1
   100    37    38    1
   101    38    39    2
