@<TRIPOS>MOLECULE
tmp/5xw0A00.pdb
 77 73 0 0 0
SMALL
GASTEIGER

@<TRIPOS>ATOM
      1  N          7.6910    5.7920  108.2340 N.3   175  TRP175     -0.1241
      2  CA         7.9240    6.6390  107.0830 C.3   175  TRP175      0.1605
      3  C          6.7560    6.3180  106.1610 C.2   175  TRP175      0.2264
      4  O          6.7410    5.2720  105.5270 O.2   175  TRP175     -0.2867
      5  CB         9.2940    6.2750  106.4550 C.3   175  TRP175      0.0550
      6  CG         9.9080    7.3850  105.6620 C.ar  175  TRP175      0.0003
      7  CD1       11.0250    8.0850  105.9800 C.ar  175  TRP175      0.0946
      8  CD2        9.4300    7.9240  104.4310 C.ar  175  TRP175      0.0152
      9  NE1       11.2760    9.0400  105.0350 N.ar  175  TRP175     -0.2442
     10  CE2       10.3250    8.9570  104.0570 C.ar  175  TRP175      0.0810
     11  CE3        8.3650    7.6090  103.5730 C.ar  175  TRP175      0.0012
     12  CZ2       10.1660    9.6970  102.8940 C.ar  175  TRP175      0.0191
     13  CZ3        8.2020    8.3720  102.3910 C.ar  175  TRP175      0.0001
     14  CH2        9.1060    9.3890  102.0740 C.ar  175  TRP175      0.0015
     15  N         10.1130   16.5140   96.5520 N.3   184  GLY184     -0.1225
     16  CA        10.3780   15.5300   95.4970 C.3   184  GLY184      0.1811
     17  C         11.1880   14.3100   95.8920 C.2   184  GLY184      0.2280
     18  O         10.8600   13.2010   95.4700 O.2   184  GLY184     -0.2866
     19  N          8.9670   11.6950   99.0210 N.3   187  GLY187     -0.1210
     20  CA         7.6000   11.2650   98.8230 C.3   187  GLY187      0.1956
     21  C          6.6070   12.2190   98.2150 C.2   187  GLY187      0.2612
     22  O          5.4030   11.9490   98.2330 O.2   187  GLY187     -0.2717
     23  N          7.0860   13.3310   97.6620 N.am  188  GLY188     -0.1956
     24  CA         6.2070   14.2890   97.0010 C.3   188  GLY188      0.1869
     25  C          5.7050   13.8350   95.6450 C.2   188  GLY188      0.2309
     26  O          6.1930   12.8460   95.0820 O.2   188  GLY188     -0.2863
     27  N         -0.7770   11.6480   95.4200 N.3   388  GLU388     -0.1245
     28  CA         0.4990   11.5810   96.1700 C.3   388  GLU388      0.1567
     29  C          0.4010   10.3970   97.1690 C.2   388  GLU388      0.2260
     30  O          1.3460    9.6310   97.3130 O.2   388  GLU388     -0.2867
     31  CB         0.7950   12.8930   96.8760 C.3   388  GLU388      0.0388
     32  CG         2.1060   12.9340   97.6500 C.3   388  GLU388      0.1160
     33  CD         2.4620   14.3010   98.2080 C.2   388  GLU388      0.3649
     34  OE1        1.9150   15.3330   97.7220 O.co2 388  GLU388     -0.2457
     35  OE2        3.2800   14.3730   99.1640 O.co2 388  GLU388     -0.2457
     36  N          0.7260    7.2200   95.1870 N.3   391  GLN391     -0.1231
     37  CA         2.1320    7.0010   94.8590 C.3   391  GLN391      0.1698
     38  C          2.9270    6.5270   96.0770 C.2   391  GLN391      0.2592
     39  O          3.7490    5.6060   95.9500 O.2   391  GLN391     -0.2718
     40  CB         2.7640    8.2570   94.2540 C.3   391  GLN391      0.0381
     41  CG         2.2650    8.5550   92.8490 C.3   391  GLN391      0.0905
     42  CD         2.6230    9.9680   92.4240 C.2   391  GLN391      0.2608
     43  OE1        3.7670   10.2400   92.0500 O.2   391  GLN391     -0.2717
     44  NE2        1.6760   10.8740   92.5290 N.am  391  GLN391     -0.0878
     45  N          2.6760    7.1330   97.2420 N.am  392  ASN392     -0.1974
     46  CA         3.3800    6.7200   98.4570 C.3   392  ASN392      0.1688
     47  C          3.0360    5.2630   98.8110 C.2   392  ASN392      0.2292
     48  O          3.9350    4.5040   99.1430 O.2   392  ASN392     -0.2864
     49  CB         3.0370    7.5950   99.6650 C.3   392  ASN392      0.1181
     50  CG         3.5430    9.0280   99.5730 C.2   392  ASN392      0.2629
     51  OD1        3.0240    9.8740  100.2900 O.2   392  ASN392     -0.2716
     52  ND2        4.5540    9.3150   98.7330 N.am  392  ASN392     -0.0877
     53  N          4.8250    2.9900   96.5300 N.3   395  ARG395     -0.1231
     54  CA         6.2730    3.1580   96.7150 C.3   395  ARG395      0.1694
     55  C          6.9960    3.5620   95.4180 C.2   395  ARG395      0.2592
     56  O          8.1840    3.3130   95.2720 O.2   395  ARG395     -0.2718
     57  CB         6.9200    1.9140   97.3480 C.3   395  ARG395      0.0321
     58  CG         6.2790    1.4710   98.6400 C.3   395  ARG395      0.0489
     59  CD         7.0430    0.3150   99.2730 C.3   395  ARG395      0.2205
     60  NE         6.3490   -0.1360  100.4640 N.pl3 395  ARG395     -0.0865
     61  CZ         6.5260    0.3690  101.6950 C.cat 395  ARG395      0.5346
     62  NH1        7.4090    1.3270  101.9210 N.pl3 395  ARG395      0.1354
     63  NH2        5.7880   -0.0750  102.6960 N.pl3 395  ARG395      0.1354
     64  N          6.2700    4.2060   94.5030 N.am  396  LEU396     -0.1966
     65  CA         6.7850    4.5750   93.1900 C.3   396  LEU396      0.1728
     66  C          6.1770    5.8870   92.7810 C.2   396  LEU396      0.2616
     67  O          4.9720    6.1040   92.9790 O.2   396  LEU396     -0.2715
     68  CB         6.3570    3.5350   92.1610 C.3   396  LEU396      0.0311
     69  CG         6.8570    2.1130   92.3970 C.3   396  LEU396      0.0022
     70  CD1        6.1070    1.1720   91.4680 C.3   396  LEU396      0.0001
     71  CD2        8.3700    2.0330   92.2320 C.3   396  LEU396      0.0001
     72  N          6.9730    6.7590   92.1780 N.am  397  SER397     -0.1950
     73  CA         6.4410    8.0280   91.6920 C.3   397  SER397      0.1924
     74  C          5.9680    7.9240   90.2430 C.2   397  SER397      0.2314
     75  O          6.4100    7.0670   89.4700 O.2   397  SER397     -0.2863
     76  CB         7.4520    9.1370   91.8660 C.3   397  SER397      0.2116
     77  OG         8.6330    8.8270   91.1860 O.3   397  SER397     -0.2180
@<TRIPOS>BOND
     1    75    74    2
     2    74    73    1
     3    77    76    1
     4    70    69    1
     5    73    76    1
     6    73    72    1
     7    43    42    2
     8    68    69    1
     9    68    65    1
    10    72    66   am
    11    71    69    1
    12    42    44   am
    13    42    41    1
    14    66    67    2
    15    66    65    1
    16    41    40    1
    17    65    64    1
    18    40    37    1
    19    64    55   am
    20    37    36    1
    21    37    38    1
    22    26    25    2
    23    56    55    2
    24    55    54    1
    25    27    28    1
    26    18    17    2
    27    16    17    1
    28    16    15    1
    29    25    24    1
    30    39    38    2
    31    38    45   am
    32    28    31    1
    33    28    29    1
    34    53    54    1
    35    54    57    1
    36    31    32    1
    37    24    23    1
    38    29    30    2
    39    45    46    1
    40    57    58    1
    41    32    33    1
    42    23    21   am
    43    34    33   ar
    44    33    35   ar
    45    21    22    2
    46    21    20    1
    47    46    47    1
    48    46    49    1
    49    58    59    1
    50    52    50   am
    51    47    48    2
    52    20    19    1
    53    59    60    1
    54    50    49    1
    55    50    51    2
    56    60    61    2
    57    61    62    1
    58    61    63    1
    59    14    13   ar
    60    14    12   ar
    61    13    11   ar
    62    12    10   ar
    63    11     8   ar
    64    10     8   ar
    65    10     9   ar
    66     8     6   ar
    67     9     7   ar
    68     4     3    2
    69     6     7   ar
    70     6     5    1
    71     3     2    1
    72     5     2    1
    73     2     1    1
