@<TRIPOS>MOLECULE
tmp/5xw6C01.pdb
 82 76 0 0 0
SMALL
GASTEIGER

@<TRIPOS>ATOM
      1  N          8.6450  -27.5450  -37.5100 N.3    38  THR38      -0.1218
      2  CA         8.9470  -26.3580  -38.2940 C.3    38  THR38       0.1862
      3  C          8.2320  -26.4830  -39.6340 C.2    38  THR38       0.2287
      4  O          8.2870  -27.5370  -40.2820 O.2    38  THR38      -0.2866
      5  CB        10.4600  -26.1480  -38.5000 C.3    38  THR38       0.1770
      6  OG1       10.8960  -26.8640  -39.6510 O.3    38  THR38      -0.2211
      7  CG2       11.2530  -26.6460  -37.3060 C.3    38  THR38       0.0375
      8  N          7.4960  -25.1750  -43.5230 N.3    40  LYS40      -0.1245
      9  CA         8.1310  -24.5310  -44.6650 C.3    40  LYS40       0.1561
     10  C          7.1540  -24.5390  -45.8320 C.2    40  LYS40       0.2260
     11  O          6.5330  -25.5700  -46.1190 O.2    40  LYS40      -0.2867
     12  CB         9.4510  -25.2130  -45.0440 C.3    40  LYS40       0.0271
     13  CG        10.5980  -25.0950  -44.0430 C.3    40  LYS40       0.0035
     14  CD        11.2540  -23.7290  -44.0930 C.3    40  LYS40       0.0206
     15  CE        12.3400  -23.5810  -43.0490 C.3    40  LYS40       0.1093
     16  NZ        13.3660  -22.6080  -43.5000 N.3    40  LYS40      -0.1314
     17  N          5.6990  -28.3580  -46.2390 N.3   151  THR151     -0.1203
     18  CA         6.2960  -29.4530  -45.4850 C.3   151  THR151      0.1994
     19  C          6.4670  -29.0940  -44.0160 C.2   151  THR151      0.2618
     20  O          6.6650  -27.9240  -43.6560 O.2   151  THR151     -0.2717
     21  CB         7.6310  -29.8780  -46.0560 C.3   151  THR151      0.1784
     22  OG1        8.5410  -28.7780  -45.9780 O.3   151  THR151     -0.2211
     23  CG2        7.4760  -30.3650  -47.4710 C.3   151  THR151      0.0376
     24  N          6.3460  -30.1170  -43.1670 N.am  152  VAL152     -0.1965
     25  CA         6.5570  -29.9880  -41.7340 C.3   152  VAL152      0.1727
     26  C          7.6840  -30.9360  -41.3280 C.2   152  VAL152      0.2616
     27  O          7.7330  -32.0880  -41.7790 O.2   152  VAL152     -0.2715
     28  CB         5.2610  -30.2580  -40.9430 C.3   152  VAL152      0.0290
     29  CG1        4.7850  -31.6870  -41.1270 C.3   152  VAL152      0.0023
     30  CG2        5.4480  -29.9210  -39.4720 C.3   152  VAL152      0.0023
     31  N          8.6150  -30.4300  -40.5200 N.am  153  PHE153     -0.1974
     32  CA         9.7450  -31.1920  -39.9920 C.3   153  PHE153      0.1639
     33  C          9.4780  -31.4260  -38.5010 C.2   153  PHE153      0.2290
     34  O          9.4770  -30.4710  -37.7110 O.2   153  PHE153     -0.2864
     35  CB        11.0430  -30.4210  -40.2490 C.3   153  PHE153      0.0560
     36  CG        12.3170  -31.1350  -39.8280 C.ar  153  PHE153     -0.0200
     37  CD1       12.3750  -32.5100  -39.7030 C.ar  153  PHE153     -0.0042
     38  CD2       13.4610  -30.4010  -39.5400 C.ar  153  PHE153     -0.0042
     39  CE1       13.5580  -33.1400  -39.3060 C.ar  153  PHE153     -0.0003
     40  CE2       14.6350  -31.0220  -39.1440 C.ar  153  PHE153     -0.0003
     41  CZ        14.6840  -32.3920  -39.0270 C.ar  153  PHE153     -0.0000
     42  N         10.5780  -32.9140  -35.0780 N.3   155  LYS155     -0.1245
     43  CA        11.7500  -33.3400  -34.3090 C.3   155  LYS155      0.1561
     44  C         11.2980  -33.8950  -32.9660 C.2   155  LYS155      0.2260
     45  O         10.9790  -33.1260  -32.0530 O.2   155  LYS155     -0.2867
     46  CB        12.6900  -32.1650  -34.0720 C.3   155  LYS155      0.0271
     47  CG        13.2360  -31.4700  -35.2820 C.3   155  LYS155      0.0035
     48  CD        14.0610  -30.2830  -34.7930 C.3   155  LYS155      0.0206
     49  CE        14.1810  -29.2250  -35.8690 C.3   155  LYS155      0.1093
     50  NZ        14.9680  -28.0530  -35.4000 N.3   155  LYS155     -0.1314
     51  N         20.0750  -35.5060  -44.3460 N.3   175  ASN175     -0.1225
     52  CA        19.9360  -34.5520  -45.4360 C.3   175  ASN175      0.1785
     53  C         18.4660  -34.1850  -45.5730 C.2   175  ASN175      0.2597
     54  O         17.6040  -35.0560  -45.7520 O.2   175  ASN175     -0.2718
     55  CB        20.4760  -35.0900  -46.7650 C.3   175  ASN175      0.1169
     56  CG        21.1320  -33.9930  -47.6260 C.2   175  ASN175      0.2627
     57  OD1       21.0630  -32.8070  -47.3060 O.2   175  ASN175     -0.2716
     58  ND2       21.7680  -34.3980  -48.7220 N.am  175  ASN175     -0.0877
     59  N         18.2070  -32.8820  -45.5190 N.am  176  THR176     -0.1953
     60  CA        16.8580  -32.3380  -45.5500 C.3   176  THR176      0.1897
     61  C         16.0930  -32.7450  -46.8020 C.2   176  THR176      0.2313
     62  O         14.8550  -32.7660  -46.7940 O.2   176  THR176     -0.2863
     63  CB        16.9620  -30.8200  -45.4550 C.3   176  THR176      0.1794
     64  OG1       17.6380  -30.4700  -44.2410 O.3   176  THR176     -0.2208
     65  CG2       15.6150  -30.1550  -45.5180 C.3   176  THR176      0.0378
     66  N         12.2160  -37.2900  -47.9040 N.3   179  LYS179     -0.1245
     67  CA        10.7900  -37.3150  -47.5850 C.3   179  LYS179      0.1561
     68  C         10.4510  -38.6390  -46.9220 C.2   179  LYS179      0.2260
     69  O         10.9530  -39.6950  -47.3220 O.2   179  LYS179     -0.2867
     70  CB         9.8810  -37.0890  -48.8260 C.3   179  LYS179      0.0271
     71  CG         9.3840  -35.6210  -48.9870 C.3   179  LYS179      0.0035
     72  CD        10.5580  -34.6380  -49.1860 C.3   179  LYS179      0.0206
     73  CE        10.1730  -33.1490  -49.0850 C.3   179  LYS179      0.1093
     74  NZ        11.3610  -32.2160  -49.1690 N.3   179  LYS179     -0.1314
     75  N         10.2700  -35.6240  -42.2930 N.3   190  ILE190     -0.1245
     76  CA         9.8490  -34.5090  -43.1220 C.3   190  ILE190      0.1561
     77  C          8.6610  -35.0020  -43.9280 C.2   190  ILE190      0.2260
     78  O          8.7940  -35.9500  -44.7110 O.2   190  ILE190     -0.2867
     79  CB        10.9870  -34.0250  -44.0240 C.3   190  ILE190      0.0252
     80  CG1       12.0470  -33.3320  -43.1680 C.3   190  ILE190      0.0019
     81  CG2       10.4450  -33.0510  -45.0700 C.3   190  ILE190      0.0019
     82  CD1       13.3120  -33.0420  -43.9110 C.3   190  ILE190      0.0001
@<TRIPOS>BOND
     1    72    73    1
     2    72    71    1
     3    74    73    1
     4    71    70    1
     5    70    67    1
     6    58    56   am
     7    66    67    1
     8    56    57    2
     9    56    55    1
    10    67    68    1
    11    23    21    1
    12    69    68    2
    13    61    62    2
    14    61    60    1
    15    55    52    1
    16    17    18    1
    17    11    10    2
    18    21    22    1
    19    21    18    1
    20    10     9    1
    21    54    53    2
    22    53    59   am
    23    53    52    1
    24    60    59    1
    25    60    63    1
    26    65    63    1
    27    18    19    1
    28    63    64    1
    29    52    51    1
    30    81    79    1
    31    12     9    1
    32    12    13    1
    33    78    77    2
    34     9     8    1
    35    14    13    1
    36    14    15    1
    37    79    80    1
    38    79    76    1
    39    19    20    2
    40    19    24   am
    41    77    76    1
    42    82    80    1
    43    16    15    1
    44    24    25    1
    45    76    75    1
    46    27    26    2
    47    25    26    1
    48    25    28    1
    49    26    31   am
    50    29    28    1
    51    28    30    1
    52    31    32    1
    53     4     3    2
    54    35    32    1
    55    35    36    1
    56    32    33    1
    57    36    37   ar
    58    36    38   ar
    59    37    39   ar
    60     6     5    1
    61     3     2    1
    62    38    40   ar
    63    39    41   ar
    64    40    41   ar
    65    33    34    2
    66     5     2    1
    67     5     7    1
    68     2     1    1
    69    49    50    1
    70    49    48    1
    71    47    48    1
    72    47    46    1
    73    42    43    1
    74    43    46    1
    75    43    44    1
    76    44    45    2
