@<TRIPOS>MOLECULE
tmp/5xw6C00.pdb
 113 108 0 0 0
SMALL
GASTEIGER

@<TRIPOS>ATOM
      1  N        -28.8970  -13.7200  -40.1270 N.3    86  THR86      -0.1203
      2  CA       -29.0740  -15.0230  -39.5270 C.3    86  THR86       0.1994
      3  C        -30.5430  -15.0990  -39.1520 C.2    86  THR86       0.2618
      4  O        -31.1570  -14.0760  -38.8350 O.2    86  THR86      -0.2717
      5  CB       -28.1760  -15.2220  -38.3010 C.3    86  THR86       0.1784
      6  OG1      -28.6170  -16.3740  -37.5770 O.3    86  THR86      -0.2211
      7  CG2      -28.2200  -14.0330  -37.3850 C.3    86  THR86       0.0376
      8  N        -31.0970  -16.3140  -39.1840 N.am   87  ALA87      -0.1965
      9  CA       -32.5400  -16.4910  -39.0550 C.3    87  ALA87       0.1728
     10  C        -33.1360  -15.5990  -37.9800 C.2    87  ALA87       0.2616
     11  O        -34.0470  -14.8090  -38.2480 O.2    87  ALA87      -0.2715
     12  CB       -32.8460  -17.9550  -38.7500 C.3    87  ALA87       0.0334
     13  N        -32.5670  -15.6390  -36.7760 N.am   88  LYS88      -0.1977
     14  CA       -33.1230  -14.8670  -35.6710 C.3    88  LYS88       0.1596
     15  C        -32.9170  -13.3540  -35.8080 C.2    88  LYS88       0.2287
     16  O        -33.5690  -12.6000  -35.0710 O.2    88  LYS88      -0.2864
     17  CB       -32.4930  -15.3660  -34.3620 C.3    88  LYS88       0.0298
     18  CG       -33.3880  -15.3210  -33.1270 C.3    88  LYS88       0.0038
     19  CD       -33.2810  -16.6450  -32.3650 C.3    88  LYS88       0.0206
     20  CE       -34.1220  -17.7300  -33.0570 C.3    88  LYS88       0.1093
     21  NZ       -34.1450  -19.0520  -32.3650 N.3    88  LYS88      -0.1314
     22  N        -27.4000  -14.5570  -27.7930 N.3   104  VAL104     -0.1231
     23  CA       -26.0360  -15.0800  -27.7280 C.3   104  VAL104      0.1692
     24  C        -25.3820  -15.0400  -29.1040 C.2   104  VAL104      0.2592
     25  O        -24.1620  -14.8800  -29.2220 O.2   104  VAL104     -0.2718
     26  CB       -26.0510  -16.4940  -27.0980 C.3   104  VAL104      0.0266
     27  CG1      -24.7470  -17.1900  -27.2770 C.3   104  VAL104      0.0020
     28  CG2      -26.3240  -16.3970  -25.5980 C.3   104  VAL104      0.0020
     29  N        -26.1840  -15.1250  -30.1580 N.am  105  HIS105     -0.1976
     30  CA       -25.7100  -15.1350  -31.5330 C.3   105  HIS105      0.1656
     31  C        -25.5020  -13.7350  -32.1130 C.2   105  HIS105      0.2291
     32  O        -25.0540  -13.6160  -33.2580 O.2   105  HIS105     -0.2864
     33  CB       -26.6830  -15.9530  -32.3710 C.3   105  HIS105      0.0771
     34  CG       -26.7450  -17.3820  -31.9400 C.ar  105  HIS105      0.0820
     35  ND1      -27.4170  -17.7790  -30.8040 N.ar  105  HIS105     -0.2267
     36  CD2      -26.1900  -18.5020  -32.4590 C.ar  105  HIS105      0.1154
     37  CE1      -27.2910  -19.0860  -30.6540 C.ar  105  HIS105      0.1986
     38  NE2      -26.5550  -19.5500  -31.6480 N.ar  105  HIS105     -0.2212
     39  N        -19.8290  -16.2340  -43.8460 N.3   136  GLU136     -0.1245
     40  CA       -20.3370  -17.2710  -42.9530 C.3   136  GLU136      0.1567
     41  C        -20.1680  -18.6380  -43.6080 C.2   136  GLU136      0.2260
     42  O        -20.1640  -19.6650  -42.9210 O.2   136  GLU136     -0.2867
     43  CB       -21.8210  -17.0160  -42.6380 C.3   136  GLU136      0.0388
     44  CG       -22.2880  -17.2820  -41.2080 C.3   136  GLU136      0.1160
     45  CD       -21.8600  -16.2000  -40.2150 C.2   136  GLU136      0.3649
     46  OE1      -20.9450  -15.4080  -40.5320 O.co2 136  GLU136     -0.2457
     47  OE2      -22.4480  -16.1390  -39.1090 O.co2 136  GLU136     -0.2457
     48  N        -13.1510  -26.1330  -44.4790 N.3   210  LYS210     -0.1245
     49  CA       -13.5890  -25.9060  -43.1040 C.3   210  LYS210      0.1561
     50  C        -12.5920  -26.3780  -42.0490 C.2   210  LYS210      0.2260
     51  O        -12.8890  -26.2920  -40.8520 O.2   210  LYS210     -0.2867
     52  CB       -14.9430  -26.5780  -42.8520 C.3   210  LYS210      0.0271
     53  CG       -16.1410  -25.7900  -43.3320 C.3   210  LYS210      0.0035
     54  CD       -17.3210  -26.0300  -42.3850 C.3   210  LYS210      0.0206
     55  CE       -18.3460  -24.8980  -42.4480 C.3   210  LYS210      0.1093
     56  NZ       -19.4500  -25.0720  -41.4600 N.3   210  LYS210     -0.1314
     57  N        -21.0200  -31.3070  -36.9060 N.3   248  TYR248     -0.1228
     58  CA       -20.2080  -30.1390  -36.6500 C.3   248  TYR248      0.1721
     59  C        -18.7220  -30.4350  -36.7450 C.2   248  TYR248      0.2437
     60  O        -18.0090  -30.3090  -35.7440 O.2   248  TYR248     -0.2733
     61  CB       -20.5530  -29.5780  -35.2670 C.3   248  TYR248      0.0547
     62  CG       -22.0350  -29.3480  -35.0200 C.ar  248  TYR248     -0.0200
     63  CD1      -22.6760  -28.2310  -35.5390 C.ar  248  TYR248     -0.0009
     64  CD2      -22.7760  -30.2030  -34.2170 C.ar  248  TYR248     -0.0009
     65  CE1      -24.0250  -27.9940  -35.3070 C.ar  248  TYR248      0.0417
     66  CE2      -24.1300  -29.9710  -33.9730 C.ar  248  TYR248      0.0417
     67  CZ       -24.7460  -28.8640  -34.5230 C.ar  248  TYR248      0.1957
     68  OH       -26.0840  -28.6170  -34.2960 O.3   248  TYR248     -0.2866
     69  N        -18.2110  -30.8130  -37.9050 N.am  249  PRO249     -0.2729
     70  CA       -16.7680  -30.9980  -38.0580 C.3   249  PRO249      0.1401
     71  C        -16.0950  -29.6660  -38.3930 C.2   249  PRO249      0.2269
     72  O        -16.7520  -28.6510  -38.6150 O.2   249  PRO249     -0.2865
     73  CB       -16.6860  -32.0040  -39.2020 C.3   249  PRO249      0.0296
     74  CG       -17.8530  -31.6710  -40.0490 C.3   249  PRO249      0.0237
     75  CD       -18.9340  -31.1440  -39.1440 C.3   249  PRO249      0.0939
     76  N        -11.4000  -23.7700  -36.6140 N.3   252  SER252     -0.1217
     77  CA       -11.0120  -22.4280  -37.0040 C.3   252  SER252      0.1889
     78  C        -10.5390  -21.6710  -35.7710 C.2   252  SER252      0.2288
     79  O        -10.7910  -22.0740  -34.6320 O.2   252  SER252     -0.2866
     80  CB       -12.1600  -21.6810  -37.6970 C.3   252  SER252      0.2089
     81  OG       -13.3290  -21.6730  -36.9000 O.3   252  SER252     -0.2183
     82  N        -10.3370  -17.5030  -34.3720 N.3   254  ARG254     -0.1245
     83  CA       -10.6930  -16.0970  -34.5610 C.3   254  ARG254      0.1563
     84  C         -9.5550  -15.2240  -34.0620 C.2   254  ARG254      0.2260
     85  O         -9.0690  -15.4150  -32.9440 O.2   254  ARG254     -0.2867
     86  CB       -11.9780  -15.7520  -33.7860 C.3   254  ARG254      0.0307
     87  CG       -13.2840  -16.4320  -34.2710 C.3   254  ARG254      0.0489
     88  CD       -14.5380  -16.1630  -33.3800 C.3   254  ARG254      0.2205
     89  NE       -14.7570  -17.2390  -32.3890 N.pl3 254  ARG254     -0.0865
     90  CZ       -14.1450  -17.3840  -31.2080 C.cat 254  ARG254      0.5346
     91  NH1      -14.4480  -18.4380  -30.4270 N.pl3 254  ARG254      0.1354
     92  NH2      -13.2220  -16.5060  -30.8100 N.pl3 254  ARG254      0.1354
     93  N        -11.3750  -14.8420  -39.6220 N.3   272  LYS272     -0.1245
     94  CA       -11.8080  -16.1960  -39.3170 C.3   272  LYS272      0.1561
     95  C        -10.9470  -17.1030  -40.1750 C.2   272  LYS272      0.2260
     96  O        -11.0420  -17.0730  -41.4090 O.2   272  LYS272     -0.2867
     97  CB       -13.2970  -16.4140  -39.5840 C.3   272  LYS272      0.0271
     98  CG       -13.7030  -17.8750  -39.4550 C.3   272  LYS272      0.0035
     99  CD       -15.1860  -18.0400  -39.2770 C.3   272  LYS272      0.0206
    100  CE       -15.5400  -19.3820  -38.6860 C.3   272  LYS272      0.1093
    101  NZ       -16.9910  -19.6410  -38.7590 N.3   272  LYS272     -0.1314
    102  N        -10.0180  -20.8170  -41.0300 N.3   274  TYR274     -0.1241
    103  CA       -10.1710  -22.2690  -41.0070 C.3   274  TYR274      0.1605
    104  C         -8.8220  -22.9510  -41.2220 C.2   274  TYR274      0.2264
    105  O         -7.9590  -22.4550  -41.9510 O.2   274  TYR274     -0.2867
    106  CB       -11.1540  -22.7380  -42.0890 C.3   274  TYR274      0.0534
    107  CG       -12.5290  -22.1420  -41.9660 C.ar  274  TYR274     -0.0201
    108  CD1      -12.8180  -20.9000  -42.5300 C.ar  274  TYR274     -0.0009
    109  CD2      -13.5500  -22.8210  -41.3120 C.ar  274  TYR274     -0.0009
    110  CE1      -14.0730  -20.3320  -42.4150 C.ar  274  TYR274      0.0417
    111  CE2      -14.8070  -22.2640  -41.1930 C.ar  274  TYR274      0.0417
    112  CZ       -15.0620  -21.0170  -41.7530 C.ar  274  TYR274      0.1957
    113  OH       -16.3060  -20.4490  -41.6550 O.3   274  TYR274     -0.2866
@<TRIPOS>BOND
     1    48    49    1
     2    39    40    1
     3    41    40    1
     4    41    42    2
     5    53    52    1
     6    53    54    1
     7    49    52    1
     8    49    50    1
     9    40    43    1
    10    43    44    1
    11   108   110   ar
    12   108   107   ar
    13    55    54    1
    14    55    56    1
    15   110   112   ar
    16   106   107    1
    17   106   103    1
    18    50    51    2
    19   107   109   ar
    20   105   104    2
    21   112   113    1
    22   112   111   ar
    23    96    95    2
    24   109   111   ar
    25   104   103    1
    26    44    45    1
    27   102   103    1
    28    46    45   ar
    29    45    47   ar
    30    95    94    1
    31     1     2    1
    32    74    73    1
    33    74    75    1
    34    93    94    1
    35    97    98    1
    36    97    94    1
    37     2     3    1
    38     2     5    1
    39    98    99    1
    40    99   100    1
    41    73    70    1
    42     8     3   am
    43     8     9    1
    44     3     4    2
    45    75    69    1
    46     9    12    1
    47     9    10    1
    48   101   100    1
    49    72    71    2
    50    71    70    1
    51     5     6    1
    52     5     7    1
    53    11    10    2
    54    70    69    1
    55    10    13   am
    56    69    59   am
    57    80    77    1
    58    80    81    1
    59    77    76    1
    60    77    78    1
    61    57    58    1
    62    13    14    1
    63    59    58    1
    64    59    60    2
    65    58    61    1
    66    15    14    1
    67    15    16    2
    68    78    79    2
    69    14    17    1
    70    63    65   ar
    71    63    62   ar
    72    65    67   ar
    73    61    62    1
    74    62    64   ar
    75    83    82    1
    76    83    84    1
    77    83    86    1
    78    67    68    1
    79    67    66   ar
    80    17    18    1
    81    87    86    1
    82    87    88    1
    83    64    66   ar
    84    84    85    2
    85    88    89    1
    86    32    31    2
    87    18    19    1
    88    20    21    1
    89    20    19    1
    90    36    34   ar
    91    36    38   ar
    92    89    90    2
    93    33    34    1
    94    33    30    1
    95    31    30    1
    96    34    35   ar
    97    38    37   ar
    98    30    29    1
    99    90    92    1
   100    90    91    1
   101    35    37   ar
   102    29    24   am
   103    25    24    2
   104    24    23    1
   105    22    23    1
   106    23    26    1
   107    27    26    1
   108    26    28    1
