@<TRIPOS>MOLECULE
tmp/5xw8B00.pdb
 125 125 0 0 0
SMALL
GASTEIGER

@<TRIPOS>ATOM
      1  N        -18.9380   37.9060    0.6840 N.3    46  ASP46      -0.1225
      2  CA       -17.5090   38.2100    0.6100 C.3    46  ASP46       0.1805
      3  C        -16.7460   36.8970    0.4600 C.2    46  ASP46       0.2598
      4  O        -17.3000   35.8130    0.6740 O.2    46  ASP46      -0.2718
      5  CB       -17.0720   38.9600    1.8760 C.3    46  ASP46       0.1424
      6  CG       -15.7730   39.7330    1.7130 C.2    46  ASP46       0.3668
      7  OD1      -15.1650   39.7190    0.6130 O.co2  46  ASP46      -0.2456
      8  OD2      -15.3590   40.3560    2.7220 O.co2  46  ASP46      -0.2456
      9  N        -15.4680   37.0040    0.0790 N.am   47  SER47      -0.1938
     10  CA       -14.5440   35.8810    0.2160 C.3    47  SER47       0.2055
     11  C        -14.0050   35.8620    1.6500 C.2    47  SER47       0.2643
     12  O        -14.3030   36.7510    2.4550 O.2    47  SER47      -0.2714
     13  CB       -13.4240   35.9680   -0.8260 C.3    47  SER47       0.2130
     14  OG       -12.7380   37.2140   -0.7860 O.3    47  SER47      -0.2179
     15  N        -13.2020   34.8510    1.9930 N.am   48  CYS48      -0.1953
     16  CA       -12.7760   34.6880    3.3820 C.3    48  CYS48       0.1843
     17  C        -11.5390   33.7900    3.4110 C.2    48  CYS48       0.2625
     18  O        -11.0450   33.3510    2.3690 O.2    48  CYS48      -0.2714
     19  CB       -13.9290   34.1220    4.2300 C.3    48  CYS48       0.0997
     20  SG       -13.7800   34.3200    6.0320 S.3    48  CYS48      -0.0797
     21  N        -11.0470   33.5020    4.6210 N.am   49  GLN49      -0.1963
     22  CA        -9.8390   32.6880    4.7520 C.3    49  GLN49       0.1733
     23  C        -10.0380   31.3270    4.0960 C.2    49  GLN49       0.2617
     24  O        -11.0810   30.6890    4.2560 O.2    49  GLN49      -0.2715
     25  CB        -9.4630   32.5030    6.2270 C.3    49  GLN49       0.0408
     26  CG        -8.5990   33.6190    6.7900 C.3    49  GLN49       0.0908
     27  CD        -9.3450   34.9320    6.8760 C.2    49  GLN49       0.2608
     28  OE1      -10.5240   34.9690    7.2520 O.2    49  GLN49      -0.2717
     29  NE2       -8.6690   36.0220    6.5180 N.am   49  GLN49      -0.0878
     30  N         -9.0280   30.8830    3.3520 N.am   50  GLY50      -0.1940
     31  CA        -9.1120   29.6740    2.5610 C.3    50  GLY50       0.2014
     32  C         -9.4670   29.9190    1.1100 C.2    50  GLY50       0.2639
     33  O         -9.3040   29.0160    0.2760 O.2    50  GLY50      -0.2714
     34  N         -9.9480   31.1190    0.7940 N.am   51  ASP51      -0.1957
     35  CA       -10.2460   31.5050   -0.5790 C.3    51  ASP51       0.1840
     36  C         -9.0510   32.1260   -1.2970 C.2    51  ASP51       0.2622
     37  O         -9.0490   32.1700   -2.5350 O.2    51  ASP51      -0.2715
     38  CB       -11.4180   32.4980   -0.6000 C.3    51  ASP51       0.1450
     39  CG       -12.7600   31.8370   -0.3030 C.2    51  ASP51       0.3671
     40  OD1      -12.9840   30.7020   -0.7630 O.co2  51  ASP51      -0.2456
     41  OD2      -13.6050   32.4660    0.3740 O.co2  51  ASP51      -0.2456
     42  N         -8.0430   32.6060   -0.5590 N.am   52  SER52      -0.1950
     43  CA        -6.9550   33.3590   -1.1750 C.3    52  SER52       0.1924
     44  C         -6.2780   32.5710   -2.2840 C.2    52  SER52       0.2314
     45  O         -6.1310   31.3480   -2.2150 O.2    52  SER52      -0.2863
     46  CB        -5.9030   33.7530   -0.1490 C.3    52  SER52       0.2116
     47  OG        -6.2080   35.0330    0.3660 O.3    52  SER52      -0.2180
     48  N         -8.0650   36.4590   -4.9820 N.3    66  VAL66      -0.1231
     49  CA        -8.4430   36.6660   -3.5800 C.3    66  VAL66       0.1692
     50  C         -7.1880   36.9350   -2.7630 C.2    66  VAL66       0.2593
     51  O         -6.2530   36.1260   -2.7540 O.2    66  VAL66      -0.2718
     52  CB        -9.2090   35.4590   -3.0280 C.3    66  VAL66       0.0266
     53  CG1       -9.5960   35.7060   -1.5510 C.3    66  VAL66       0.0020
     54  CG2      -10.4540   35.1600   -3.8750 C.3    66  VAL66       0.0020
     55  N         -7.1660   38.0680   -2.0540 N.am   67  SER67      -0.1938
     56  CA        -5.9630   38.5030   -1.3460 C.3    67  SER67       0.2055
     57  C         -6.2370   38.7260    0.1390 C.2    67  SER67       0.2643
     58  O         -5.7580   37.9350    0.9600 O.2    67  SER67      -0.2714
     59  CB        -5.3870   39.7570   -2.0120 C.3    67  SER67       0.2130
     60  OG        -4.1180   40.0860   -1.4660 O.3    67  SER67      -0.2179
     61  N         -6.9980   39.7570    0.5190 N.am   68  TRP68      -0.1959
     62  CA        -7.1430   40.0650    1.9390 C.3    68  TRP68       0.1771
     63  C         -8.3880   40.9110    2.1910 C.2    68  TRP68       0.2620
     64  O         -9.0720   41.3570    1.2640 O.2    68  TRP68      -0.2715
     65  CB        -5.8880   40.7690    2.4830 C.3    68  TRP68       0.0590
     66  CG        -5.6100   42.1350    1.8890 C.ar   68  TRP68       0.0006
     67  CD1       -4.9430   42.4070    0.7280 C.ar   68  TRP68       0.0946
     68  CD2       -5.9700   43.4090    2.4500 C.ar   68  TRP68       0.0152
     69  NE1       -4.8760   43.7690    0.5230 N.ar   68  TRP68      -0.2442
     70  CE2       -5.5010   44.4060    1.5640 C.ar   68  TRP68       0.0810
     71  CE3       -6.6550   43.8020    3.6060 C.ar   68  TRP68       0.0012
     72  CZ2       -5.6830   45.7700    1.8080 C.ar   68  TRP68       0.0191
     73  CZ3       -6.8410   45.1590    3.8440 C.ar   68  TRP68       0.0001
     74  CH2       -6.3550   46.1250    2.9490 C.ar   68  TRP68       0.0015
     75  N         -8.6800   41.1000    3.4760 N.am   69  GLY69      -0.1940
     76  CA        -9.7070   42.0370    3.9250 C.3    69  GLY69       0.2014
     77  C         -9.6920   42.0980    5.4410 C.2    69  GLY69       0.2639
     78  O         -8.9890   41.3290    6.1090 O.2    69  GLY69      -0.2714
     79  N        -10.4790   43.0310    5.9900 N.am   70  TYR70      -0.1959
     80  CA       -10.6710   43.0800    7.4400 C.3    70  TYR70       0.1771
     81  C        -11.8760   42.2120    7.7900 C.2    70  TYR70       0.2620
     82  O        -13.0190   42.5610    7.4700 O.2    70  TYR70      -0.2715
     83  CB       -10.8570   44.5020    7.9760 C.3    70  TYR70       0.0574
     84  CG       -11.1900   44.4430    9.4570 C.ar   70  TYR70      -0.0198
     85  CD1      -10.1840   44.3220   10.4140 C.ar   70  TYR70      -0.0009
     86  CD2      -12.5150   44.4240    9.8930 C.ar   70  TYR70      -0.0009
     87  CE1      -10.4910   44.2210   11.7680 C.ar   70  TYR70       0.0417
     88  CE2      -12.8290   44.3190   11.2390 C.ar   70  TYR70       0.0417
     89  CZ       -11.8180   44.2240   12.1720 C.ar   70  TYR70       0.1957
     90  OH       -12.1430   44.1180   13.5040 O.3    70  TYR70      -0.2866
     91  N        -11.6280   41.0980    8.4730 N.am   71  GLY71      -0.1940
     92  CA       -12.7200   40.1840    8.7400 C.3    71  GLY71       0.2014
     93  C        -13.1950   39.5800    7.4260 C.2    71  GLY71       0.2639
     94  O        -12.4780   39.5600    6.4260 O.2    71  GLY71      -0.2714
     95  N        -14.4330   39.0850    7.4430 N.am   72  CYS72      -0.1967
     96  CA       -15.0910   38.5850    6.2410 C.3    72  CYS72       0.1712
     97  C        -16.5390   39.0490    6.2360 C.2    72  CYS72       0.2296
     98  O        -17.2370   38.9060    7.2440 O.2    72  CYS72      -0.2864
     99  CB       -15.0400   37.0540    6.1640 C.3    72  CYS72       0.0983
    100  SG       -13.4090   36.3220    6.2270 S.3    72  CYS72      -0.0798
    101  N        -16.1090   46.9090    4.6740 N.3    77  LYS77      -0.1245
    102  CA       -14.8270   46.2130    4.5770 C.3    77  LYS77       0.1561
    103  C        -14.9380   45.1460    3.4940 C.2    77  LYS77       0.2260
    104  O        -14.9550   43.9420    3.7810 O.2    77  LYS77      -0.2867
    105  CB       -14.4330   45.6040    5.9240 C.3    77  LYS77       0.0271
    106  CG       -14.1400   46.6410    7.0110 C.3    77  LYS77       0.0035
    107  CD       -12.9220   47.4820    6.6450 C.3    77  LYS77       0.0206
    108  CE       -12.5570   48.4630    7.7580 C.3    77  LYS77       0.1093
    109  NZ       -11.1760   49.0060    7.5620 N.3    77  LYS77      -0.1314
    110  N        -13.9040   42.7580    0.1780 N.3    79  GLY79      -0.1225
    111  CA       -12.6930   42.0330   -0.1600 C.3    79  GLY79       0.1811
    112  C        -11.7400   42.8720   -0.9940 C.2    79  GLY79       0.2280
    113  O        -12.1490   43.6840   -1.8280 O.2    79  GLY79      -0.2866
    114  N         -8.4910   42.5110   -3.6100 N.3    81  TYR81      -0.1241
    115  CA        -8.0710   41.5220   -4.5880 C.3    81  TYR81       0.1605
    116  C         -6.8740   42.0520   -5.3580 C.2    81  TYR81       0.2264
    117  O         -6.8000   43.2490   -5.6580 O.2    81  TYR81      -0.2867
    118  CB        -9.2310   41.1910   -5.5550 C.3    81  TYR81       0.0534
    119  CG       -10.4150   40.5680   -4.8400 C.ar   81  TYR81      -0.0201
    120  CD1      -11.3600   41.3530   -4.1810 C.ar   81  TYR81      -0.0009
    121  CD2      -10.5560   39.1860   -4.7800 C.ar   81  TYR81      -0.0009
    122  CE1      -12.4320   40.7730   -3.5050 C.ar   81  TYR81       0.0417
    123  CE2      -11.6310   38.5930   -4.1060 C.ar   81  TYR81       0.0417
    124  CZ       -12.5550   39.3890   -3.4700 C.ar   81  TYR81       0.1957
    125  OH       -13.6040   38.7920   -2.7990 O.3    81  TYR81      -0.2866
@<TRIPOS>BOND
     1   117   116    2
     2   118   119    1
     3   118   115    1
     4   116   115    1
     5    48    49    1
     6   119   121   ar
     7   119   120   ar
     8   121   123   ar
     9   115   114    1
    10   120   122   ar
    11   123   124   ar
    12    54    52    1
    13    49    52    1
    14    49    50    1
    15   122   124   ar
    16   124   125    1
    17    52    53    1
    18    50    51    2
    19    50    55   am
    20    37    36    2
    21    44    45    2
    22    44    43    1
    23    55    56    1
    24    59    60    1
    25    59    56    1
    26   113   112    2
    27    56    57    1
    28    36    35    1
    29    36    42   am
    30    43    42    1
    31    43    46    1
    32   112   111    1
    33    13    14    1
    34    13    10    1
    35    40    39   ar
    36    38    35    1
    37    38    39    1
    38    35    34    1
    39    39    41   ar
    40   111   110    1
    41    46    47    1
    42     9    10    1
    43     9     3   am
    44    57    61   am
    45    57    58    2
    46    10    11    1
    47    33    32    2
    48     3     2    1
    49     3     4    2
    50    61    62    1
    51    69    67   ar
    52    69    70   ar
    53     2     1    1
    54     2     5    1
    55     7     6   ar
    56    67    66   ar
    57    34    32   am
    58    32    31    1
    59    64    63    2
    60    70    72   ar
    61    70    68   ar
    62    11    15   am
    63    11    12    2
    64     6     5    1
    65     6     8   ar
    66    72    74   ar
    67    66    68   ar
    68    66    65    1
    69    62    63    1
    70    62    65    1
    71    15    16    1
    72    63    75   am
    73    18    17    2
    74    68    71   ar
    75    31    30    1
    76    74    73   ar
    77    30    23   am
    78    16    17    1
    79    16    19    1
    80    17    21   am
    81    75    76    1
    82   103   104    2
    83   103   102    1
    84    71    73   ar
    85    76    77    1
    86    23    24    2
    87    23    22    1
    88    19    20    1
    89   102   101    1
    90   102   105    1
    91    21    22    1
    92    22    25    1
    93    77    79   am
    94    77    78    2
    95   105   106    1
    96    79    80    1
    97    20   100    1
    98    99   100    1
    99    99    96    1
   100    25    26    1
   101    97    96    1
   102    97    98    2
   103    96    95    1
   104    94    93    2
   105    29    27   am
   106   107   106    1
   107   107   108    1
   108    26    27    1
   109    27    28    2
   110    93    95   am
   111    93    92    1
   112    80    81    1
   113    80    83    1
   114    82    81    2
   115   109   108    1
   116    81    91   am
   117    83    84    1
   118    91    92    1
   119    84    86   ar
   120    84    85   ar
   121    86    88   ar
   122    85    87   ar
   123    88    89   ar
   124    87    89   ar
   125    89    90    1
