@<TRIPOS>MOLECULE
tmp/5xwcA03.pdb
 112 101 0 0 0
SMALL
GASTEIGER

@<TRIPOS>ATOM
      1  N         -8.8910   14.0130  105.6780 N.3    77  LYS77      -0.1231
      2  CA        -7.9450   14.5830  104.7470 C.3    77  LYS77       0.1693
      3  C         -8.2560   16.0700  104.6280 C.2    77  LYS77       0.2593
      4  O         -9.4190   16.4550  104.4450 O.2    77  LYS77      -0.2718
      5  CB        -8.0900   13.9660  103.3650 C.3    77  LYS77       0.0285
      6  CG        -7.0290   14.4230  102.3780 C.3    77  LYS77       0.0035
      7  CD        -5.7600   13.6340  102.5100 C.3    77  LYS77       0.0206
      8  CE        -4.6210   14.2740  101.7370 C.3    77  LYS77       0.1093
      9  NZ        -4.0110   15.4650  102.4020 N.3    77  LYS77      -0.1314
     10  N         -7.2120   16.8730  104.7830 N.am   78  GLY78      -0.1942
     11  CA        -7.3220   18.3010  104.5430 C.3    78  GLY78       0.2014
     12  C         -6.1760   19.0280  105.1930 C.2    78  GLY78       0.2639
     13  O         -5.4660   18.4820  106.0300 O.2    78  GLY78      -0.2714
     14  N         -6.0080   20.2820  104.8110 N.am   79  GLY79      -0.1954
     15  CA        -4.8410   21.0410  105.1920 C.3    79  GLY79       0.1869
     16  C         -4.7500   21.5950  106.5920 C.2    79  GLY79       0.2309
     17  O         -5.6730   21.4650  107.4100 O.2    79  GLY79      -0.2863
     18  N        -14.5270   20.5420  103.2370 N.3    98  GLN98      -0.1245
     19  CA       -13.6220   19.4910  102.7980 C.3    98  GLN98       0.1566
     20  C        -14.2860   18.1300  102.6000 C.2    98  GLN98       0.2260
     21  O        -13.8590   17.3490  101.7310 O.2    98  GLN98      -0.2867
     22  CB       -12.4380   19.3480  103.7940 C.3    98  GLN98       0.0367
     23  CG       -11.2240   18.7000  103.1680 C.3    98  GLN98       0.0905
     24  CD       -10.4340   19.6580  102.2890 C.2    98  GLN98       0.2608
     25  OE1      -10.2320   20.7960  102.6630 O.2    98  GLN98      -0.2717
     26  NE2       -9.9610   19.1880  101.1540 N.am   98  GLN98      -0.0878
     27  N        -16.0630   18.4040   99.1240 N.3   101  LYS101     -0.1245
     28  CA       -15.0120   18.5490   98.1330 C.3   101  LYS101      0.1561
     29  C        -14.3320   17.2220   97.8710 C.2   101  LYS101      0.2260
     30  O        -14.1400   16.7880   96.7180 O.2   101  LYS101     -0.2867
     31  CB       -13.9760   19.5470   98.6090 C.3   101  LYS101      0.0271
     32  CG       -12.8120   19.7850   97.6440 C.3   101  LYS101      0.0035
     33  CD       -11.6920   20.6200   98.2600 C.3   101  LYS101      0.0206
     34  CE       -12.2080   21.7850   99.0680 C.3   101  LYS101      0.1093
     35  NZ       -11.1220   22.7040   99.4440 N.3   101  LYS101     -0.1314
     36  N         -9.6240   19.4050  108.7830 N.3   113  LYS113     -0.1245
     37  CA        -8.8160   20.6160  108.6520 C.3   113  LYS113      0.1561
     38  C         -8.2240   20.9000  110.0160 C.2   113  LYS113      0.2260
     39  O         -8.8410   20.5810  111.0460 O.2   113  LYS113     -0.2867
     40  CB        -9.6750   21.8240  108.2270 C.3   113  LYS113      0.0271
     41  CG        -8.8810   22.8490  107.4470 C.3   113  LYS113      0.0035
     42  CD        -8.7730   22.4310  105.9940 C.3   113  LYS113      0.0206
     43  CE        -7.9330   23.4430  105.2300 C.3   113  LYS113      0.1093
     44  NZ        -8.2030   23.2650  103.7940 N.3   113  LYS113     -0.1314
     45  N         -1.8710   18.4290  105.2520 N.3   151  ALA151     -0.1231
     46  CA        -1.1530   19.0420  104.1370 C.3   151  ALA151      0.1694
     47  C         -1.0740   20.5270  104.4690 C.2   151  ALA151      0.2593
     48  O         -1.3990   20.9400  105.5990 O.2   151  ALA151     -0.2718
     49  CB        -1.9020   18.8180  102.8330 C.3   151  ALA151      0.0304
     50  N         -0.6470   21.3230  103.4950 N.am  152  GLY152     -0.1942
     51  CA        -0.6190   22.7660  103.6350 C.3   152  GLY152      0.2014
     52  C         -1.9780   23.3970  103.4060 C.2   152  GLY152      0.2638
     53  O         -2.9600   22.7050  103.1720 O.2   152  GLY152     -0.2714
     54  N         -1.9900   24.7210  103.5160 N.am  153  ASP153     -0.1971
     55  CA        -3.1270   25.6280  103.3290 C.3   153  ASP153      0.1709
     56  C         -2.5160   27.0110  103.5820 C.2   153  ASP153      0.2293
     57  O         -1.3060   27.1680  103.4140 O.2   153  ASP153     -0.2864
     58  CB        -4.3220   25.3280  104.2520 C.3   153  ASP153      0.1436
     59  CG        -5.6310   26.0140  103.7980 C.2   153  ASP153      0.3671
     60  OD1       -6.3140   25.5230  102.8640 O.co2 153  ASP153     -0.2456
     61  OD2       -5.9870   27.0420  104.4270 O.co2 153  ASP153     -0.2456
     62  N          1.8570   18.3080   92.4960 N.3   192  ARG192     -0.1245
     63  CA         1.1710   18.7900   93.7100 C.3   192  ARG192      0.1563
     64  C          1.2710   20.3150   93.9300 C.2   192  ARG192      0.2260
     65  O          0.2760   20.9360   94.2800 O.2   192  ARG192     -0.2867
     66  CB         1.5830   18.0210   95.0050 C.3   192  ARG192      0.0307
     67  CG         0.7850   18.4620   96.2360 C.3   192  ARG192      0.0489
     68  CD        -0.7060   18.1710   96.0920 C.3   192  ARG192      0.2205
     69  NE        -1.5830   18.7570   97.1340 N.pl3 192  ARG192     -0.0865
     70  CZ        -2.0350   20.0050   97.1740 C.cat 192  ARG192      0.5346
     71  NH1       -1.6500   20.9160   96.2630 N.pl3 192  ARG192      0.1354
     72  NH2       -2.8690   20.3820   98.1300 N.pl3 192  ARG192      0.1354
     73  N         -3.7730   22.7810   92.6780 N.3   196  THR196     -0.1218
     74  CA        -4.9960   23.5020   92.9990 C.3   196  THR196      0.1862
     75  C         -5.2900   24.5640   91.9160 C.2   196  THR196      0.2287
     76  O         -6.3890   24.6040   91.3590 O.2   196  THR196     -0.2866
     77  CB        -4.9680   24.1210   94.3840 C.3   196  THR196      0.1770
     78  OG1       -4.7210   23.0740   95.3470 O.3   196  THR196     -0.2211
     79  CG2       -6.2950   24.7440   94.6940 C.3   196  THR196      0.0375
     80  N        -11.2440   28.7540   99.6060 N.3   345  ASN345     -0.1240
     81  CA       -12.3940   28.1520  100.2490 C.3   345  ASN345      0.1653
     82  C        -13.3530   29.2390  100.7450 C.2   345  ASN345      0.2266
     83  O        -12.9520   30.1470  101.4690 O.2   345  ASN345     -0.2867
     84  CB       -11.9390   27.2490  101.4090 C.3   345  ASN345      0.1155
     85  CG       -11.3270   25.9640  100.9020 C.2   345  ASN345      0.2627
     86  OD1      -11.9880   25.2170  100.1860 O.2   345  ASN345     -0.2716
     87  ND2      -10.0560   25.7310  101.2010 N.am  345  ASN345     -0.0877
     88  N        -11.7220   24.0030   93.2900 N.3   378  ASN378     -0.1240
     89  CA       -10.4100   23.9510   93.9460 C.3   378  ASN378      0.1653
     90  C        -10.0060   22.5340   94.4330 C.2   378  ASN378      0.2266
     91  O         -8.9290   22.3790   94.9960 O.2   378  ASN378     -0.2867
     92  CB       -10.2550   25.0330   95.0220 C.3   378  ASN378      0.1155
     93  CG       -10.9390   24.7120   96.3410 C.2   378  ASN378      0.2627
     94  OD1      -11.0240   23.5440   96.7620 O.2   378  ASN378     -0.2716
     95  ND2      -11.4410   25.7550   97.0070 N.am  378  ASN378     -0.0877
     96  N         -6.3330   20.1930   94.2630 N.3   381  GLY381     -0.1210
     97  CA        -5.2250   20.1330   95.2150 C.3   381  GLY381      0.1956
     98  C         -5.3320   18.8550   96.0400 C.2   381  GLY381      0.2611
     99  O         -4.4090   18.0420   96.0770 O.2   381  GLY381     -0.2717
    100  N         -6.4710   18.7130   96.6910 N.am  382  VAL382     -0.1979
    101  CA        -6.7110   17.5240   97.5240 C.3   382  VAL382      0.1595
    102  C         -6.7250   16.2400   96.6570 C.2   382  VAL382      0.2287
    103  O         -6.3180   15.1640   97.1200 O.2   382  VAL382     -0.2864
    104  CB        -7.9500   17.6820   98.4230 C.3   382  VAL382      0.0276
    105  CG1       -9.2590   17.5190   97.6590 C.3   382  VAL382      0.0022
    106  CG2       -7.8870   16.6310   99.5720 C.3   382  VAL382      0.0022
    107  N         -3.1980   15.4530   96.2390 N.3   385  SER385     -0.1217
    108  CA        -2.7930   14.8830   97.5400 C.3   385  SER385      0.1889
    109  C         -3.1830   13.3970   97.6480 C.2   385  SER385      0.2288
    110  O         -2.3880   12.5820   98.0900 O.2   385  SER385     -0.2866
    111  CB        -3.4070   15.6460   98.7160 C.3   385  SER385      0.2089
    112  OG        -2.7260   16.8370   99.0290 O.3   385  SER385     -0.2183
@<TRIPOS>BOND
     1    76    75    2
     2    75    74    1
     3    62    63    1
     4    73    74    1
     5    74    77    1
     6    88    89    1
     7    63    64    1
     8    63    66    1
     9    64    65    2
    10    89    90    1
    11    89    92    1
    12    96    97    1
    13    77    79    1
    14    77    78    1
    15    90    91    2
    16    66    67    1
    17    92    93    1
    18    97    98    1
    19    98    99    2
    20    98   100   am
    21    68    67    1
    22    68    69    1
    23   107   108    1
    24    71    70    1
    25    93    94    2
    26    93    95   am
    27   102   103    2
    28   102   101    1
    29   100   101    1
    30    30    29    2
    31    69    70    2
    32    70    72    1
    33   101   104    1
    34   108   109    1
    35   108   111    1
    36    32    33    1
    37    32    31    1
    38   109   110    2
    39   105   104    1
    40    29    28    1
    41    28    31    1
    42    28    27    1
    43    33    34    1
    44   104   106    1
    45   111   112    1
    46    34    35    1
    47    80    81    1
    48    86    85    2
    49    81    82    1
    50    81    84    1
    51    82    83    2
    52    85    87   am
    53    85    84    1
    54    26    24   am
    55    21    20    2
    56     8     9    1
    57     8     7    1
    58    24    25    2
    59    24    23    1
    60     6     7    1
    61     6     5    1
    62    20    19    1
    63    19    18    1
    64    19    22    1
    65    49    46    1
    66    60    59   ar
    67    23    22    1
    68    53    52    2
    69    55    54    1
    70    55    56    1
    71    55    58    1
    72     5     2    1
    73    52    54   am
    74    52    51    1
    75    57    56    2
    76    50    51    1
    77    50    47   am
    78    44    43    1
    79    59    58    1
    80    59    61   ar
    81    46    47    1
    82    46    45    1
    83     4     3    2
    84    47    48    2
    85    11    10    1
    86    11    12    1
    87     3     2    1
    88     3    10   am
    89     2     1    1
    90    14    15    1
    91    14    12   am
    92    15    16    1
    93    12    13    2
    94    43    42    1
    95    42    41    1
    96    16    17    2
    97    41    40    1
    98    40    37    1
    99    37    36    1
   100    37    38    1
   101    38    39    2
