@<TRIPOS>MOLECULE
tmp/5xwdA02.pdb
 80 75 0 0 0
SMALL
GASTEIGER

@<TRIPOS>ATOM
      1  N         88.6860   15.6400   13.8800 N.3   136  GLN136     -0.1245
      2  CA        89.2770   15.7250   12.5450 C.3   136  GLN136      0.1566
      3  C         89.0430   14.3900   11.8500 C.2   136  GLN136      0.2260
      4  O         89.8070   13.4390   12.0300 O.2   136  GLN136     -0.2867
      5  CB        90.7610   16.0620   12.6300 C.3   136  GLN136      0.0367
      6  CG        91.0620   17.3790   13.3260 C.3   136  GLN136      0.0905
      7  CD        92.5490   17.6340   13.4690 C.2   136  GLN136      0.2608
      8  OE1       93.3730   16.8120   13.0670 O.2   136  GLN136     -0.2717
      9  NE2       92.9010   18.7770   14.0450 N.am  136  GLN136     -0.0878
     10  N         89.3940   13.5510    8.8100 N.3   138  ARG138     -0.1245
     11  CA        90.3460   13.1970    7.7630 C.3   138  ARG138      0.1563
     12  C         91.3290   12.1240    8.2180 C.2   138  ARG138      0.2260
     13  O         91.8840   11.4060    7.3780 O.2   138  ARG138     -0.2867
     14  CB        91.0940   14.4530    7.3050 C.3   138  ARG138      0.0307
     15  CG        92.0870   14.2390    6.1720 C.3   138  ARG138      0.0489
     16  CD        92.4840   15.5600    5.5320 C.3   138  ARG138      0.2205
     17  NE        92.9130   16.5470    6.5200 N.pl3 138  ARG138     -0.0865
     18  CZ        94.1790   16.7710    6.8550 C.cat 138  ARG138      0.5346
     19  NH1       95.1520   16.0770    6.2810 N.pl3 138  ARG138      0.1354
     20  NH2       94.4730   17.6910    7.7630 N.pl3 138  ARG138      0.1354
     21  N         95.2400   19.0520   26.4130 N.3   166  SER166     -0.1202
     22  CA        96.2470   18.1760   25.8310 C.3   166  SER166      0.2020
     23  C         95.8000   17.5410   24.5210 C.2   166  SER166      0.2619
     24  O         96.6100   16.8730   23.8700 O.2   166  SER166     -0.2717
     25  CB        96.6290   17.0780   26.8270 C.3   166  SER166      0.2103
     26  OG        95.5040   16.2860   27.1640 O.3   166  SER166     -0.2182
     27  N         94.5450   17.7260   24.1230 N.am  167  CYS167     -0.1956
     28  CA        94.0800   17.1560   22.8690 C.3   167  CYS167      0.1828
     29  C         94.7200   17.8910   21.6920 C.2   167  CYS167      0.2467
     30  O         94.8920   19.1130   21.7410 O.2   167  CYS167     -0.2730
     31  CB        92.5570   17.2360   22.7650 C.3   167  CYS167      0.0996
     32  SG        91.6350   16.3950   24.0810 S.3   167  CYS167     -0.0797
     33  N         95.0860   17.1770   20.6250 N.am  168  PRO168     -0.2715
     34  CA        95.7080   17.8340   19.4640 C.3   168  PRO168      0.1536
     35  C         94.7190   18.7580   18.7690 C.2   168  PRO168      0.2598
     36  O         93.6530   18.3270   18.3270 O.2   168  PRO168     -0.2715
     37  CB        96.1130   16.6580   18.5670 C.3   168  PRO168      0.0310
     38  CG        95.2020   15.5460   18.9680 C.3   168  PRO168      0.0237
     39  CD        94.9630   15.7210   20.4400 C.3   168  PRO168      0.0939
     40  N         95.0810   20.0390   18.6840 N.am  169  ASN169     -0.1973
     41  CA        94.2610   21.0760   18.0580 C.3   169  ASN169      0.1688
     42  C         92.8850   21.1980   18.7030 C.2   169  ASN169      0.2292
     43  O         91.9410   21.6830   18.0710 O.2   169  ASN169     -0.2864
     44  CB        94.1150   20.8350   16.5510 C.3   169  ASN169      0.1181
     45  CG        95.4480   20.8160   15.8280 C.2   169  ASN169      0.2629
     46  OD1       95.8760   21.8240   15.2660 O.2   169  ASN169     -0.2716
     47  ND2       96.1140   19.6670   15.8430 N.am  169  ASN169     -0.0877
     48  N         95.3020   11.0000   16.7860 N.3   183  LEU183     -0.1245
     49  CA        95.7030   11.1120   15.3900 C.3   183  LEU183      0.1561
     50  C         96.8010   10.1030   15.0790 C.2   183  LEU183      0.2260
     51  O         97.8080   10.0250   15.7900 O.2   183  LEU183     -0.2867
     52  CB        96.1840   12.5300   15.0870 C.3   183  LEU183      0.0270
     53  CG        95.1710   13.6580   15.2950 C.3   183  LEU183      0.0019
     54  CD1       95.8000   15.0090   14.9870 C.3   183  LEU183      0.0001
     55  CD2       93.9310   13.4340   14.4440 C.3   183  LEU183      0.0001
     56  N         97.1680   11.3510    9.4160 N.3   186  ILE186     -0.1231
     57  CA        97.5470   12.5920    8.7510 C.3   186  ILE186      0.1692
     58  C         98.8430   13.1660    9.3070 C.2   186  ILE186      0.2591
     59  O         99.4900   13.9810    8.6400 O.2   186  ILE186     -0.2718
     60  CB        96.4120   13.6290    8.8550 C.3   186  ILE186      0.0266
     61  CG1       96.1930   14.0450   10.3100 C.3   186  ILE186      0.0019
     62  CG2       95.1280   13.0730    8.2600 C.3   186  ILE186      0.0020
     63  CD1       95.1400   15.1180   10.4850 C.3   186  ILE186      0.0001
     64  N         99.2450   12.7640   10.5180 N.am  187  ILE187     -0.1980
     65  CA       100.4940   13.2420   11.1010 C.3   187  ILE187      0.1595
     66  C        101.6900   12.4010   10.6850 C.2   187  ILE187      0.2287
     67  O        102.8240   12.7150   11.0730 O.2   187  ILE187     -0.2864
     68  CB       100.4120   13.2770   12.6410 C.3   187  ILE187      0.0276
     69  CG1      100.3420   11.8550   13.2020 C.3   187  ILE187      0.0022
     70  CG2       99.2090   14.0910   13.0900 C.3   187  ILE187      0.0022
     71  CD1      100.3590   11.7940   14.7120 C.3   187  ILE187      0.0001
     72  N        105.4910   10.5070   14.4980 N.3   199  LYS199     -0.1245
     73  CA       105.7740   11.4060   13.3890 C.3   199  LYS199      0.1561
     74  C        107.0490   11.0540   12.6360 C.2   199  LYS199      0.2260
     75  O        107.3710   11.7300   11.6520 O.2   199  LYS199     -0.2867
     76  CB       105.8700   12.8610   13.8790 C.3   199  LYS199      0.0271
     77  CG       104.5690   13.4480   14.4150 C.3   199  LYS199      0.0035
     78  CD       104.4240   13.2260   15.9130 C.3   199  LYS199      0.0206
     79  CE       103.1620   13.8850   16.4490 C.3   199  LYS199      0.1093
     80  NZ       103.0210   13.7060   17.9200 N.3   199  LYS199     -0.1314
@<TRIPOS>BOND
     1    16    15    1
     2    16    17    1
     3    15    14    1
     4    19    18    1
     5    17    18    2
     6    18    20    1
     7    14    11    1
     8    13    12    2
     9    11    12    1
    10    11    10    1
    11    62    60    1
    12    59    58    2
    13    57    60    1
    14    57    58    1
    15    57    56    1
    16    60    61    1
    17    58    64   am
    18    61    63    1
    19    64    65    1
    20    66    67    2
    21    66    65    1
    22    65    68    1
    23    75    74    2
    24     3     4    2
    25     3     2    1
    26     2     5    1
    27     2     1    1
    28     5     6    1
    29    74    73    1
    30    68    70    1
    31    68    69    1
    32     8     7    2
    33    69    71    1
    34     6     7    1
    35    73    76    1
    36    73    72    1
    37     7     9   am
    38    76    77    1
    39    77    78    1
    40    55    53    1
    41    54    53    1
    42    50    49    1
    43    50    51    2
    44    52    53    1
    45    52    49    1
    46    46    45    2
    47    49    48    1
    48    45    47   am
    49    45    44    1
    50    78    79    1
    51    79    80    1
    52    44    41    1
    53    41    40    1
    54    41    42    1
    55    43    42    2
    56    36    35    2
    57    37    38    1
    58    37    34    1
    59    40    35   am
    60    35    34    1
    61    38    39    1
    62    34    33    1
    63    39    33    1
    64    33    29   am
    65    29    30    2
    66    29    28    1
    67    31    28    1
    68    31    32    1
    69    28    27    1
    70    24    23    2
    71    27    23   am
    72    23    22    1
    73    22    21    1
    74    22    25    1
    75    25    26    1
