@<TRIPOS>MOLECULE
tmp/5xwlA01.pdb
 76 74 0 0 0
SMALL
GASTEIGER

@<TRIPOS>ATOM
      1  N         20.0620  113.7720    7.4280 N.3    14  TYR14      -0.1241
      2  CA        21.3660  113.8760    6.7920 C.3    14  TYR14       0.1605
      3  C         21.3460  114.7700    5.5570 C.2    14  TYR14       0.2264
      4  O         22.4190  115.1090    5.0460 O.2    14  TYR14      -0.2867
      5  CB        21.8860  112.4760    6.4190 C.3    14  TYR14       0.0534
      6  CG        20.8630  111.6470    5.6700 C.ar   14  TYR14      -0.0201
      7  CD1       20.7200  111.7740    4.2920 C.ar   14  TYR14      -0.0009
      8  CD2       20.0230  110.7650    6.3390 C.ar   14  TYR14      -0.0009
      9  CE1       19.7740  111.0440    3.5970 C.ar   14  TYR14       0.0417
     10  CE2       19.0780  110.0180    5.6490 C.ar   14  TYR14       0.0417
     11  CZ        18.9570  110.1610    4.2760 C.ar   14  TYR14       0.1957
     12  OH        18.0090  109.4410    3.5750 O.3    14  TYR14      -0.2866
     13  N         16.9150   96.8830   -5.1290 N.3   114  THR114     -0.1203
     14  CA        16.9140   97.4410   -3.7810 C.3   114  THR114      0.1994
     15  C         16.1460   98.7570   -3.7510 C.2   114  THR114      0.2618
     16  O         16.4100   99.6620   -4.5510 O.2   114  THR114     -0.2717
     17  CB        18.3560   97.6680   -3.3070 C.3   114  THR114      0.1784
     18  OG1       19.0830   96.4330   -3.3380 O.3   114  THR114     -0.2211
     19  CG2       18.3890   98.2390   -1.9000 C.3   114  THR114      0.0376
     20  N         15.2090   98.8720   -2.8170 N.am  115  GLU115     -0.1965
     21  CA        14.4370  100.1010   -2.6720 C.3   115  GLU115      0.1733
     22  C         15.2550  101.1620   -1.9490 C.2   115  GLU115      0.2616
     23  O         16.0020  100.8600   -1.0220 O.2   115  GLU115     -0.2715
     24  CB        13.1360   99.8290   -1.9130 C.3   115  GLU115      0.0429
     25  CG        12.1300   98.9840   -2.6840 C.3   115  GLU115      0.1163
     26  CD        11.5430   99.7130   -3.8850 C.2   115  GLU115      0.3649
     27  OE1       11.4670  100.9620   -3.8440 O.co2 115  GLU115     -0.2457
     28  OE2       11.1570   99.0410   -4.8690 O.co2 115  GLU115     -0.2457
     29  N         15.1230  102.4110   -2.3850 N.am  116  CYS116     -0.1954
     30  CA        15.9170  103.5020   -1.8450 C.3   116  CYS116      0.1843
     31  C         15.0540  104.7450   -1.7050 C.2   116  CYS116      0.2625
     32  O         13.9470  104.8280   -2.2440 O.2   116  CYS116     -0.2714
     33  CB        17.1180  103.8190   -2.7370 C.3   116  CYS116      0.0997
     34  SG        18.1250  102.3880   -3.1560 S.3   116  CYS116     -0.0797
     35  N         15.5940  105.7340   -0.9960 N.am  117  LEU117     -0.1977
     36  CA        14.9490  107.0290   -0.8220 C.3   117  LEU117      0.1596
     37  C         15.8280  108.1290   -1.4100 C.2   117  LEU117      0.2287
     38  O         16.9810  108.2900   -0.9990 O.2   117  LEU117     -0.2864
     39  CB        14.6720  107.2970    0.6580 C.3   117  LEU117      0.0297
     40  CG        13.9100  108.5970    0.9110 C.3   117  LEU117      0.0022
     41  CD1       12.4650  108.4670    0.4410 C.3   117  LEU117      0.0001
     42  CD2       13.9700  108.9410    2.3700 C.3   117  LEU117      0.0001
     43  N         10.5950  107.3190   -3.2960 N.3   139  LYS139     -0.1245
     44  CA        11.0400  105.9350   -3.1890 C.3   139  LYS139      0.1561
     45  C         11.3080  105.3850   -4.5830 C.2   139  LYS139      0.2260
     46  O         10.4720  105.5220   -5.4810 O.2   139  LYS139     -0.2867
     47  CB        10.0000  105.0750   -2.4720 C.3   139  LYS139      0.0271
     48  CG         9.7220  105.5500   -1.0540 C.3   139  LYS139      0.0035
     49  CD         8.7360  104.6220   -0.3460 C.3   139  LYS139      0.0206
     50  CE         8.0840  105.3210    0.8360 C.3   139  LYS139      0.1093
     51  NZ         7.5710  104.3480    1.8380 N.3   139  LYS139     -0.1314
     52  N         19.5660  106.8470   -0.5100 N.3   182  VAL182     -0.1231
     53  CA        19.8650  106.0380    0.6640 C.3   182  VAL182      0.1692
     54  C         19.0480  104.7570    0.5820 C.2   182  VAL182      0.2592
     55  O         17.8430  104.8000    0.3030 O.2   182  VAL182     -0.2718
     56  CB        19.5860  106.8130    1.9660 C.3   182  VAL182      0.0266
     57  CG1       19.6400  105.8720    3.1800 C.3   182  VAL182      0.0020
     58  CG2       20.6060  107.9350    2.1130 C.3   182  VAL182      0.0020
     59  N         19.7130  103.6180    0.7910 N.am  183  CYS183     -0.1956
     60  CA        19.0810  102.3090    0.7030 C.3   183  CYS183      0.1843
     61  C         19.4740  101.5110    1.9370 C.2   183  CYS183      0.2625
     62  O         20.6660  101.2930    2.1820 O.2   183  CYS183     -0.2714
     63  CB        19.5010  101.5690   -0.5770 C.3   183  CYS183      0.0997
     64  SG        19.7900  102.6340   -2.0160 S.3   183  CYS183     -0.0797
     65  N         18.4790  101.0890    2.7120 N.am  184  ASN184     -0.1958
     66  CA        18.7010  100.3250    3.9330 C.3   184  ASN184      0.1819
     67  C         19.7150  101.0280    4.8330 C.2   184  ASN184      0.2621
     68  O         20.6650  100.4240    5.3350 O.2   184  ASN184     -0.2715
     69  CB        19.1440   98.8970    3.6070 C.3   184  ASN184      0.1195
     70  CG        18.1110   98.1440    2.8040 C.2   184  ASN184      0.2630
     71  OD1       16.9170   98.2260    3.0870 O.2   184  ASN184     -0.2716
     72  ND2       18.5610   97.4080    1.7910 N.am  184  ASN184     -0.0877
     73  N         19.5140  102.3330    5.0060 N.am  185  GLY185     -0.1954
     74  CA        20.3380  103.1410    5.8870 C.3   185  GLY185      0.1869
     75  C         21.7230  103.4890    5.3810 C.2   185  GLY185      0.2309
     76  O         22.5390  103.9870    6.1640 O.2   185  GLY185     -0.2863
@<TRIPOS>BOND
     1    46    45    2
     2    13    14    1
     3    28    26   ar
     4    45    44    1
     5    16    15    2
     6    26    27   ar
     7    26    25    1
     8    14    15    1
     9    14    17    1
    10    15    20   am
    11    18    17    1
    12    17    19    1
    13    43    44    1
    14    44    47    1
    15    34    33    1
    16    34    64    1
    17    20    21    1
    18    33    30    1
    19    25    24    1
    20    21    22    1
    21    21    24    1
    22    47    48    1
    23    29    22   am
    24    29    30    1
    25    32    31    2
    26    64    63    1
    27    22    23    2
    28    30    31    1
    29    31    35   am
    30    37    38    2
    31    37    36    1
    32    48    49    1
    33    35    36    1
    34    36    39    1
    35    63    60    1
    36    52    53    1
    37    49    50    1
    38    55    54    2
    39    41    40    1
    40    54    53    1
    41    54    59   am
    42    39    40    1
    43    53    56    1
    44    60    59    1
    45    60    61    1
    46    50    51    1
    47    40    42    1
    48    72    70   am
    49    61    62    2
    50    61    65   am
    51    56    58    1
    52    56    57    1
    53    65    66    1
    54    70    71    2
    55    70    69    1
    56    12    11    1
    57     9    11   ar
    58     9     7   ar
    59    69    66    1
    60    66    67    1
    61    11    10   ar
    62     7     6   ar
    63    67    73   am
    64    67    68    2
    65    73    74    1
    66     4     3    2
    67    75    74    1
    68    75    76    2
    69     3     2    1
    70    10     8   ar
    71     6     8   ar
    72     6     5    1
    73     5     2    1
    74     2     1    1
