@<TRIPOS>MOLECULE
tmp/5xwlC00.pdb
 124 121 0 0 0
SMALL
GASTEIGER

@<TRIPOS>ATOM
      1  N         -4.7620  113.5190   17.6570 N.3    40  HIS40      -0.1241
      2  CA        -5.7340  112.8800   16.7720 C.3    40  HIS40       0.1621
      3  C         -6.8750  112.2270   17.5440 C.2    40  HIS40       0.2264
      4  O         -7.8690  111.8220   16.9300 O.2    40  HIS40      -0.2867
      5  CB        -5.0470  111.8740   15.8260 C.3    40  HIS40       0.0745
      6  CG        -4.7580  110.5320   16.4290 C.ar   40  HIS40       0.0817
      7  ND1       -3.5060  110.1780   16.8950 N.ar   40  HIS40      -0.2268
      8  CD2       -5.5430  109.4410   16.6010 C.ar   40  HIS40       0.1154
      9  CE1       -3.5410  108.9380   17.3500 C.ar   40  HIS40       0.1986
     10  NE2       -4.7630  108.4660   17.1760 N.ar   40  HIS40      -0.2212
     11  N          0.9050  113.7980   11.0600 N.3    81  LEU81      -0.1245
     12  CA         0.7780  113.5480   12.4980 C.3    81  LEU81       0.1561
     13  C          1.9520  114.0990   13.2930 C.2    81  LEU81       0.2260
     14  O          2.1760  113.6930   14.4360 O.2    81  LEU81      -0.2867
     15  CB         0.5910  112.0670   12.7990 C.3    81  LEU81       0.0270
     16  CG        -0.7080  111.5460   12.1970 C.3    81  LEU81       0.0019
     17  CD1       -0.9360  110.1790   12.7310 C.3    81  LEU81       0.0001
     18  CD2       -1.8840  112.4500   12.5340 C.3    81  LEU81       0.0001
     19  N          2.8940   95.0110   19.1700 N.3   170  ASP170     -0.1225
     20  CA         2.6830   96.3780   18.7200 C.3   170  ASP170      0.1805
     21  C          1.4370   96.9410   19.3940 C.2   170  ASP170      0.2598
     22  O          0.5930   96.1940   19.8960 O.2   170  ASP170     -0.2718
     23  CB         2.5540   96.3980   17.1930 C.3   170  ASP170      0.1424
     24  CG         2.9150   97.7290   16.5770 C.2   170  ASP170      0.3668
     25  OD1        3.3150   98.6740   17.2960 O.co2 170  ASP170     -0.2456
     26  OD2        2.8230   97.8260   15.3330 O.co2 170  ASP170     -0.2456
     27  N          1.3440   98.2700   19.4180 N.am  171  SER171     -0.1938
     28  CA         0.0810   98.9220   19.7180 C.3   171  SER171      0.2055
     29  C         -0.8240   98.8490   18.4870 C.2   171  SER171      0.2643
     30  O         -0.3930   98.4860   17.3910 O.2   171  SER171     -0.2714
     31  CB         0.3100  100.3750   20.1530 C.3   171  SER171      0.2130
     32  OG         0.9190  101.1350   19.1130 O.3   171  SER171     -0.2179
     33  N         -2.1030   99.1650   18.6690 N.am  172  CYS172     -0.1953
     34  CA        -3.0430   99.0510   17.5600 C.3   172  CYS172      0.1843
     35  C         -4.1930  100.0180   17.7940 C.2   172  CYS172      0.2625
     36  O         -4.2100  100.7660   18.7770 O.2   172  CYS172     -0.2714
     37  CB        -3.5250   97.6040   17.3870 C.3   172  CYS172      0.0997
     38  SG        -4.1510   97.2330   15.6920 S.3   172  CYS172     -0.0797
     39  N         -5.1530  100.0060   16.8660 N.am  173  GLN173     -0.1963
     40  CA        -6.3050  100.9010   16.9490 C.3   173  GLN173      0.1733
     41  C         -7.0300  100.7370   18.2800 C.2   173  GLN173      0.2616
     42  O         -7.2520   99.6220   18.7550 O.2   173  GLN173     -0.2715
     43  CB        -7.2690  100.6480   15.7870 C.3   173  GLN173      0.0408
     44  CG        -6.8250  101.2860   14.4570 C.3   173  GLN173      0.0908
     45  CD        -5.5090  100.7220   13.9090 C.2   173  GLN173      0.2608
     46  OE1       -4.4760  101.4070   13.8940 O.2   173  GLN173     -0.2717
     47  NE2       -5.5480   99.4750   13.4450 N.am  173  GLN173     -0.0878
     48  N         -7.3910  101.8650   18.8840 N.am  174  GLY174     -0.1955
     49  CA        -7.9090  101.8870   20.2280 C.3   174  GLY174      0.1869
     50  C         -6.8770  102.1670   21.3020 C.2   174  GLY174      0.2309
     51  O         -7.2550  102.5250   22.4210 O.2   174  GLY174     -0.2863
     52  N         -4.4240  104.4640   20.6370 N.3   176  SER176     -0.1217
     53  CA        -4.3270  105.8970   20.3760 C.3   176  SER176      0.1889
     54  C         -4.3040  106.7610   21.6190 C.2   176  SER176      0.2288
     55  O         -5.2420  106.7050   22.4170 O.2   176  SER176     -0.2866
     56  CB        -5.5210  106.3610   19.5430 C.3   176  SER176      0.2089
     57  OG        -5.2600  106.3060   18.1710 O.3   176  SER176     -0.2183
     58  N          0.9150  106.9440   21.9290 N.3   190  VAL190     -0.1231
     59  CA         0.5300  106.1070   20.7920 C.3   190  VAL190      0.1692
     60  C         -0.0010  107.0070   19.6910 C.2   190  VAL190      0.2593
     61  O         -1.0270  107.6750   19.8650 O.2   190  VAL190     -0.2718
     62  CB        -0.5270  105.0650   21.1990 C.3   190  VAL190      0.0266
     63  CG1       -0.9590  104.2430   19.9760 C.3   190  VAL190      0.0020
     64  CG2       -0.0240  104.1520   22.3240 C.3   190  VAL190      0.0020
     65  N          0.6870  107.0300   18.5450 N.am  191  SER191     -0.1938
     66  CA         0.3280  107.9700   17.4800 C.3   191  SER191      0.2055
     67  C         -0.1400  107.2670   16.2210 C.2   191  SER191      0.2643
     68  O         -1.3070  107.4170   15.8440 O.2   191  SER191     -0.2714
     69  CB         1.4930  108.9180   17.1910 C.3   191  SER191      0.2130
     70  OG         1.0560  109.9410   16.2960 O.3   191  SER191     -0.2179
     71  N          0.7220  106.5330   15.5130 N.am  192  TRP192     -0.1959
     72  CA         0.3160  105.9510   14.2410 C.3   192  TRP192      0.1771
     73  C          1.2610  104.8120   13.8810 C.2   192  TRP192      0.2620
     74  O          2.2020  104.4980   14.6130 O.2   192  TRP192     -0.2715
     75  CB         0.2820  107.0090   13.1310 C.3   192  TRP192      0.0590
     76  CG         1.6280  107.6450   12.7950 C.ar  192  TRP192      0.0006
     77  CD1        2.2540  108.6650   13.4680 C.ar  192  TRP192      0.0946
     78  CD2        2.4850  107.3130   11.6850 C.ar  192  TRP192      0.0152
     79  NE1        3.4430  108.9860   12.8440 N.ar  192  TRP192     -0.2442
     80  CE2        3.6080  108.1740   11.7510 C.ar  192  TRP192      0.0810
     81  CE3        2.4070  106.3790   10.6410 C.ar  192  TRP192      0.0012
     82  CZ2        4.6510  108.1230   10.8130 C.ar  192  TRP192      0.0191
     83  CZ3        3.4440  106.3270    9.7070 C.ar  192  TRP192      0.0001
     84  CH2        4.5570  107.1950    9.8080 C.ar  192  TRP192      0.0015
     85  N          0.9880  104.1870   12.7470 N.am  193  GLY193     -0.1940
     86  CA         1.8560  103.1500   12.2190 C.3   193  GLY193      0.2014
     87  C          1.2720  102.6430   10.9240 C.2   193  GLY193      0.2639
     88  O          0.1750  103.0320   10.5210 O.2   193  GLY193     -0.2714
     89  N          2.0180  101.7670   10.2630 N.am  194  TYR194     -0.1959
     90  CA         1.4830  101.0720    9.0980 C.3   194  TYR194      0.1771
     91  C          0.8490   99.7780    9.5910 C.2   194  TYR194      0.2620
     92  O          1.5460   98.7960    9.8610 O.2   194  TYR194     -0.2715
     93  CB         2.5670  100.8170    8.0580 C.3   194  TYR194      0.0574
     94  CG         2.0170  100.1680    6.8140 C.ar  194  TYR194     -0.0198
     95  CD1        1.3920  100.9220    5.8390 C.ar  194  TYR194     -0.0009
     96  CD2        2.0970   98.7950    6.6300 C.ar  194  TYR194     -0.0009
     97  CE1        0.8770  100.3250    4.6940 C.ar  194  TYR194      0.0417
     98  CE2        1.5860   98.1900    5.4990 C.ar  194  TYR194      0.0417
     99  CZ         0.9770   98.9600    4.5340 C.ar  194  TYR194      0.1957
    100  OH         0.4660   98.3600    3.4050 O.3   194  TYR194     -0.2866
    101  N         -0.4800   99.7750    9.7130 N.am  195  GLY195     -0.1954
    102  CA        -1.1410   98.6330   10.3210 C.3   195  GLY195      0.1869
    103  C         -0.6490   98.4140   11.7440 C.2   195  GLY195      0.2309
    104  O         -0.2260   99.3440   12.4360 O.2   195  GLY195     -0.2863
    105  N          7.5330   97.5240   10.4670 N.3   201  LYS201     -0.1245
    106  CA         6.6220   98.6500   10.6660 C.3   201  LYS201      0.1561
    107  C          6.2790   98.7540   12.1470 C.2   201  LYS201      0.2260
    108  O          5.1330   98.5380   12.5550 O.2   201  LYS201     -0.2867
    109  CB         5.3590   98.4850    9.8180 C.3   201  LYS201      0.0271
    110  CG         5.6010   98.5560    8.3200 C.3   201  LYS201      0.0035
    111  CD         6.0190   99.9510    7.8850 C.3   201  LYS201      0.0206
    112  CE         6.1500  100.0150    6.3580 C.3   201  LYS201      0.1093
    113  NZ         6.8490  101.2490    5.9130 N.3   201  LYS201     -0.1314
    114  N          5.3830  100.5170   15.7360 N.3   203  GLY203     -0.1210
    115  CA         4.5580  101.6690   16.0410 C.3   203  GLY203      0.1956
    116  C          5.3670  102.9470   16.1320 C.2   203  GLY203      0.2611
    117  O          6.5380  102.9460   16.5100 O.2   203  GLY203     -0.2717
    118  N          4.7190  104.0540   15.7780 N.am  204  VAL204     -0.1979
    119  CA         5.3040  105.3860   15.8600 C.3   204  VAL204      0.1595
    120  C          4.6060  106.1380   16.9850 C.2   204  VAL204      0.2287
    121  O          3.3790  106.0680   17.1260 O.2   204  VAL204     -0.2864
    122  CB         5.1800  106.1590   14.5260 C.3   204  VAL204      0.0276
    123  CG1        5.9610  107.4730   14.5980 C.3   204  VAL204      0.0022
    124  CG2        5.6800  105.3140   13.3500 C.3   204  VAL204      0.0022
@<TRIPOS>BOND
     1   100    99    1
     2    99    97   ar
     3    99    98   ar
     4    97    95   ar
     5    98    96   ar
     6    95    94   ar
     7   113   112    1
     8   112   111    1
     9    96    94   ar
    10    94    93    1
    11   111   110    1
    12    93    90    1
    13   110   109    1
    14    90    91    1
    15    90    89    1
    16    91   101   am
    17    91    92    2
    18    83    84   ar
    19    83    81   ar
    20   101   102    1
    21    84    82   ar
    22   109   106    1
    23    89    87   am
    24   102   103    1
    25   105   106    1
    26    88    87    2
    27    81    78   ar
    28   106   107    1
    29    82    80   ar
    30    87    86    1
    31    11    12    1
    32    78    80   ar
    33    78    76   ar
    34   103   104    2
    35    80    79   ar
    36   107   108    2
    37    16    18    1
    38    16    17    1
    39    16    15    1
    40    86    85    1
    41    12    15    1
    42    12    13    1
    43    85    73   am
    44    76    75    1
    45    76    77   ar
    46    79    77   ar
    47    75    72    1
    48    13    14    2
    49   124   122    1
    50    47    45   am
    51    73    72    1
    52    73    74    2
    53    46    45    2
    54    45    44    1
    55    72    71    1
    56    44    43    1
    57   122   123    1
    58   122   119    1
    59    26    24   ar
    60    71    67   am
    61    38    37    1
    62   114   115    1
    63   118   119    1
    64   118   116   am
    65    43    40    1
    66     5     6    1
    67     5     2    1
    68    68    67    2
    69   119   120    1
    70   115   116    1
    71   116   117    2
    72    67    66    1
    73    70    69    1
    74     6     8   ar
    75     6     7   ar
    76    24    23    1
    77    24    25   ar
    78     8    10   ar
    79     2     3    1
    80     2     1    1
    81    39    40    1
    82    39    35   am
    83     7     9   ar
    84     4     3    2
    85    40    41    1
    86   120   121    2
    87    10     9   ar
    88    69    66    1
    89    23    20    1
    90    37    34    1
    91    30    29    2
    92    66    65    1
    93    34    35    1
    94    34    33    1
    95    35    36    2
    96    57    56    1
    97    41    42    2
    98    41    48   am
    99    29    33   am
   100    29    28    1
   101    65    60   am
   102    20    19    1
   103    20    21    1
   104    48    49    1
   105    32    31    1
   106    21    27   am
   107    21    22    2
   108    27    28    1
   109    56    53    1
   110    60    61    2
   111    60    59    1
   112    28    31    1
   113    63    62    1
   114    49    50    1
   115    53    52    1
   116    53    54    1
   117    59    62    1
   118    59    58    1
   119    62    64    1
   120    50    51    2
   121    54    55    2
