@<TRIPOS>MOLECULE
tmp/5xwwB01.pdb
 187 178 0 0 0
SMALL
GASTEIGER

@<TRIPOS>ATOM
      1  N        -22.8450   -6.1230   27.7580 N.3   156  LEU156     -0.1245
      2  CA       -24.2490   -6.4790   27.5650 C.3   156  LEU156      0.1561
      3  C        -25.0680   -6.4000   28.8550 C.2   156  LEU156      0.2260
      4  O        -26.2580   -6.1290   28.8080 O.2   156  LEU156     -0.2867
      5  CB       -24.3600   -7.8940   26.9950 C.3   156  LEU156      0.0270
      6  CG       -23.7880   -8.0430   25.5980 C.3   156  LEU156      0.0019
      7  CD1      -23.7480   -9.5130   25.1800 C.3   156  LEU156      0.0001
      8  CD2      -24.5980   -7.1840   24.6330 C.3   156  LEU156      0.0001
      9  N        -21.5200  -25.6840   29.3550 N.3   313  ALA313     -0.1245
     10  CA       -22.0780  -24.3320   29.3710 C.3   313  ALA313      0.1562
     11  C        -22.9960  -24.0850   30.5530 C.2   313  ALA313      0.2260
     12  O        -23.3530  -22.9440   30.8170 O.2   313  ALA313     -0.2867
     13  CB       -22.8230  -24.0580   28.0710 C.3   313  ALA313      0.0290
     14  N        -17.4050  -20.5300   20.5320 N.3   358  SER358     -0.1202
     15  CA       -18.8220  -20.2030   20.5100 C.3   358  SER358      0.2020
     16  C        -18.9780  -18.7420   20.0750 C.2   358  SER358      0.2619
     17  O        -18.1320  -17.8970   20.3870 O.2   358  SER358     -0.2717
     18  CB       -19.4270  -20.4060   21.9010 C.3   358  SER358      0.2103
     19  OG       -20.7050  -19.7640   22.0410 O.3   358  SER358     -0.2182
     20  N        -20.1410  -18.4150   19.5210 N.am  359  THR359     -0.1938
     21  CA       -20.4920  -17.0260   19.2950 C.3   359  THR359      0.2028
     22  C        -20.5920  -16.2210   20.5820 C.2   359  THR359      0.2642
     23  O        -20.4340  -15.0090   20.5480 O.2   359  THR359     -0.2714
     24  CB       -21.7980  -16.8800   18.4940 C.3   359  THR359      0.1808
     25  OG1      -22.8340  -17.6590   19.1020 O.3   359  THR359     -0.2208
     26  CG2      -21.5820  -17.3310   17.0800 C.3   359  THR359      0.0379
     27  N        -20.6940  -16.8910   21.7290 N.am  360  ALA360     -0.1977
     28  CA       -20.6540  -16.1720   23.0200 C.3   360  ALA360      0.1597
     29  C        -19.3140  -15.4680   23.2290 C.2   360  ALA360      0.2287
     30  O        -19.2610  -14.4120   23.8500 O.2   360  ALA360     -0.2864
     31  CB       -20.9500  -17.1160   24.1840 C.3   360  ALA360      0.0319
     32  N        -19.3480  -12.1430   20.0680 N.3   363  TRP363     -0.1227
     33  CA       -20.0630  -10.9050   20.3630 C.3   363  TRP363      0.1737
     34  C        -20.6010  -10.8290   21.8050 C.2   363  TRP363      0.2596
     35  O        -20.8740   -9.7510   22.3050 O.2   363  TRP363     -0.2718
     36  CB       -21.1970  -10.6730   19.3540 C.3   363  TRP363      0.0564
     37  CG       -22.0760  -11.8330   19.1130 C.ar  363  TRP363      0.0003
     38  CD1      -22.8530  -12.4660   20.0190 C.ar  363  TRP363      0.0946
     39  CD2      -22.3610  -12.4460   17.8480 C.ar  363  TRP363      0.0152
     40  NE1      -23.4900  -13.5330   19.4340 N.ar  363  TRP363     -0.2442
     41  CE2      -23.2480  -13.5080   18.0910 C.ar  363  TRP363      0.0810
     42  CE3      -21.9490  -12.1990   16.5380 C.ar  363  TRP363      0.0012
     43  CZ2      -23.7620  -14.2980   17.0760 C.ar  363  TRP363      0.0191
     44  CZ3      -22.4410  -13.0040   15.5330 C.ar  363  TRP363      0.0001
     45  CH2      -23.3040  -14.0690   15.8170 C.ar  363  TRP363      0.0015
     46  N        -20.6110  -11.9440   22.5190 N.am  364  GLY364     -0.1942
     47  CA       -21.0150  -11.9300   23.9260 C.3   364  GLY364      0.2014
     48  C        -22.4310  -12.4360   24.0870 C.2   364  GLY364      0.2640
     49  O        -23.2320  -12.3440   23.1570 O.2   364  GLY364     -0.2714
     50  N        -22.7310  -13.0220   25.2440 N.am  365  SER365     -0.1935
     51  CA       -24.1090  -13.3560   25.5850 C.3   365  SER365      0.2055
     52  C        -24.4080  -13.1350   27.0660 C.2   365  SER365      0.2643
     53  O        -23.7470  -13.7080   27.9450 O.2   365  SER365     -0.2714
     54  CB       -24.4320  -14.7970   25.2140 C.3   365  SER365      0.2130
     55  OG       -25.7850  -15.0690   25.5430 O.3   365  SER365     -0.2179
     56  N        -25.4610  -12.3580   27.3170 N.am  366  GLY366     -0.1954
     57  CA       -25.9090  -12.0510   28.6670 C.3   366  GLY366      0.1869
     58  C        -26.2910  -13.3050   29.4190 C.2   366  GLY366      0.2309
     59  O        -26.8950  -14.2100   28.8530 O.2   366  GLY366     -0.2863
     60  N        -23.9090  -15.4050   30.3600 N.3   368  HIS368     -0.1241
     61  CA       -22.8930  -16.4000   30.0410 C.3   368  HIS368      0.1621
     62  C        -21.4600  -15.8320   30.0710 C.2   368  HIS368      0.2264
     63  O        -20.6300  -16.1300   29.1990 O.2   368  HIS368     -0.2867
     64  CB       -23.2050  -17.0500   28.6910 C.3   368  HIS368      0.0745
     65  CG       -24.5440  -17.7170   28.6470 C.ar  368  HIS368      0.0817
     66  ND1      -25.6850  -17.0620   28.2290 N.ar  368  HIS368     -0.2268
     67  CD2      -24.9540  -18.9280   29.1010 C.ar  368  HIS368      0.1154
     68  CE1      -26.7350  -17.8370   28.4310 C.ar  368  HIS368      0.1986
     69  NE2      -26.3080  -19.0050   28.8820 N.ar  368  HIS368     -0.2212
     70  N        -18.6390  -18.7440   30.2740 N.3   371  TYR371     -0.1241
     71  CA       -18.5550  -19.4810   29.0220 C.3   371  TYR371      0.1605
     72  C        -17.9020  -18.5880   27.9640 C.2   371  TYR371      0.2264
     73  O        -17.0680  -19.0420   27.1680 O.2   371  TYR371     -0.2867
     74  CB       -19.9650  -19.9110   28.6180 C.3   371  TYR371      0.0534
     75  CG       -20.0480  -20.8010   27.4040 C.ar  371  TYR371     -0.0201
     76  CD1      -19.6220  -22.1290   27.4550 C.ar  371  TYR371     -0.0009
     77  CD2      -20.6570  -20.3470   26.2280 C.ar  371  TYR371     -0.0009
     78  CE1      -19.7900  -22.9680   26.3620 C.ar  371  TYR371      0.0417
     79  CE2      -20.8380  -21.1840   25.1400 C.ar  371  TYR371      0.0417
     80  CZ       -20.4290  -22.4970   25.2210 C.ar  371  TYR371      0.1957
     81  OH       -20.5420  -23.3210   24.1240 O.3   371  TYR371     -0.2866
     82  N        -22.2670  -21.0230   16.1330 N.3   398  GLY398     -0.1210
     83  CA       -23.5800  -20.6090   16.5690 C.3   398  GLY398      0.1956
     84  C        -24.3100  -21.7350   17.2770 C.2   398  GLY398      0.2612
     85  O        -23.8760  -22.2090   18.3350 O.2   398  GLY398     -0.2717
     86  N        -25.5100  -22.0290   16.8110 N.am  399  THR399     -0.1952
     87  CA       -26.3580  -23.0120   17.4560 C.3   399  THR399      0.1897
     88  C        -26.5120  -24.1930   16.5130 C.2   399  THR399      0.2313
     89  O        -26.8790  -24.0130   15.3630 O.2   399  THR399     -0.2863
     90  CB       -27.7570  -22.4220   17.7410 C.3   399  THR399      0.1794
     91  OG1      -27.6190  -21.2590   18.5650 O.3   399  THR399     -0.2208
     92  CG2      -28.6450  -23.4540   18.4530 C.3   399  THR399      0.0378
     93  N        -25.7260  -29.4050   22.8350 N.3   405  MET405     -0.1230
     94  CA       -26.1640  -28.6910   24.0430 C.3   405  MET405      0.1702
     95  C        -27.5080  -28.0070   23.8310 C.2   405  MET405      0.2592
     96  O        -28.1570  -27.6320   24.7970 O.2   405  MET405     -0.2718
     97  CB       -25.1640  -27.5790   24.3780 C.3   405  MET405      0.0401
     98  CG       -24.0610  -27.9540   25.3320 C.3   405  MET405      0.0596
     99  SD       -22.8600  -26.6120   25.3990 S.3   405  MET405     -0.1393
    100  CE       -21.4310  -27.4750   26.0420 C.3   405  MET405      0.0692
    101  N        -27.7380  -27.5580   22.6000 N.am  406  ALA406     -0.1980
    102  CA       -28.7380  -26.5270   22.3360 C.3   406  ALA406      0.1597
    103  C        -30.0590  -27.1160   21.8720 C.2   406  ALA406      0.2287
    104  O        -30.9190  -26.3910   21.4070 O.2   406  ALA406     -0.2864
    105  CB       -28.2190  -25.5310   21.2990 C.3   406  ALA406      0.0319
    106  N        -34.1550  -23.5310   25.6270 N.3   411  VAL411     -0.1245
    107  CA       -32.9140  -22.9140   25.1630 C.3   411  VAL411      0.1561
    108  C        -33.0310  -22.5370   23.6860 C.2   411  VAL411      0.2260
    109  O        -32.6930  -21.4180   23.2770 O.2   411  VAL411     -0.2867
    110  CB       -31.7380  -23.9030   25.3150 C.3   411  VAL411      0.0252
    111  CG1      -30.4510  -23.2960   24.7820 C.3   411  VAL411      0.0019
    112  CG2      -31.5710  -24.3230   26.7690 C.3   411  VAL411      0.0019
    113  N        -35.2960  -19.5280   23.1840 N.3   414  ARG414     -0.1231
    114  CA       -34.6290  -18.2950   23.5810 C.3   414  ARG414      0.1694
    115  C        -33.7140  -17.8380   22.4450 C.2   414  ARG414      0.2591
    116  O        -33.7780  -16.6910   22.0260 O.2   414  ARG414     -0.2718
    117  CB       -33.8260  -18.5210   24.8690 C.3   414  ARG414      0.0321
    118  CG       -33.4800  -17.2600   25.6540 C.3   414  ARG414      0.0489
    119  CD       -33.4170  -17.4950   27.1670 C.3   414  ARG414      0.2205
    120  NE       -33.0170  -18.8540   27.5470 N.pl3 414  ARG414     -0.0865
    121  CZ       -31.8520  -19.1780   28.1100 C.cat 414  ARG414      0.5346
    122  NH1      -30.8930  -18.2670   28.2640 N.pl3 414  ARG414      0.1354
    123  NH2      -31.6140  -20.4420   28.4440 N.pl3 414  ARG414      0.1354
    124  N        -32.9810  -18.7800   21.8550 N.am  415  LEU415     -0.1980
    125  CA       -32.0160  -18.4560   20.8050 C.3   415  LEU415      0.1596
    126  C        -32.7030  -17.9980   19.5100 C.2   415  LEU415      0.2287
    127  O        -32.3500  -16.9610   18.9410 O.2   415  LEU415     -0.2864
    128  CB       -31.1110  -19.6570   20.5250 C.3   415  LEU415      0.0297
    129  CG       -30.0860  -19.9640   21.6250 C.3   415  LEU415      0.0022
    130  CD1      -29.6390  -21.4100   21.5860 C.3   415  LEU415      0.0001
    131  CD2      -28.8810  -19.0540   21.5070 C.3   415  LEU415      0.0001
    132  N        -33.7030  -14.5380   19.7010 N.3   418  GLN418     -0.1245
    133  CA       -32.5980  -13.5850   19.5030 C.3   418  GLN418      0.1566
    134  C        -32.0340  -13.6180   18.0720 C.2   418  GLN418      0.2260
    135  O        -31.0680  -12.9160   17.7800 O.2   418  GLN418     -0.2867
    136  CB       -31.4520  -13.8710   20.4770 C.3   418  GLN418      0.0367
    137  CG       -31.8420  -13.9370   21.9440 C.3   418  GLN418      0.0905
    138  CD       -30.7590  -14.5730   22.8030 C.2   418  GLN418      0.2608
    139  OE1      -30.1450  -15.5730   22.4230 O.2   418  GLN418     -0.2717
    140  NE2      -30.5390  -14.0110   23.9820 N.am  418  GLN418     -0.0878
    141  N        -30.4750  -16.2750   16.5730 N.3   420  VAL420     -0.1245
    142  CA       -29.3940  -17.2280   16.3900 C.3   420  VAL420      0.1561
    143  C        -30.0030  -18.5950   16.1500 C.2   420  VAL420      0.2260
    144  O        -30.5130  -19.2270   17.0700 O.2   420  VAL420     -0.2867
    145  CB       -28.4620  -17.2830   17.6220 C.3   420  VAL420      0.0252
    146  CG1      -27.2930  -18.2140   17.3470 C.3   420  VAL420      0.0019
    147  CG2      -27.9380  -15.8960   17.9410 C.3   420  VAL420      0.0019
    148  N        -31.7030  -10.3840   15.3450 N.3   453  PHE453     -0.1241
    149  CA       -30.5170  -10.2820   16.1960 C.3   453  PHE453      0.1605
    150  C        -30.0650   -8.8270   16.4210 C.2   453  PHE453      0.2264
    151  O        -29.8340   -8.4220   17.5610 O.2   453  PHE453     -0.2867
    152  CB       -29.3690  -11.1330   15.6420 C.3   453  PHE453      0.0534
    153  CG       -28.1160  -11.0930   16.4920 C.ar  453  PHE453     -0.0203
    154  CD1      -27.9980  -11.8850   17.6170 C.ar  453  PHE453     -0.0042
    155  CD2      -27.0890  -10.2200   16.1930 C.ar  453  PHE453     -0.0042
    156  CE1      -26.8850  -11.7910   18.4360 C.ar  453  PHE453     -0.0003
    157  CE2      -25.9810  -10.1110   17.0040 C.ar  453  PHE453     -0.0003
    158  CZ       -25.8490  -10.9360   18.0960 C.ar  453  PHE453     -0.0000
    159  N        -32.1320   -6.6640   18.9750 N.3   456  ALA456     -0.1231
    160  CA       -32.0070   -7.2200   20.3170 C.3   456  ALA456      0.1694
    161  C        -30.6090   -6.9450   20.8770 C.2   456  ALA456      0.2592
    162  O        -30.4720   -6.5010   22.0200 O.2   456  ALA456     -0.2718
    163  CB       -32.3220   -8.7110   20.3170 C.3   456  ALA456      0.0304
    164  N        -29.5850   -7.1060   20.0420 N.am  457  PHE457     -0.1976
    165  CA       -28.1990   -6.9740   20.5020 C.3   457  PHE457      0.1639
    166  C        -27.8790   -5.5240   20.8900 C.2   457  PHE457      0.2290
    167  O        -27.1160   -5.2820   21.8180 O.2   457  PHE457     -0.2864
    168  CB       -27.2200   -7.4630   19.4280 C.3   457  PHE457      0.0560
    169  CG       -25.7960   -7.5780   19.9070 C.ar  457  PHE457     -0.0200
    170  CD1      -25.3940   -8.6630   20.6680 C.ar  457  PHE457     -0.0042
    171  CD2      -24.8830   -6.5780   19.6460 C.ar  457  PHE457     -0.0042
    172  CE1      -24.1120   -8.7450   21.1680 C.ar  457  PHE457     -0.0003
    173  CE2      -23.5720   -6.6870   20.0680 C.ar  457  PHE457     -0.0003
    174  CZ       -23.1840   -7.7710   20.8370 C.ar  457  PHE457     -0.0000
    175  N        -30.0440   -3.0340   21.7310 N.3   459  ALA459     -0.1231
    176  CA       -31.1760   -2.3750   22.3730 C.3   459  ALA459      0.1694
    177  C        -30.7330   -1.2910   23.3490 C.2   459  ALA459      0.2592
    178  O        -31.3510   -0.2280   23.4080 O.2   459  ALA459     -0.2718
    179  CB       -32.0540   -3.4030   23.0870 C.3   459  ALA459      0.0304
    180  N        -29.5960   -1.5120   24.0090 N.am  460  ASN460     -0.1974
    181  CA       -29.2040   -0.7260   25.1790 C.3   460  ASN460      0.1688
    182  C        -27.9620    0.1050   24.9280 C.2   460  ASN460      0.2292
    183  O        -27.6600    1.0270   25.6840 O.2   460  ASN460     -0.2864
    184  CB       -28.9430   -1.6540   26.3500 C.3   460  ASN460      0.1181
    185  CG       -30.2110   -2.2210   26.9050 C.2   460  ASN460      0.2629
    186  OD1      -31.2490   -1.5500   26.9020 O.2   460  ASN460     -0.2716
    187  ND2      -30.1660   -3.4790   27.3200 N.am  460  ASN460     -0.0877
@<TRIPOS>BOND
     1   148   149    1
     2    89    88    2
     3    44    45   ar
     4    44    42   ar
     5   152   149    1
     6   152   153    1
     7    45    43   ar
     8    82    83    1
     9   143   142    1
    10   143   144    2
    11   155   153   ar
    12   155   157   ar
    13   149   150    1
    14   142   141    1
    15   142   145    1
    16   150   151    2
    17   153   154   ar
    18    88    87    1
    19    42    39   ar
    20    83    84    1
    21    86    84   am
    22    86    87    1
    23   157   158   ar
    24    43    41   ar
    25    26    24    1
    26    84    85    2
    27   146   145    1
    28    87    90    1
    29   154   156   ar
    30   145   147    1
    31    90    92    1
    32    90    91    1
    33   135   134    2
    34    39    41   ar
    35    39    37   ar
    36   134   133    1
    37    41    40   ar
    38   158   156   ar
    39    24    25    1
    40    24    21    1
    41   127   126    2
    42   159   160    1
    43    37    36    1
    44    37    38   ar
    45    21    20    1
    46    21    22    1
    47    36    33    1
    48   168   169    1
    49   168   165    1
    50    40    38   ar
    51   133   132    1
    52   133   136    1
    53   126   125    1
    54    20    16   am
    55   171   169   ar
    56   171   173   ar
    57   169   170   ar
    58   164   165    1
    59   164   161   am
    60    32    33    1
    61   173   174   ar
    62    16    17    2
    63    16    15    1
    64   160   163    1
    65   160   161    1
    66    33    34    1
    67   136   137    1
    68   165   166    1
    69    15    14    1
    70    15    18    1
    71   128   125    1
    72   128   129    1
    73    23    22    2
    74    22    27   am
    75   170   172   ar
    76   125   124    1
    77   174   172   ar
    78   161   162    2
    79   166   167    2
    80   105   102    1
    81   104   103    2
    82   131   129    1
    83   130   129    1
    84    27    28    1
    85   175   176    1
    86    34    35    2
    87    34    46   am
    88   124   115   am
    89   103   102    1
    90    18    19    1
    91   137   138    1
    92   116   115    2
    93   102   101    1
    94   176   179    1
    95   176   177    1
    96   139   138    2
    97   115   114    1
    98    46    47    1
    99   101    95   am
   100   138   140   am
   101    93    94    1
   102    28    29    1
   103    28    31    1
   104    49    48    2
   105   113   114    1
   106    29    30    2
   107   109   108    2
   108   177   178    2
   109   177   180   am
   110   114   117    1
   111   108   107    1
   112    95    94    1
   113    95    96    2
   114    47    48    1
   115   180   181    1
   116    94    97    1
   117    48    50   am
   118    81    80    1
   119    97    98    1
   120     8     6    1
   121   111   110    1
   122   117   118    1
   123   182   181    1
   124   182   183    2
   125    79    80   ar
   126    79    77   ar
   127   107   110    1
   128   107   106    1
   129   181   184    1
   130     7     6    1
   131    54    55    1
   132    54    51    1
   133    80    78   ar
   134    50    51    1
   135   110   112    1
   136    98    99    1
   137    99   100    1
   138    51    52    1
   139     6     5    1
   140   118   119    1
   141    77    75   ar
   142   184   185    1
   143    78    76   ar
   144   186   185    2
   145   185   187   am
   146     5     2    1
   147    52    56   am
   148    52    53    2
   149   119   120    1
   150    73    72    2
   151    56    57    1
   152    75    76   ar
   153    75    74    1
   154   120   121    2
   155     2     1    1
   156     2     3    1
   157    72    71    1
   158    13    10    1
   159   121   122    1
   160   121   123    1
   161    66    68   ar
   162    66    65   ar
   163    68    69   ar
   164    74    71    1
   165    65    64    1
   166    65    67   ar
   167    57    58    1
   168    64    61    1
   169     4     3    2
   170    59    58    2
   171    69    67   ar
   172    71    70    1
   173    63    62    2
   174     9    10    1
   175    10    11    1
   176    61    62    1
   177    61    60    1
   178    11    12    2
