@<TRIPOS>MOLECULE
tmp/5xwzD00.pdb
 90 87 0 0 0
SMALL
GASTEIGER

@<TRIPOS>ATOM
      1  N         93.2530    7.9280   36.1490 N.3    31  ASP31      -0.1225
      2  CA        94.3900    7.4960   36.9910 C.3    31  ASP31       0.1805
      3  C         94.4810    5.9700   37.0850 C.2    31  ASP31       0.2598
      4  O         93.6960    5.2460   36.4720 O.2    31  ASP31      -0.2718
      5  CB        94.2310    8.0970   38.3790 C.3    31  ASP31       0.1424
      6  CG        92.9080    7.6690   39.0240 C.2    31  ASP31       0.3668
      7  OD1       92.8420    6.5120   39.4710 O.co2  31  ASP31      -0.2456
      8  OD2       91.9120    8.4060   38.8800 O.co2  31  ASP31      -0.2456
      9  N         95.4710    5.4580   37.8040 N.am   32  GLY32      -0.1942
     10  CA        95.7320    4.0260   37.7520 C.3    32  GLY32       0.2014
     11  C         94.5900    3.1390   38.2730 C.2    32  GLY32       0.2638
     12  O         94.4650    1.9560   37.8930 O.2    32  GLY32      -0.2714
     13  N         93.7240    3.7170   39.0970 N.am   33  LEU33      -0.1977
     14  CA        92.5670    2.9700   39.5820 C.3    33  LEU33       0.1596
     15  C         91.5340    2.6990   38.4830 C.2    33  LEU33       0.2287
     16  O         90.6680    1.8380   38.6390 O.2    33  LEU33      -0.2864
     17  CB        91.9310    3.7120   40.7390 C.3    33  LEU33       0.0297
     18  CG        92.8420    4.0290   41.9260 C.3    33  LEU33       0.0022
     19  CD1       92.0350    4.6300   43.0780 C.3    33  LEU33       0.0001
     20  CD2       93.5730    2.7620   42.3380 C.3    33  LEU33       0.0001
     21  N         98.6670   10.3000   36.7390 N.3   102  SER102     -0.1217
     22  CA        99.3670    9.1060   37.1860 C.3   102  SER102      0.1889
     23  C         99.7040    8.2210   35.9910 C.2   102  SER102      0.2288
     24  O        100.2990    8.7060   35.0050 O.2   102  SER102     -0.2866
     25  CB        98.5550    8.3570   38.2610 C.3   102  SER102      0.2089
     26  OG        99.4600    7.8250   39.2240 O.3   102  SER102     -0.2183
     27  N         95.5810    0.4160   50.0800 N.3   150  MET150     -0.1245
     28  CA        95.5230    1.3060   48.9190 C.3   150  MET150      0.1570
     29  C         94.2880    2.1740   48.9400 C.2   150  MET150      0.2261
     30  O         94.3030    3.2870   48.4410 O.2   150  MET150     -0.2867
     31  CB        95.5910    0.5140   47.6120 C.3   150  MET150      0.0387
     32  CG        96.9490   -0.1040   47.3490 C.3   150  MET150      0.0595
     33  SD        98.3490    1.0540   47.4190 S.3   150  MET150     -0.1393
     34  CE        97.7860    2.3490   46.3100 C.3   150  MET150      0.0692
     35  N         95.4940    5.0010   51.2160 N.3   153  VAL153     -0.1231
     36  CA        96.4470    5.8060   50.4210 C.3   153  VAL153      0.1692
     37  C         95.7230    6.7090   49.4390 C.2   153  VAL153      0.2592
     38  O         95.9710    7.9140   49.4100 O.2   153  VAL153     -0.2718
     39  CB        97.4170    4.9250   49.6270 C.3   153  VAL153      0.0266
     40  CG1       98.1810    5.7540   48.5850 C.3   153  VAL153      0.0020
     41  CG2       98.3720    4.2140   50.5640 C.3   153  VAL153      0.0020
     42  N         94.8050    6.1450   48.6540 N.am  154  SER154     -0.1952
     43  CA        94.0560    6.9290   47.6760 C.3   154  SER154      0.1924
     44  C         93.1990    8.0080   48.2770 C.2   154  SER154      0.2314
     45  O         93.1510    9.1250   47.7850 O.2   154  SER154     -0.2863
     46  CB        93.2170    6.0180   46.7610 C.3   154  SER154      0.2116
     47  OG        94.0500    4.9750   46.2340 O.3   154  SER154     -0.2180
     48  N         95.4080   10.8300   49.2470 N.3   157  MET157     -0.1245
     49  CA        95.8500   11.5920   48.0780 C.3   157  MET157      0.1570
     50  C         94.7380   12.3950   47.3920 C.2   157  MET157      0.2261
     51  O         94.9790   13.1090   46.4090 O.2   157  MET157     -0.2867
     52  CB        96.5480   10.6330   47.0850 C.3   157  MET157      0.0387
     53  CG        97.8320   10.0280   47.6180 C.3   157  MET157      0.0595
     54  SD        98.5430    8.9220   46.4100 S.3   157  MET157     -0.1393
     55  CE        99.3060   10.0760   45.2620 C.3   157  MET157      0.0692
     56  N         95.8560   -3.2190   40.2910 N.3   182  TRP182     -0.1241
     57  CA        96.7470   -2.0540   40.1730 C.3   182  TRP182      0.1605
     58  C         98.0960   -2.3760   40.8370 C.2   182  TRP182      0.2264
     59  O         99.1510   -2.3090   40.2140 O.2   182  TRP182     -0.2867
     60  CB        96.1380   -0.8120   40.8220 C.3   182  TRP182      0.0550
     61  CG        97.0680    0.3460   40.7900 C.ar  182  TRP182      0.0003
     62  CD1       97.2700    1.2040   39.7370 C.ar  182  TRP182      0.0946
     63  CD2       98.0620    0.6720   41.7650 C.ar  182  TRP182      0.0152
     64  NE1       98.2860    2.0890   40.0380 N.ar  182  TRP182     -0.2442
     65  CE2       98.8160    1.7480   41.2510 C.ar  182  TRP182      0.0810
     66  CE3       98.4340    0.1170   42.9950 C.ar  182  TRP182      0.0012
     67  CZ2       99.8540    2.3470   41.9710 C.ar  182  TRP182      0.0191
     68  CZ3       99.4320    0.7370   43.7250 C.ar  182  TRP182      0.0001
     69  CH2      100.1750    1.8020   43.1760 C.ar  182  TRP182      0.0015
     70  N         95.9080   14.4220   43.9430 N.3   240  HIS240     -0.1226
     71  CA        96.0490   13.3830   42.9100 C.3   240  HIS240      0.1752
     72  C         94.7580   13.1520   42.1250 C.2   240  HIS240      0.2596
     73  O         94.7700   12.4430   41.1050 O.2   240  HIS240     -0.2718
     74  CB        96.5020   12.0800   43.5460 C.3   240  HIS240      0.0759
     75  CG        97.1770   11.1420   42.5970 C.ar  240  HIS240      0.0818
     76  ND1       98.2810   11.5050   41.8570 N.ar  240  HIS240     -0.2268
     77  CD2       96.9590    9.8290   42.3310 C.ar  240  HIS240      0.1154
     78  CE1       98.7520   10.4440   41.2260 C.ar  240  HIS240      0.1986
     79  NE2       97.9220    9.4350   41.4310 N.ar  240  HIS240     -0.2212
     80  N         93.6390   13.6980   42.6160 N.am  241  PHE241     -0.1976
     81  CA        92.3610   13.4970   41.9410 C.3   241  PHE241      0.1639
     82  C         91.5990   14.8120   41.7440 C.2   241  PHE241      0.2290
     83  O         90.4870   14.9900   42.3030 O.2   241  PHE241     -0.2864
     84  CB        91.5070   12.4860   42.7450 C.3   241  PHE241      0.0560
     85  CG        92.1540   11.1300   42.9550 C.ar  241  PHE241     -0.0200
     86  CD1       91.9770   10.1150   42.0220 C.ar  241  PHE241     -0.0042
     87  CD2       92.9180   10.8620   44.0770 C.ar  241  PHE241     -0.0042
     88  CE1       92.5550    8.8740   42.2180 C.ar  241  PHE241     -0.0003
     89  CE2       93.4470    9.6100   44.3170 C.ar  241  PHE241     -0.0003
     90  CZ        93.3100    8.6220   43.3500 C.ar  241  PHE241     -0.0000
@<TRIPOS>BOND
     1    24    23    2
     2    23    22    1
     3     1     2    1
     4     4     3    2
     5    21    22    1
     6     2     3    1
     7     2     5    1
     8     3     9   am
     9    22    25    1
    10    10     9    1
    11    10    11    1
    12    12    11    2
    13    25    26    1
    14    11    13   am
    15     5     6    1
    16    15    16    2
    17    15    14    1
    18     8     6   ar
    19     6     7   ar
    20    13    14    1
    21    14    17    1
    22    62    64   ar
    23    62    61   ar
    24    64    65   ar
    25    57    56    1
    26    57    60    1
    27    57    58    1
    28    59    58    2
    29    17    18    1
    30    61    60    1
    31    61    63   ar
    32    73    72    2
    33    78    79   ar
    34    78    76   ar
    35    65    63   ar
    36    65    67   ar
    37    79    77   ar
    38    82    81    1
    39    82    83    2
    40    63    66   ar
    41    76    75   ar
    42    18    20    1
    43    18    19    1
    44    81    80    1
    45    81    84    1
    46    67    69   ar
    47    86    88   ar
    48    86    85   ar
    49    72    80   am
    50    72    71    1
    51    88    90   ar
    52    77    75   ar
    53    75    74    1
    54    84    85    1
    55    71    74    1
    56    71    70    1
    57    85    87   ar
    58    66    68   ar
    59    69    68   ar
    60    90    89   ar
    61    87    89   ar
    62    55    54    1
    63    47    46    1
    64    34    33    1
    65    51    50    2
    66    54    53    1
    67    46    43    1
    68    52    53    1
    69    52    49    1
    70    32    33    1
    71    32    31    1
    72    50    49    1
    73    31    28    1
    74    43    44    1
    75    43    42    1
    76    45    44    2
    77    49    48    1
    78    30    29    2
    79    40    39    1
    80    42    37   am
    81    28    29    1
    82    28    27    1
    83    38    37    2
    84    37    36    1
    85    39    36    1
    86    39    41    1
    87    36    35    1
