@<TRIPOS>MOLECULE
tmp/5xxdA01.pdb
 187 181 0 0 0
SMALL
GASTEIGER

@<TRIPOS>ATOM
      1  N         18.0190   14.0890  121.4060 N.3   178  CYS178     -0.1221
      2  CA        17.6220   13.5700  122.7080 C.3   178  CYS178      0.1808
      3  C         16.2900   12.8290  122.6830 C.2   178  CYS178      0.2601
      4  O         15.7390   12.5350  123.7490 O.2   178  CYS178     -0.2717
      5  CB        17.5740   14.7080  123.7290 C.3   178  CYS178      0.0970
      6  SG        16.1270   15.7750  123.5950 S.3   178  CYS178     -0.0800
      7  N         15.7590   12.5120  121.5000 N.am  179  ASN179     -0.1960
      8  CA        14.5480   11.7090  121.4020 C.3   179  ASN179      0.1819
      9  C         14.6490   10.5770  120.3910 C.2   179  ASN179      0.2622
     10  O         13.6730    9.8400  120.2150 O.2   179  ASN179     -0.2715
     11  CB        13.3380   12.5910  121.0590 C.3   179  ASN179      0.1195
     12  CG        12.9690   13.5330  122.1850 C.2   179  ASN179      0.2630
     13  OD1       12.3860   13.1190  123.1870 O.2   179  ASN179     -0.2716
     14  ND2       13.3070   14.8080  122.0280 N.am  179  ASN179     -0.0877
     15  N         15.7930   10.4090  119.7340 N.am  180  SER180     -0.1936
     16  CA        15.9460    9.3480  118.7490 C.3   180  SER180      0.2055
     17  C         15.9510    7.9810  119.4190 C.2   180  SER180      0.2643
     18  O         16.4580    7.8160  120.5330 O.2   180  SER180     -0.2714
     19  CB        17.2370    9.5400  117.9550 C.3   180  SER180      0.2130
     20  OG        17.0260   10.3820  116.8370 O.3   180  SER180     -0.2179
     21  N         15.3790    6.9990  118.7300 N.am  181  PHE181     -0.1959
     22  CA        15.3910    5.6090  119.1650 C.3   181  PHE181      0.1771
     23  C         16.2270    4.8010  118.1850 C.2   181  PHE181      0.2620
     24  O         15.9020    4.7370  116.9940 O.2   181  PHE181     -0.2715
     25  CB        13.9750    5.0340  119.2420 C.3   181  PHE181      0.0574
     26  CG        13.1480    5.5910  120.3630 C.ar  181  PHE181     -0.0200
     27  CD1       12.9560    4.8620  121.5250 C.ar  181  PHE181     -0.0042
     28  CD2       12.5450    6.8320  120.2500 C.ar  181  PHE181     -0.0042
     29  CE1       12.1910    5.3640  122.5580 C.ar  181  PHE181     -0.0003
     30  CE2       11.7770    7.3400  121.2800 C.ar  181  PHE181     -0.0003
     31  CZ        11.6010    6.6040  122.4350 C.ar  181  PHE181     -0.0000
     32  N         17.3020    4.1980  118.6790 N.am  182  THR182     -0.1951
     33  CA        17.9890    3.1810  117.9000 C.3   182  THR182      0.1897
     34  C         17.0710    1.9740  117.7570 C.2   182  THR182      0.2313
     35  O         16.4550    1.5350  118.7310 O.2   182  THR182     -0.2863
     36  CB        19.3020    2.7820  118.5730 C.3   182  THR182      0.1794
     37  OG1       20.1200    3.9440  118.7580 O.3   182  THR182     -0.2208
     38  CG2       20.0540    1.7680  117.7230 C.3   182  THR182      0.0378
     39  N         16.6820   -1.9670  116.9100 N.3   184  CYS184     -0.1235
     40  CA        17.4150   -3.2220  116.8750 C.3   184  CYS184      0.1677
     41  C         16.4770   -4.3340  116.4270 C.2   184  CYS184      0.2270
     42  O         15.2970   -4.3470  116.7920 O.2   184  CYS184     -0.2867
     43  CB        18.0170   -3.5480  118.2460 C.3   184  CYS184      0.0956
     44  SG        19.3170   -2.4030  118.7850 S.3   184  CYS184     -0.0801
     45  N         18.8910   -8.5390  118.0770 N.3   188  MET188     -0.1245
     46  CA        19.5430   -7.4190  118.7570 C.3   188  MET188      0.1570
     47  C         20.7250   -6.8950  117.9440 C.2   188  MET188      0.2261
     48  O         21.8150   -6.6610  118.4670 O.2   188  MET188     -0.2867
     49  CB        19.9680   -7.7970  120.1770 C.3   188  MET188      0.0387
     50  CG        18.8170   -7.8480  121.1680 C.3   188  MET188      0.0595
     51  SD        17.8410   -6.3290  121.1910 S.3   188  MET188     -0.1393
     52  CE        16.8810   -6.5640  122.6850 C.3   188  MET188      0.0692
     53  N         21.7500   -3.6260  115.6680 N.3   190  GLU190     -0.1245
     54  CA        21.3410   -2.2520  115.3930 C.3   190  GLU190      0.1567
     55  C         21.1090   -2.1000  113.8950 C.2   190  GLU190      0.2260
     56  O         22.0480   -2.2060  113.0990 O.2   190  GLU190     -0.2867
     57  CB        22.3950   -1.2700  115.8950 C.3   190  GLU190      0.0388
     58  CG        22.3250    0.1000  115.2450 C.3   190  GLU190      0.1160
     59  CD        23.1820    1.1290  115.9540 C.2   190  GLU190      0.3649
     60  OE1       23.7510    0.8030  117.0170 O.co2 190  GLU190     -0.2457
     61  OE2       23.2840    2.2660  115.4470 O.co2 190  GLU190     -0.2457
     62  N          8.6030    8.9210  123.4700 N.3   200  SER200     -0.1217
     63  CA         9.6190    9.8570  123.9370 C.3   200  SER200      0.1889
     64  C          9.2340   10.5650  125.2290 C.2   200  SER200      0.2288
     65  O         10.0010   11.4130  125.6920 O.2   200  SER200     -0.2866
     66  CB         9.9210   10.8930  122.8540 C.3   200  SER200      0.2089
     67  OG        10.5370   10.2900  121.7300 O.3   200  SER200     -0.2183
     68  N          8.9420    8.8300  127.9800 N.3   202  LEU202     -0.1245
     69  CA         9.5590    8.0100  129.0140 C.3   202  LEU202      0.1561
     70  C         10.9000    8.6010  129.4300 C.2   202  LEU202      0.2260
     71  O         11.7980    8.7760  128.5990 O.2   202  LEU202     -0.2867
     72  CB         9.7350    6.5800  128.5120 C.3   202  LEU202      0.0270
     73  CG         8.4430    5.7870  128.3030 C.3   202  LEU202      0.0019
     74  CD1        8.5950    4.7930  127.1660 C.3   202  LEU202      0.0001
     75  CD2        8.0560    5.0740  129.5790 C.3   202  LEU202      0.0001
     76  N         10.4230   -1.5970  129.5490 N.3   211  SER211     -0.1202
     77  CA        11.3890   -1.9660  128.5260 C.3   211  SER211      0.2020
     78  C         10.7870   -1.7720  127.1440 C.2   211  SER211      0.2618
     79  O          9.5680   -1.8450  126.9600 O.2   211  SER211     -0.2717
     80  CB        11.8620   -3.4140  128.6860 C.3   211  SER211      0.2103
     81  OG        13.0340   -3.6390  127.9230 O.3   211  SER211     -0.2182
     82  N         11.6660   -1.5270  126.1760 N.am  212  ILE212     -0.1979
     83  CA        11.3030   -1.3550  124.7750 C.3   212  ILE212      0.1595
     84  C         11.8240   -2.5570  124.0000 C.2   212  ILE212      0.2287
     85  O         12.9540   -3.0080  124.2220 O.2   212  ILE212     -0.2864
     86  CB        11.8810   -0.0430  124.2020 C.3   212  ILE212      0.0276
     87  CG1       11.0230    1.1670  124.5860 C.3   212  ILE212      0.0022
     88  CG2       12.0090   -0.1170  122.6880 C.3   212  ILE212      0.0022
     89  CD1        9.6300    0.8330  125.0460 C.3   212  ILE212      0.0001
     90  N         11.5900   -4.1820  119.7670 N.3   214  PHE214     -0.1241
     91  CA        11.2590   -3.8240  118.3960 C.3   214  PHE214      0.1605
     92  C         10.8840   -5.0600  117.5910 C.2   214  PHE214      0.2264
     93  O         11.5610   -6.0910  117.6610 O.2   214  PHE214     -0.2867
     94  CB        12.4300   -3.1040  117.7210 C.3   214  PHE214      0.0534
     95  CG        12.6730   -1.7190  118.2440 C.ar  214  PHE214     -0.0203
     96  CD1       11.8000   -0.6890  117.9400 C.ar  214  PHE214     -0.0042
     97  CD2       13.7730   -1.4460  119.0410 C.ar  214  PHE214     -0.0042
     98  CE1       12.0180    0.5870  118.4170 C.ar  214  PHE214     -0.0003
     99  CE2       13.9970   -0.1710  119.5230 C.ar  214  PHE214     -0.0003
    100  CZ        13.1180    0.8480  119.2110 C.ar  214  PHE214     -0.0000
    101  N         12.4530    3.8310  131.2540 N.3   235  ILE235     -0.1231
    102  CA        13.2480    2.9170  130.4470 C.3   235  ILE235      0.1692
    103  C         14.6980    3.3700  130.5280 C.2   235  ILE235      0.2592
    104  O         14.9940    4.5390  130.7860 O.2   235  ILE235     -0.2718
    105  CB        12.7870    2.8560  128.9740 C.3   235  ILE235      0.0266
    106  CG1       12.9110    4.2330  128.3190 C.3   235  ILE235      0.0019
    107  CG2       11.3650    2.3280  128.8740 C.3   235  ILE235      0.0020
    108  CD1       12.4320    4.2740  126.8870 C.3   235  ILE235      0.0001
    109  N         15.6090    2.4290  130.3080 N.am  236  CYS236     -0.1956
    110  CA        17.0320    2.7370  130.2980 C.3   236  CYS236      0.1843
    111  C         17.4360    3.1820  128.8980 C.2   236  CYS236      0.2625
    112  O         17.2880    2.4250  127.9330 O.2   236  CYS236     -0.2714
    113  CB        17.8590    1.5330  130.7420 C.3   236  CYS236      0.0997
    114  SG        19.6000    1.9260  130.9980 S.3   236  CYS236     -0.0797
    115  N         17.9420    4.4130  128.7910 N.am  237  TYR237     -0.1960
    116  CA        18.3670    4.9410  127.5000 C.3   237  TYR237      0.1771
    117  C         19.6110    4.2440  126.9680 C.2   237  TYR237      0.2619
    118  O         19.8620    4.2900  125.7590 O.2   237  TYR237     -0.2715
    119  CB        18.6590    6.4430  127.5980 C.3   237  TYR237      0.0574
    120  CG        17.4600    7.3390  127.8340 C.ar  237  TYR237     -0.0198
    121  CD1       16.1830    6.8140  127.9840 C.ar  237  TYR237     -0.0009
    122  CD2       17.6130    8.7200  127.9040 C.ar  237  TYR237     -0.0009
    123  CE1       15.0930    7.6370  128.2000 C.ar  237  TYR237      0.0417
    124  CE2       16.5300    9.5510  128.1190 C.ar  237  TYR237      0.0417
    125  CZ        15.2730    9.0040  128.2660 C.ar  237  TYR237      0.1957
    126  OH        14.1910    9.8260  128.4810 O.3   237  TYR237     -0.2866
    127  N         20.3890    3.6010  127.8340 N.am  238  LEU238     -0.1963
    128  CA        21.7530    3.2190  127.5130 C.3   238  LEU238      0.1728
    129  C         21.9350    1.7070  127.5300 C.2   238  LEU238      0.2616
    130  O         21.1360    0.9610  128.1020 O.2   238  LEU238     -0.2715
    131  CB        22.7410    3.8530  128.4990 C.3   238  LEU238      0.0311
    132  CG        22.5990    5.3580  128.7230 C.3   238  LEU238      0.0022
    133  CD1       23.5720    5.8270  129.7890 C.3   238  LEU238      0.0001
    134  CD2       22.8200    6.1110  127.4210 C.3   238  LEU238      0.0001
    135  N         23.0150    1.2770  126.8780 N.am  239  ASP239     -0.1971
    136  CA        23.5040   -0.0880  127.0080 C.3   239  ASP239      0.1709
    137  C         23.7700   -0.4060  128.4740 C.2   239  ASP239      0.2293
    138  O         24.2930    0.4260  129.2200 O.2   239  ASP239     -0.2864
    139  CB        24.7840   -0.2490  126.1800 C.3   239  ASP239      0.1436
    140  CG        25.3480   -1.6600  126.2130 C.2   239  ASP239      0.3671
    141  OD1       24.7100   -2.5670  126.7870 O.co2 239  ASP239     -0.2456
    142  OD2       26.4510   -1.8580  125.6590 O.co2 239  ASP239     -0.2456
    143  N         21.7580   13.9290  126.3880 N.3   255  TYR255     -0.1241
    144  CA        20.4600   14.1790  126.9960 C.3   255  TYR255      0.1605
    145  C         20.4420   15.3300  127.9920 C.2   255  TYR255      0.2264
    146  O         19.3540   15.7110  128.4410 O.2   255  TYR255     -0.2867
    147  CB        19.9470   12.9010  127.6780 C.3   255  TYR255      0.0534
    148  CG        19.7910   11.7500  126.7090 C.ar  255  TYR255     -0.0201
    149  CD1       18.7310   11.7140  125.8120 C.ar  255  TYR255     -0.0009
    150  CD2       20.7150   10.7120  126.6730 C.ar  255  TYR255     -0.0009
    151  CE1       18.5870   10.6720  124.9180 C.ar  255  TYR255      0.0417
    152  CE2       20.5790    9.6630  125.7800 C.ar  255  TYR255      0.0417
    153  CZ        19.5120    9.6500  124.9050 C.ar  255  TYR255      0.1957
    154  OH        19.3660    8.6120  124.0120 O.3   255  TYR255     -0.2866
    155  N         31.1220   -4.7760  112.8710 N.3   295  LYS295     -0.1245
    156  CA        29.8490   -5.4450  113.1190 C.3   295  LYS295      0.1561
    157  C         28.6820   -4.6180  112.5970 C.2   295  LYS295      0.2260
    158  O         27.7090   -5.1700  112.0700 O.2   295  LYS295     -0.2867
    159  CB        29.6860   -5.7250  114.6130 C.3   295  LYS295      0.0271
    160  CG        28.3450   -6.3370  114.9920 C.3   295  LYS295      0.0035
    161  CD        28.2950   -6.6850  116.4700 C.3   295  LYS295      0.0206
    162  CE        27.0650   -6.0880  117.1330 C.3   295  LYS295      0.1093
    163  NZ        27.1100   -6.2260  118.6150 N.3   295  LYS295     -0.1314
    164  N         15.3310   -8.3780  131.1430 N.3   364  HIS364     -0.1227
    165  CA        15.8580   -7.4920  130.1220 C.3   364  HIS364      0.1737
    166  C         15.8270   -8.2060  128.7780 C.2   364  HIS364      0.2438
    167  O         16.2550   -9.3650  128.6890 O.2   364  HIS364     -0.2733
    168  CB        17.2960   -7.0540  130.4560 C.3   364  HIS364      0.0758
    169  CG        17.7340   -5.8170  129.7350 C.ar  364  HIS364      0.0818
    170  ND1       18.0730   -5.8150  128.3990 N.ar  364  HIS364     -0.2268
    171  CD2       17.8860   -4.5420  130.1630 C.ar  364  HIS364      0.1154
    172  CE1       18.4150   -4.5910  128.0360 C.ar  364  HIS364      0.1986
    173  NE2       18.3100   -3.8000  129.0880 N.ar  364  HIS364     -0.2212
    174  N         15.3310   -7.5630  127.7180 N.am  365  PRO365     -0.2718
    175  CA        15.2200   -8.2620  126.4260 C.3   365  PRO365      0.1535
    176  C         16.5560   -8.6950  125.8540 C.2   365  PRO365      0.2598
    177  O         16.6070   -9.6670  125.0900 O.2   365  PRO365     -0.2715
    178  CB        14.5270   -7.2310  125.5240 C.3   365  PRO365      0.0310
    179  CG        14.7580   -5.9120  126.1810 C.3   365  PRO365      0.0237
    180  CD        14.8510   -6.1730  127.6520 C.3   365  PRO365      0.0939
    181  N         17.6440   -8.0060  126.2020 N.am  366  VAL366     -0.1978
    182  CA        18.9510   -8.3690  125.6660 C.3   366  VAL366      0.1596
    183  C         19.4050   -9.7090  126.2290 C.2   366  VAL366      0.2287
    184  O         19.9870  -10.5340  125.5140 O.2   366  VAL366     -0.2864
    185  CB        19.9670   -7.2510  125.9560 C.3   366  VAL366      0.0276
    186  CG1       21.3850   -7.7040  125.6260 C.3   366  VAL366      0.0022
    187  CG2       19.5980   -6.0090  125.1800 C.3   366  VAL366      0.0022
@<TRIPOS>BOND
     1   158   157    2
     2   157   156    1
     3   155   156    1
     4    56    55    2
     5   156   159    1
     6    55    54    1
     7   159   160    1
     8   160   161    1
     9    58    57    1
    10    58    59    1
    11    54    53    1
    12    54    57    1
    13    61    59   ar
    14    59    60   ar
    15    41    42    2
    16    41    40    1
    17   161   162    1
    18    20    19    1
    19    40    39    1
    20    40    43    1
    21    24    23    2
    22   162   163    1
    23    92    93    2
    24    92    91    1
    25    94    95    1
    26    94    91    1
    27    38    36    1
    28    34    33    1
    29    34    35    2
    30    33    36    1
    31    33    32    1
    32    96    95   ar
    33    96    98   ar
    34    47    48    2
    35    47    46    1
    36    19    16    1
    37    45    46    1
    38    23    32   am
    39    23    22    1
    40    95    97   ar
    41    43    44    1
    42    91    90    1
    43    98   100   ar
    44    36    37    1
    45    21    22    1
    46    21    17   am
    47    16    17    1
    48    16    15    1
    49    46    49    1
    50    97    99   ar
    51    22    25    1
    52   100    99   ar
    53    25    26    1
    54    17    18    2
    55    15     9   am
    56    49    50    1
    57    10     9    2
    58    28    26   ar
    59    28    30   ar
    60    26    27   ar
    61     9     8    1
    62    11     8    1
    63    11    12    1
    64    50    51    1
    65    51    52    1
    66    30    31   ar
    67     8     7    1
    68     1     2    1
    69     7     3   am
    70    27    29   ar
    71    67    66    1
    72    14    12   am
    73    12    13    2
    74    31    29   ar
    75     3     2    1
    76     3     4    2
    77    88    86    1
    78     2     5    1
    79    66    63    1
    80    62    63    1
    81     6     5    1
    82    63    64    1
    83    84    85    2
    84    84    83    1
    85   154   153    1
    86    86    87    1
    87    86    83    1
    88    87    89    1
    89    83    82    1
    90   153   151   ar
    91   153   152   ar
    92   151   149   ar
    93   177   176    2
    94   187   185    1
    95    64    65    2
    96   184   183    2
    97   178   179    1
    98   178   175    1
    99   186   185    1
   100   142   140   ar
   101   182   185    1
   102   182   181    1
   103   182   183    1
   104   118   117    2
   105   152   150   ar
   106   149   148   ar
   107   176   181   am
   108   176   175    1
   109    82    78   am
   110   139   140    1
   111   139   136    1
   112   179   180    1
   113   140   141   ar
   114   143   144    1
   115   175   174    1
   116   150   148   ar
   117   148   147    1
   118   135   136    1
   119   135   129   am
   120   108   106    1
   121    79    78    2
   122   117   116    1
   123   117   127   am
   124   144   147    1
   125   144   145    1
   126   136   137    1
   127    78    77    1
   128    74    73    1
   129   134   132    1
   130   116   119    1
   131   116   115    1
   132   128   129    1
   133   128   127    1
   134   128   131    1
   135   129   130    2
   136   119   120    1
   137   180   174    1
   138   174   166   am
   139   120   122   ar
   140   120   121   ar
   141   122   124   ar
   142    81    80    1
   143   112   111    2
   144    68    69    1
   145   121   123   ar
   146   145   146    2
   147   172   170   ar
   148   172   173   ar
   149   124   125   ar
   150   123   125   ar
   151   125   126    1
   152    73    72    1
   153    73    75    1
   154   106   105    1
   155   170   169   ar
   156   137   138    2
   157   131   132    1
   158    72    69    1
   159    77    80    1
   160    77    76    1
   161    71    70    2
   162   167   166    2
   163   132   133    1
   164   166   165    1
   165   115   111   am
   166   107   105    1
   167   111   110    1
   168   105   102    1
   169    69    70    1
   170   173   171   ar
   171   169   171   ar
   172   169   168    1
   173   165   168    1
   174   165   164    1
   175   110   109    1
   176   110   113    1
   177   109   103   am
   178   102   103    1
   179   102   101    1
   180   103   104    2
   181   113   114    1
