@<TRIPOS>MOLECULE
tmp/5xxgA00.pdb
 241 234 0 0 0
SMALL
GASTEIGER

@<TRIPOS>ATOM
      1  N         17.9400   14.2190  121.6870 N.3   178  CYS178     -0.1221
      2  CA        17.5620   13.6400  122.9650 C.3   178  CYS178      0.1808
      3  C         16.2290   12.9050  122.9030 C.2   178  CYS178      0.2601
      4  O         15.6660   12.5680  123.9490 O.2   178  CYS178     -0.2717
      5  CB        17.5540   14.7200  124.0430 C.3   178  CYS178      0.0970
      6  SG        16.2640   15.9700  123.8640 S.3   178  CYS178     -0.0800
      7  N         15.7270   12.6190  121.6990 N.am  179  ASN179     -0.1960
      8  CA        14.5320   11.7930  121.5600 C.3   179  ASN179      0.1819
      9  C         14.6210   10.7190  120.4810 C.2   179  ASN179      0.2622
     10  O         13.6070   10.0740  120.2190 O.2   179  ASN179     -0.2715
     11  CB        13.2980   12.6650  121.2750 C.3   179  ASN179      0.1195
     12  CG        12.9460   13.5690  122.4460 C.2   179  ASN179      0.2630
     13  OD1       12.4380   13.1040  123.4630 O.2   179  ASN179     -0.2716
     14  ND2       13.2530   14.8600  122.3210 N.am  179  ASN179     -0.0877
     15  N         15.7720   10.5060  119.8450 N.am  180  SER180     -0.1936
     16  CA        15.8860    9.4310  118.8620 C.3   180  SER180      0.2055
     17  C         15.8900    8.0850  119.5650 C.2   180  SER180      0.2643
     18  O         16.4970    7.9360  120.6260 O.2   180  SER180     -0.2714
     19  CB        17.1740    9.5610  118.0430 C.3   180  SER180      0.2130
     20  OG        17.1420   10.7110  117.2240 O.3   180  SER180     -0.2179
     21  N         15.2180    7.0980  118.9690 N.am  181  PHE181     -0.1959
     22  CA        15.2750    5.7140  119.4280 C.3   181  PHE181      0.1771
     23  C         16.1210    4.9080  118.4530 C.2   181  PHE181      0.2620
     24  O         15.8950    4.9570  117.2380 O.2   181  PHE181     -0.2715
     25  CB        13.8810    5.0820  119.5320 C.3   181  PHE181      0.0574
     26  CG        13.0570    5.5950  120.6810 C.ar  181  PHE181     -0.0200
     27  CD1       13.0410    4.9380  121.8980 C.ar  181  PHE181     -0.0042
     28  CD2       12.3010    6.7480  120.5420 C.ar  181  PHE181     -0.0042
     29  CE1       12.2670    5.4190  122.9520 C.ar  181  PHE181     -0.0003
     30  CE2       11.5250    7.2280  121.5950 C.ar  181  PHE181     -0.0003
     31  CZ        11.5120    6.5630  122.7990 C.ar  181  PHE181     -0.0000
     32  N         17.1000    4.1890  118.9840 N.am  182  THR182     -0.1951
     33  CA        17.8050    3.1700  118.2170 C.3   182  THR182      0.1897
     34  C         16.9260    1.9290  118.0830 C.2   182  THR182      0.2313
     35  O         16.4310    1.3930  119.0820 O.2   182  THR182     -0.2863
     36  CB        19.1230    2.8030  118.8940 C.3   182  THR182      0.1794
     37  OG1       19.9030    3.9870  119.0580 O.3   182  THR182     -0.2208
     38  CG2       19.8920    1.7990  118.0330 C.3   182  THR182      0.0378
     39  N         16.3500   -1.9890  117.0080 N.3   184  CYS184     -0.1235
     40  CA        17.1130   -3.2100  116.8300 C.3   184  CYS184      0.1677
     41  C         16.2150   -4.3210  116.3220 C.2   184  CYS184      0.2270
     42  O         15.0100   -4.3490  116.6130 O.2   184  CYS184     -0.2867
     43  CB        17.7900   -3.6160  118.1200 C.3   184  CYS184      0.0956
     44  SG        19.0670   -2.4090  118.5370 S.3   184  CYS184     -0.0801
     45  N         18.8080   -8.3040  118.3630 N.3   188  MET188     -0.1245
     46  CA        19.3820   -7.1840  119.1140 C.3   188  MET188      0.1570
     47  C         20.5680   -6.5610  118.3880 C.2   188  MET188      0.2261
     48  O         21.4730   -6.0140  119.0090 O.2   188  MET188     -0.2867
     49  CB        19.7830   -7.5770  120.5400 C.3   188  MET188      0.0387
     50  CG        18.6250   -7.7300  121.5400 C.3   188  MET188      0.0595
     51  SD        17.4770   -6.3290  121.6000 S.3   188  MET188     -0.1393
     52  CE        16.7140   -6.5340  123.2010 C.3   188  MET188      0.0692
     53  N         21.6320   -3.4660  116.0390 N.3   190  GLU190     -0.1245
     54  CA        21.1340   -2.1310  115.6970 C.3   190  GLU190      0.1567
     55  C         20.9410   -1.9940  114.1900 C.2   190  GLU190      0.2260
     56  O         21.8820   -2.1810  113.4120 O.2   190  GLU190     -0.2867
     57  CB        22.0960   -1.0500  116.1840 C.3   190  GLU190      0.0388
     58  CG        22.2470   -0.9840  117.6960 C.3   190  GLU190      0.1160
     59  CD        23.0710    0.2040  118.1500 C.2   190  GLU190      0.3649
     60  OE1       23.4960    1.0080  117.2830 O.co2 190  GLU190     -0.2457
     61  OE2       23.2920    0.3270  119.3770 O.co2 190  GLU190     -0.2457
     62  N          6.1650    7.8010  123.1580 N.3   199  ILE199     -0.1231
     63  CA         7.1400    7.0320  123.9270 C.3   199  ILE199      0.1692
     64  C          8.2230    7.9290  124.5020 C.2   199  ILE199      0.2592
     65  O          8.8010    7.6220  125.5570 O.2   199  ILE199     -0.2718
     66  CB         7.7550    5.9250  123.0510 C.3   199  ILE199      0.0266
     67  CG1        6.6500    5.1380  122.3570 C.3   199  ILE199      0.0019
     68  CG2        8.6100    4.9690  123.9090 C.3   199  ILE199      0.0020
     69  CD1        5.7760    4.3520  123.3240 C.3   199  ILE199      0.0001
     70  N          8.5180    9.0460  123.8340 N.am  200  SER200     -0.1952
     71  CA         9.5260    9.9810  124.3190 C.3   200  SER200      0.1924
     72  C          9.1270   10.6210  125.6430 C.2   200  SER200      0.2314
     73  O          9.9340   11.3230  126.2550 O.2   200  SER200     -0.2863
     74  CB         9.7870   11.0800  123.2910 C.3   200  SER200      0.2116
     75  OG        10.6170   10.6180  122.2540 O.3   200  SER200     -0.2180
     76  N          8.8070    8.9820  128.2920 N.3   202  LEU202     -0.1245
     77  CA         9.4160    8.1900  129.3630 C.3   202  LEU202      0.1561
     78  C         10.7620    8.7700  129.7650 C.2   202  LEU202      0.2260
     79  O         11.6810    8.8560  128.9430 O.2   202  LEU202     -0.2867
     80  CB         9.5930    6.7280  128.9350 C.3   202  LEU202      0.0270
     81  CG         8.3080    5.9040  128.7250 C.3   202  LEU202      0.0019
     82  CD1        8.4850    4.9670  127.5580 C.3   202  LEU202      0.0001
     83  CD2        7.9310    5.1120  129.9750 C.3   202  LEU202      0.0001
     84  N         10.2730   -1.5170  129.9840 N.3   211  SER211     -0.1202
     85  CA        11.2080   -1.8730  128.9290 C.3   211  SER211      0.2020
     86  C         10.4960   -1.7570  127.5870 C.2   211  SER211      0.2619
     87  O          9.2830   -1.9750  127.4920 O.2   211  SER211     -0.2717
     88  CB        11.7640   -3.2930  129.1480 C.3   211  SER211      0.2103
     89  OG        12.7470   -3.6080  128.1700 O.3   211  SER211     -0.2182
     90  N         11.2510   -1.3820  126.5530 N.am  212  ILE212     -0.1965
     91  CA        10.7380   -1.4280  125.1910 C.3   212  ILE212      0.1727
     92  C         11.4900   -2.4910  124.4010 C.2   212  ILE212      0.2616
     93  O         12.6530   -2.8040  124.6780 O.2   212  ILE212     -0.2715
     94  CB        10.8300   -0.0690  124.4730 C.3   212  ILE212      0.0290
     95  CG1       12.3010    0.2940  124.2440 C.3   212  ILE212      0.0022
     96  CG2       10.1110    0.9950  125.2530 C.3   212  ILE212      0.0023
     97  CD1       12.5010    1.5080  123.3830 C.3   212  ILE212      0.0001
     98  N         10.7950   -3.0600  123.4170 N.am  213  VAL213     -0.1963
     99  CA        11.3520   -4.0070  122.4570 C.3   213  VAL213      0.1727
    100  C         10.8280   -3.6190  121.0890 C.2   213  VAL213      0.2616
    101  O          9.7130   -3.1050  120.9550 O.2   213  VAL213     -0.2715
    102  CB        10.9740   -5.4870  122.7260 C.3   213  VAL213      0.0290
    103  CG1       11.7470   -6.0510  123.8900 C.3   213  VAL213      0.0023
    104  CG2        9.4670   -5.6220  122.9300 C.3   213  VAL213      0.0023
    105  N         11.6190   -3.8990  120.0660 N.am  214  PHE214     -0.1974
    106  CA        11.2360   -3.5950  118.6990 C.3   214  PHE214      0.1639
    107  C         10.9370   -4.8840  117.9570 C.2   214  PHE214      0.2290
    108  O         11.6390   -5.8830  118.1180 O.2   214  PHE214     -0.2864
    109  CB        12.3360   -2.8260  117.9680 C.3   214  PHE214      0.0560
    110  CG        12.6100   -1.4760  118.5490 C.ar  214  PHE214     -0.0200
    111  CD1       11.8680   -0.3710  118.1440 C.ar  214  PHE214     -0.0042
    112  CD2       13.6190   -1.3050  119.5030 C.ar  214  PHE214     -0.0042
    113  CE1       12.1140    0.8850  118.6890 C.ar  214  PHE214     -0.0003
    114  CE2       13.8630   -0.0650  120.0470 C.ar  214  PHE214     -0.0003
    115  CZ        13.1140    1.0390  119.6310 C.ar  214  PHE214     -0.0000
    116  N         12.2930    3.9180  131.6300 N.3   235  ILE235     -0.1231
    117  CA        13.0800    2.9670  130.8610 C.3   235  ILE235      0.1692
    118  C         14.5330    3.3830  131.0150 C.2   235  ILE235      0.2592
    119  O         14.8350    4.5260  131.3680 O.2   235  ILE235     -0.2718
    120  CB        12.6910    2.9460  129.3690 C.3   235  ILE235      0.0266
    121  CG1       12.8930    4.3510  128.7640 C.3   235  ILE235      0.0019
    122  CG2       11.2540    2.4490  129.1960 C.3   235  ILE235      0.0020
    123  CD1       12.8000    4.4130  127.2300 C.3   235  ILE235      0.0001
    124  N         15.4410    2.4560  130.7360 N.am  236  CYS236     -0.1956
    125  CA        16.8640    2.7830  130.7150 C.3   236  CYS236      0.1843
    126  C         17.2450    3.2090  129.3010 C.2   236  CYS236      0.2625
    127  O         17.0040    2.4680  128.3470 O.2   236  CYS236     -0.2714
    128  CB        17.7160    1.5980  131.1770 C.3   236  CYS236      0.0997
    129  SG        19.4710    2.0320  131.3720 S.3   236  CYS236     -0.0797
    130  N         17.8020    4.4180  129.1660 N.am  237  TYR237     -0.1974
    131  CA        18.2030    4.9220  127.8530 C.3   237  TYR237      0.1639
    132  C         19.4550    4.2370  127.3130 C.2   237  TYR237      0.2290
    133  O         19.7340    4.3360  126.1080 O.2   237  TYR237     -0.2864
    134  CB        18.4740    6.4330  127.9160 C.3   237  TYR237      0.0560
    135  CG        17.2700    7.3230  128.1480 C.ar  237  TYR237     -0.0198
    136  CD1       15.9850    6.8040  128.2550 C.ar  237  TYR237     -0.0009
    137  CD2       17.4250    8.7110  128.2220 C.ar  237  TYR237     -0.0009
    138  CE1       14.8800    7.6400  128.4590 C.ar  237  TYR237      0.0417
    139  CE2       16.3450    9.5380  128.4200 C.ar  237  TYR237      0.0417
    140  CZ        15.0680    9.0020  128.5410 C.ar  237  TYR237      0.1957
    141  OH        13.9930    9.8520  128.7450 O.3   237  TYR237     -0.2866
    142  N         22.8680    1.2690  127.2270 N.3   239  ASP239     -0.1225
    143  CA        23.4380   -0.0690  127.3700 C.3   239  ASP239      0.1805
    144  C         23.6760   -0.3740  128.8450 C.2   239  ASP239      0.2598
    145  O         24.1310    0.4870  129.6060 O.2   239  ASP239     -0.2718
    146  CB        24.7560   -0.1310  126.5850 C.3   239  ASP239      0.1424
    147  CG        25.3400   -1.5570  126.4630 C.2   239  ASP239      0.3668
    148  OD1       25.1210   -2.4110  127.3410 O.co2 239  ASP239     -0.2456
    149  OD2       26.0510   -1.8190  125.4670 O.co2 239  ASP239     -0.2456
    150  N         23.3210   -1.5920  129.2650 N.am  240  MET240     -0.1965
    151  CA        23.5480   -1.9670  130.6590 C.3   240  MET240      0.1736
    152  C         25.0270   -2.1600  130.9570 C.2   240  MET240      0.2616
    153  O         25.4330   -2.0350  132.1130 O.2   240  MET240     -0.2715
    154  CB        22.7790   -3.2460  131.0090 C.3   240  MET240      0.0427
    155  CG        21.2450   -3.1140  130.9150 C.3   240  MET240      0.0599
    156  SD        20.6410   -1.6190  131.7330 S.3   240  MET240     -0.1393
    157  CE        21.1740   -1.9780  133.4210 C.3   240  MET240      0.0692
    158  N         25.8400   -2.4520  129.9450 N.am  241  LEU241     -0.1977
    159  CA        27.2650   -2.7040  130.1620 C.3   241  LEU241      0.1596
    160  C         28.0300   -1.3830  130.0750 C.2   241  LEU241      0.2287
    161  O         28.7920   -1.1180  129.1450 O.2   241  LEU241     -0.2864
    162  CB        27.7860   -3.7390  129.1700 C.3   241  LEU241      0.0297
    163  CG        27.0230   -5.0700  129.0930 C.3   241  LEU241      0.0022
    164  CD1       27.6910   -6.0540  128.1250 C.3   241  LEU241      0.0001
    165  CD2       26.8310   -5.7090  130.4750 C.3   241  LEU241      0.0001
    166  N         21.6430   13.8470  126.6490 N.3   255  TYR255     -0.1241
    167  CA        20.3530   14.1180  127.2750 C.3   255  TYR255      0.1605
    168  C         20.3380   15.3000  128.2350 C.2   255  TYR255      0.2264
    169  O         19.2680   15.6090  128.7730 O.2   255  TYR255     -0.2867
    170  CB        19.8510   12.8690  128.0120 C.3   255  TYR255      0.0534
    171  CG        19.5940   11.7050  127.0640 C.ar  255  TYR255     -0.0201
    172  CD1       18.4590   11.6730  126.2580 C.ar  255  TYR255     -0.0009
    173  CD2       20.5110   10.6640  126.9490 C.ar  255  TYR255     -0.0009
    174  CE1       18.2310   10.6150  125.3820 C.ar  255  TYR255      0.0417
    175  CE2       20.2920    9.6020  126.0880 C.ar  255  TYR255      0.0417
    176  CZ        19.1490    9.5810  125.3080 C.ar  255  TYR255      0.1957
    177  OH        18.9500    8.5310  124.4480 O.3   255  TYR255     -0.2866
    178  N         31.0380   -4.5550  113.2110 N.3   295  LYS295     -0.1245
    179  CA        29.8110   -5.3140  113.4370 C.3   295  LYS295      0.1561
    180  C         28.5890   -4.5300  112.9750 C.2   295  LYS295      0.2260
    181  O         27.6730   -5.0990  112.3650 O.2   295  LYS295     -0.2867
    182  CB        29.6910   -5.6920  114.9130 C.3   295  LYS295      0.0271
    183  CG        28.2710   -5.9970  115.3830 C.3   295  LYS295      0.0035
    184  CD        28.2690   -6.5180  116.8230 C.3   295  LYS295      0.0206
    185  CE        26.8760   -6.8600  117.2920 C.3   295  LYS295      0.1093
    186  NZ        26.1350   -5.6930  117.8460 N.3   295  LYS295     -0.1314
    187  N         30.4460  -11.4160  123.2920 N.3   330  ASP330     -0.1239
    188  CA        29.1510  -11.3640  122.6250 C.3   330  ASP330      0.1674
    189  C         29.3160  -11.0890  121.1340 C.2   330  ASP330      0.2266
    190  O         28.6890  -11.7540  120.3000 O.2   330  ASP330     -0.2867
    191  CB        28.2760  -10.3080  123.2890 C.3   330  ASP330      0.1410
    192  CG        26.9050  -10.2010  122.6490 C.2   330  ASP330      0.3668
    193  OD1       26.1560  -11.2080  122.6390 O.co2 330  ASP330     -0.2456
    194  OD2       26.5740   -9.1040  122.1500 O.co2 330  ASP330     -0.2456
    195  N         25.9190  -12.0480  132.1750 N.3   356  TYR356     -0.1241
    196  CA        24.6390  -11.4510  131.7940 C.3   356  TYR356      0.1605
    197  C         23.6170  -11.5470  132.9240 C.2   356  TYR356      0.2264
    198  O         22.8150  -10.6320  133.1020 O.2   356  TYR356     -0.2867
    199  CB        24.0980  -12.1110  130.5240 C.3   356  TYR356      0.0534
    200  CG        24.4570  -11.3540  129.2570 C.ar  356  TYR356     -0.0201
    201  CD1       23.4720  -10.9590  128.3460 C.ar  356  TYR356     -0.0009
    202  CD2       25.7750  -11.0030  128.9940 C.ar  356  TYR356     -0.0009
    203  CE1       23.8000  -10.2550  127.1860 C.ar  356  TYR356      0.0417
    204  CE2       26.1210  -10.2940  127.8600 C.ar  356  TYR356      0.0417
    205  CZ        25.1300   -9.9210  126.9490 C.ar  356  TYR356      0.1957
    206  OH        25.4720   -9.2180  125.8120 O.3   356  TYR356     -0.2866
    207  N         22.2860   -7.8420  133.8680 N.3   360  PHE360     -0.1241
    208  CA        20.9410   -7.6040  133.3540 C.3   360  PHE360      0.1605
    209  C         19.9280   -8.1430  134.3620 C.2   360  PHE360      0.2264
    210  O         19.1600   -9.0680  134.0580 O.2   360  PHE360     -0.2867
    211  CB        20.7560   -8.2470  131.9810 C.3   360  PHE360      0.0534
    212  CG        21.6590   -7.6830  130.8930 C.ar  360  PHE360     -0.0203
    213  CD1       21.2330   -6.6260  130.0930 C.ar  360  PHE360     -0.0042
    214  CD2       22.9210   -8.2290  130.6570 C.ar  360  PHE360     -0.0042
    215  CE1       22.0450   -6.1130  129.0690 C.ar  360  PHE360     -0.0003
    216  CE2       23.7430   -7.7230  129.6360 C.ar  360  PHE360     -0.0003
    217  CZ        23.2990   -6.6540  128.8430 C.ar  360  PHE360     -0.0000
    218  N         15.1200   -8.3630  131.4400 N.3   364  HIS364     -0.1227
    219  CA        15.6850   -7.4530  130.4600 C.3   364  HIS364      0.1737
    220  C         15.6750   -8.1420  129.0950 C.2   364  HIS364      0.2438
    221  O         16.1570   -9.2840  128.9740 O.2   364  HIS364     -0.2733
    222  CB        17.1090   -7.0440  130.8430 C.3   364  HIS364      0.0758
    223  CG        17.5970   -5.8210  130.1370 C.ar  364  HIS364      0.0818
    224  ND1       17.8660   -5.8020  128.7870 N.ar  364  HIS364     -0.2268
    225  CD2       17.8820   -4.5770  130.5940 C.ar  364  HIS364      0.1154
    226  CE1       18.2830   -4.5980  128.4380 C.ar  364  HIS364      0.1986
    227  NE2       18.3000   -3.8340  129.5160 N.ar  364  HIS364     -0.2212
    228  N         15.1570   -7.4840  128.0600 N.am  365  PRO365     -0.2718
    229  CA        15.0600   -8.1460  126.7490 C.3   365  PRO365      0.1535
    230  C         16.3930   -8.6100  126.2030 C.2   365  PRO365      0.2598
    231  O         16.4330   -9.6150  125.4890 O.2   365  PRO365     -0.2715
    232  CB        14.4460   -7.0600  125.8590 C.3   365  PRO365      0.0310
    233  CG        14.7720   -5.7510  126.5670 C.3   365  PRO365      0.0237
    234  CD        14.7020   -6.0870  128.0230 C.3   365  PRO365      0.0939
    235  N         17.4860   -7.9000  126.5030 N.am  366  VAL366     -0.1978
    236  CA        18.7910   -8.2670  125.9480 C.3   366  VAL366      0.1596
    237  C         19.2620   -9.6000  126.5120 C.2   366  VAL366      0.2287
    238  O         19.7870  -10.4550  125.7810 O.2   366  VAL366     -0.2864
    239  CB        19.8180   -7.1500  126.2180 C.3   366  VAL366      0.0276
    240  CG1       21.2300   -7.6380  125.9290 C.3   366  VAL366      0.0022
    241  CG2       19.4870   -5.8960  125.3890 C.3   366  VAL366      0.0022
@<TRIPOS>BOND
     1   181   180    2
     2   180   179    1
     3   178   179    1
     4    56    55    2
     5   179   182    1
     6    55    54    1
     7   182   183    1
     8   183   184    1
     9    54    53    1
    10    54    57    1
    11    57    58    1
    12    41    42    2
    13    41    40    1
    14   184   185    1
    15    40    39    1
    16    40    43    1
    17    20    19    1
    18    24    23    2
    19    60    59   ar
    20   185   186    1
    21    58    59    1
    22   107   108    2
    23   107   106    1
    24   109   110    1
    25   109   106    1
    26    38    36    1
    27    19    16    1
    28    34    33    1
    29    34    35    2
    30    43    44    1
    31   111   110   ar
    32   111   113   ar
    33    59    61   ar
    34    33    36    1
    35    33    32    1
    36    45    46    1
    37    47    48    2
    38    47    46    1
    39    23    32   am
    40    23    22    1
    41   110   112   ar
    42   113   115   ar
    43   106   105    1
    44    16    17    1
    45    16    15    1
    46    36    37    1
    47    21    22    1
    48    21    17   am
    49    46    49    1
    50    22    25    1
    51   112   114   ar
    52    25    26    1
    53    17    18    2
    54   115   114   ar
    55    15     9   am
    56   105   100   am
    57    10     9    2
    58   190   189    2
    59     9     8    1
    60    49    50    1
    61    28    26   ar
    62    28    30   ar
    63    26    27   ar
    64   101   100    2
    65   100    99    1
    66   189   188    1
    67    11     8    1
    68    11    12    1
    69    50    51    1
    70     8     7    1
    71    30    31   ar
    72    51    52    1
    73     1     2    1
    74     7     3   am
    75    27    29   ar
    76   194   192   ar
    77    75    74    1
    78    14    12   am
    79    67    66    1
    80    67    69    1
    81    12    13    2
    82    99   102    1
    83    99    98    1
    84   188   191    1
    85   188   187    1
    86   193   192   ar
    87   192   191    1
    88   102   104    1
    89   102   103    1
    90    31    29   ar
    91     3     2    1
    92     3     4    2
    93     2     5    1
    94    66    68    1
    95    66    63    1
    96    62    63    1
    97    74    71    1
    98    97    95    1
    99    98    92   am
   100    70    71    1
   101    70    64   am
   102     6     5    1
   103    63    64    1
   104    95    94    1
   105    71    72    1
   106    92    93    2
   107    92    91    1
   108   177   176    1
   109    94    91    1
   110    94    96    1
   111    64    65    2
   112    91    90    1
   113   176   174   ar
   114   176   175   ar
   115   174   172   ar
   116   241   239    1
   117   149   147   ar
   118   231   230    2
   119    72    73    2
   120   238   237    2
   121   206   205    1
   122   232   233    1
   123   232   229    1
   124   240   239    1
   125   236   239    1
   126   236   235    1
   127   236   237    1
   128   175   173   ar
   129   133   132    2
   130   230   235   am
   131   230   229    1
   132   172   171   ar
   133   147   146    1
   134   147   148   ar
   135    90    86   am
   136   233   234    1
   137   146   143    1
   138   166   167    1
   139   229   228    1
   140   205   203   ar
   141   205   204   ar
   142   173   171   ar
   143   171   170    1
   144   203   201   ar
   145   142   143    1
   146   123   121    1
   147   167   170    1
   148   167   168    1
   149   132   131    1
   150   143   144    1
   151    87    86    2
   152    82    81    1
   153    86    85    1
   154   131   134    1
   155   131   130    1
   156   204   202   ar
   157   134   135    1
   158   234   228    1
   159   228   220   am
   160   164   163    1
   161   135   137   ar
   162   135   136   ar
   163    89    88    1
   164   137   139   ar
   165   168   169    2
   166   136   138   ar
   167    76    77    1
   168   201   200   ar
   169   127   126    2
   170   139   140   ar
   171   226   224   ar
   172   226   227   ar
   173   138   140   ar
   174   140   141    1
   175    81    80    1
   176    81    83    1
   177   121   120    1
   178   224   223   ar
   179   217   215   ar
   180   217   216   ar
   181   144   150   am
   182   144   145    2
   183    85    88    1
   184    85    84    1
   185    80    77    1
   186    79    78    2
   187   221   220    2
   188   202   200   ar
   189   215   213   ar
   190   163   162    1
   191   163   165    1
   192   220   219    1
   193   161   160    2
   194   130   126   am
   195   162   159    1
   196   122   120    1
   197   200   199    1
   198   150   151    1
   199   126   125    1
   200    77    78    1
   201   120   117    1
   202   227   225   ar
   203   216   214   ar
   204   158   159    1
   205   158   152   am
   206   160   159    1
   207   213   212   ar
   208   223   225   ar
   209   223   222    1
   210   219   222    1
   211   219   218    1
   212   199   196    1
   213   214   212   ar
   214   151   152    1
   215   151   154    1
   216   125   124    1
   217   125   128    1
   218   124   118   am
   219   117   118    1
   220   117   116    1
   221   212   211    1
   222   155   154    1
   223   155   156    1
   224   152   153    2
   225   118   119    2
   226   128   129    1
   227   156   157    1
   228   196   195    1
   229   196   197    1
   230   211   208    1
   231   197   198    2
   232   208   207    1
   233   208   209    1
   234   210   209    2
