@<TRIPOS>MOLECULE
tmp/5xxhA00.pdb
 112 107 0 0 0
SMALL
GASTEIGER

@<TRIPOS>ATOM
      1  N         10.7870   -0.9990    4.5220 N.3    29  LEU29      -0.1231
      2  CA        10.4410   -1.0380    3.1010 C.3    29  LEU29       0.1678
      3  C         10.9900   -2.2720    2.3560 C.2    29  LEU29       0.2434
      4  O         10.2580   -2.8630    1.5710 O.2    29  LEU29      -0.2733
      5  CB        10.8300    0.2740    2.4000 C.3    29  LEU29       0.0284
      6  CG        10.1190    1.5210    2.9310 C.3    29  LEU29       0.0019
      7  CD1       10.7020    2.7470    2.2220 C.3    29  LEU29       0.0001
      8  CD2        8.6220    1.4580    2.7460 C.3    29  LEU29       0.0001
      9  N         12.2400   -2.7010    2.6460 N.am   30  PRO30      -0.2718
     10  CA        12.7160   -3.9420    2.0130 C.3    30  PRO30       0.1535
     11  C         11.9730   -5.2260    2.4050 C.2    30  PRO30       0.2598
     12  O         12.1350   -6.2340    1.7150 O.2    30  PRO30      -0.2715
     13  CB        14.1620   -4.0370    2.4650 C.3    30  PRO30       0.0310
     14  CG        14.5590   -2.6250    2.7730 C.3    30  PRO30       0.0237
     15  CD        13.3310   -2.0240    3.3720 C.3    30  PRO30       0.0939
     16  N         11.1790   -5.1730    3.4740 N.am   31  PHE31      -0.1974
     17  CA        10.5540   -6.3620    4.0680 C.3    31  PHE31       0.1639
     18  C          9.0460   -6.4730    3.8640 C.2    31  PHE31       0.2290
     19  O          8.4310   -7.4270    4.3600 O.2    31  PHE31      -0.2864
     20  CB        10.8660   -6.3590    5.5660 C.3    31  PHE31       0.0560
     21  CG        12.3340   -6.3220    5.8570 C.ar   31  PHE31      -0.0200
     22  CD1       13.0570   -7.4920    5.9310 C.ar   31  PHE31      -0.0042
     23  CD2       13.0050   -5.1170    6.0110 C.ar   31  PHE31      -0.0042
     24  CE1       14.4130   -7.4810    6.1900 C.ar   31  PHE31      -0.0003
     25  CE2       14.3650   -5.0940    6.2570 C.ar   31  PHE31      -0.0003
     26  CZ        15.0750   -6.2730    6.3420 C.ar   31  PHE31      -0.0000
     27  N         10.8140  -11.1420   -1.3060 N.3    35  VAL35      -0.1245
     28  CA        11.9520  -10.9450   -2.1960 C.3    35  VAL35       0.1561
     29  C         11.6490  -11.6470   -3.5200 C.2    35  VAL35       0.2260
     30  O         11.3090  -12.8280   -3.5140 O.2    35  VAL35      -0.2867
     31  CB        13.2540  -11.5150   -1.5940 C.3    35  VAL35       0.0252
     32  CG1       14.4040  -11.4570   -2.6010 C.3    35  VAL35       0.0019
     33  CG2       13.6080  -10.7850   -0.2930 C.3    35  VAL35       0.0019
     34  N         14.6110   -8.2600   -8.7350 N.3    40  LEU40      -0.1245
     35  CA        15.6740   -7.5430   -8.0230 C.3    40  LEU40       0.1561
     36  C         17.0900   -7.8060   -8.5530 C.2    40  LEU40       0.2260
     37  O         18.0440   -7.1530   -8.1150 O.2    40  LEU40      -0.2867
     38  CB        15.5930   -7.8510   -6.5220 C.3    40  LEU40       0.0270
     39  CG        14.2880   -7.4270   -5.8370 C.3    40  LEU40       0.0019
     40  CD1       14.2700   -7.9420   -4.4060 C.3    40  LEU40       0.0001
     41  CD2       14.0790   -5.9170   -5.8580 C.3    40  LEU40       0.0001
     42  N         18.9700  -10.5850   -8.2520 N.3    42  ILE42      -0.1245
     43  CA        19.7750  -11.3090   -7.2630 C.3    42  ILE42       0.1561
     44  C         19.4920  -12.8080   -7.4320 C.2    42  ILE42       0.2260
     45  O         18.9270  -13.4460   -6.5430 O.2    42  ILE42      -0.2867
     46  CB        19.5430  -10.7900   -5.8120 C.3    42  ILE42       0.0252
     47  CG1       18.0570  -10.6420   -5.4680 C.3    42  ILE42       0.0019
     48  CG2       20.2320   -9.4420   -5.6300 C.3    42  ILE42       0.0019
     49  CD1       17.7760  -10.3050   -4.0090 C.3    42  ILE42       0.0001
     50  N         19.6160  -15.6840   -4.7130 N.3    45  TYR45      -0.1241
     51  CA        18.8990  -15.4820   -3.4350 C.3    45  TYR45       0.1605
     52  C         18.3170  -16.7790   -2.8700 C.2    45  TYR45       0.2264
     53  O         18.5740  -17.1130   -1.7270 O.2    45  TYR45      -0.2867
     54  CB        17.7990  -14.4350   -3.5620 C.3    45  TYR45       0.0534
     55  CG        17.1510  -14.1160   -2.2340 C.ar   45  TYR45      -0.0201
     56  CD1       17.7810  -13.2820   -1.3190 C.ar   45  TYR45      -0.0009
     57  CD2       15.9250  -14.6710   -1.8840 C.ar   45  TYR45      -0.0009
     58  CE1       17.2060  -13.0080   -0.0910 C.ar   45  TYR45       0.0417
     59  CE2       15.3400  -14.4010   -0.6620 C.ar   45  TYR45       0.0417
     60  CZ        15.9760  -13.5670    0.2270 C.ar   45  TYR45       0.1957
     61  OH        15.3870  -13.3260    1.4450 O.3    45  TYR45      -0.2866
     62  N         10.8930  -15.3200    4.0440 N.3    53  MET53      -0.1245
     63  CA         9.8070  -14.7920    4.8390 C.3    53  MET53       0.1570
     64  C          9.8220  -13.2670    4.7370 C.2    53  MET53       0.2261
     65  O         10.8690  -12.6740    4.5420 O.2    53  MET53      -0.2867
     66  CB         9.9500  -15.2430    6.2980 C.3    53  MET53       0.0387
     67  CG         8.7790  -14.9110    7.1930 C.3    53  MET53       0.0595
     68  SD         7.1620  -15.4400    6.6170 S.3    53  MET53      -0.1393
     69  CE         7.3810  -17.2180    6.4810 C.3    53  MET53       0.0692
     70  N         17.7300  -12.0000    6.0980 N.3    84  ALA84      -0.1245
     71  CA        18.3270  -10.7410    5.6110 C.3    84  ALA84       0.1562
     72  C         19.7580  -10.5750    6.1190 C.2    84  ALA84       0.2260
     73  O         20.6470  -10.1440    5.3700 O.2    84  ALA84      -0.2867
     74  CB        17.4670   -9.5490    5.9890 C.3    84  ALA84       0.0290
     75  N         21.8430  -13.1800    3.8780 N.3    87  TYR87      -0.1227
     76  CA        22.0200  -12.9010    2.4600 C.3    87  TYR87       0.1736
     77  C         22.8310  -11.6240    2.2030 C.2    87  TYR87       0.2595
     78  O         23.6600  -11.5690    1.2700 O.2    87  TYR87      -0.2718
     79  CB        20.6770  -12.8060    1.7250 C.3    87  TYR87       0.0548
     80  CG        20.9250  -12.5620    0.2630 C.ar   87  TYR87      -0.0200
     81  CD1       21.3690  -13.5910   -0.5550 C.ar   87  TYR87      -0.0009
     82  CD2       20.8210  -11.2850   -0.2770 C.ar   87  TYR87      -0.0009
     83  CE1       21.6610  -13.3650   -1.8910 C.ar   87  TYR87       0.0417
     84  CE2       21.1090  -11.0510   -1.6080 C.ar   87  TYR87       0.0417
     85  CZ        21.5220  -12.0950   -2.4060 C.ar   87  TYR87       0.1957
     86  OH        21.8270  -11.8580   -3.7280 O.3    87  TYR87      -0.2866
     87  N         22.5720  -10.5940    3.0040 N.am   88  ASN88      -0.1974
     88  CA        23.1330   -9.2730    2.7460 C.3    88  ASN88       0.1688
     89  C         24.4350   -9.0270    3.5010 C.2    88  ASN88       0.2292
     90  O         24.6470   -9.5660    4.5910 O.2    88  ASN88      -0.2864
     91  CB        22.0900   -8.2140    3.0930 C.3    88  ASN88       0.1181
     92  CG        20.8350   -8.3640    2.2550 C.2    88  ASN88       0.2629
     93  OD1       20.8480   -8.0510    1.0720 O.2    88  ASN88      -0.2716
     94  ND2       19.7640   -8.9060    2.8380 N.am   88  ASN88      -0.0877
     95  N         22.5730   -1.5850    3.1270 N.3    93  ARG93      -0.1231
     96  CA        21.3520   -0.9330    3.5960 C.3    93  ARG93       0.1694
     97  C         20.3730   -1.9480    4.2080 C.2    93  ARG93       0.2591
     98  O         19.8680   -1.7460    5.3120 O.2    93  ARG93      -0.2718
     99  CB        20.7040   -0.1940    2.4300 C.3    93  ARG93       0.0321
    100  CG        19.4020    0.5150    2.7080 C.3    93  ARG93       0.0489
    101  CD        18.9930    1.2930    1.4730 C.3    93  ARG93       0.2205
    102  NE        17.7880    2.1120    1.6320 N.pl3  93  ARG93      -0.0865
    103  CZ        16.5260    1.7080    1.4180 C.cat  93  ARG93       0.5346
    104  NH1       16.2330    0.4560    1.0550 N.pl3  93  ARG93       0.1354
    105  NH2       15.5420    2.5770    1.5780 N.pl3  93  ARG93       0.1354
    106  N         20.1310   -3.0530    3.5110 N.am   94  VAL94      -0.1980
    107  CA        19.1400   -4.0230    4.0080 C.3    94  VAL94       0.1595
    108  C         19.5610   -4.6620    5.3330 C.2    94  VAL94       0.2287
    109  O         18.7240   -4.8450    6.2330 O.2    94  VAL94      -0.2864
    110  CB        18.8130   -5.1030    2.9630 C.3    94  VAL94       0.0276
    111  CG1       17.9020   -6.1750    3.5700 C.3    94  VAL94       0.0022
    112  CG2       18.1380   -4.4690    1.7590 C.3    94  VAL94       0.0022
@<TRIPOS>BOND
     1    34    35    1
     2    36    37    2
     3    36    35    1
     4    42    43    1
     5    35    38    1
     6    44    43    1
     7    44    45    2
     8    43    46    1
     9    38    39    1
    10    41    39    1
    11    39    40    1
    12    46    48    1
    13    46    47    1
    14    47    49    1
    15    50    51    1
    16    86    85    1
    17    54    51    1
    18    54    55    1
    19    29    30    2
    20    29    28    1
    21    51    52    1
    22    52    53    2
    23    32    31    1
    24    85    83   ar
    25    85    84   ar
    26    55    57   ar
    27    55    56   ar
    28    28    31    1
    29    28    27    1
    30    83    81   ar
    31    57    59   ar
    32    84    82   ar
    33    31    33    1
    34    56    58   ar
    35    59    60   ar
    36    81    80   ar
    37    82    80   ar
    38    58    60   ar
    39    60    61    1
    40    80    79    1
    41   104   103    1
    42    93    92    2
    43    78    77    2
    44   103   105    1
    45   103   102    2
    46   101   102    1
    47   101   100    1
    48     4     3    2
    49    12    11    2
    50    79    76    1
    51   112   110    1
    52    10    11    1
    53    10    13    1
    54    10     9    1
    55    77    76    1
    56    77    87   am
    57     7     6    1
    58    92    94   am
    59    92    91    1
    60     3     9   am
    61     3     2    1
    62     5     6    1
    63     5     2    1
    64    11    16   am
    65    99   100    1
    66    99    96    1
    67    76    75    1
    68    13    14    1
    69     9    15    1
    70     8     6    1
    71    88    87    1
    72    88    91    1
    73    88    89    1
    74    14    15    1
    75   110   111    1
    76   110   107    1
    77     2     1    1
    78    95    96    1
    79    16    17    1
    80    89    90    2
    81   106   107    1
    82   106    97   am
    83    96    97    1
    84    18    17    1
    85    18    19    2
    86   107   108    1
    87    62    63    1
    88    17    20    1
    89    97    98    2
    90    65    64    2
    91    64    63    1
    92    63    66    1
    93   108   109    2
    94    73    72    2
    95    20    21    1
    96    71    74    1
    97    71    70    1
    98    71    72    1
    99    21    22   ar
   100    21    23   ar
   101    22    24   ar
   102    23    25   ar
   103    24    26   ar
   104    25    26   ar
   105    66    67    1
   106    69    68    1
   107    68    67    1
