@<TRIPOS>MOLECULE
tmp/5xxmA00.pdb
 137 132 0 0 0
SMALL
GASTEIGER

@<TRIPOS>ATOM
      1  N        -35.8070    9.6530   -8.6920 N.3    35  THR35      -0.1218
      2  CA       -35.4000   10.3290   -9.9340 C.3    35  THR35       0.1862
      3  C        -35.6980   11.8370   -9.9370 C.2    35  THR35       0.2287
      4  O        -35.5060   12.4980  -10.9490 O.2    35  THR35      -0.2866
      5  CB       -36.0230    9.6450  -11.1720 C.3    35  THR35       0.1770
      6  OG1      -37.4500    9.6060  -11.0570 O.3    35  THR35      -0.2211
      7  CG2      -35.4960    8.2320  -11.3170 C.3    35  THR35       0.0375
      8  N        -45.2620    5.6610  -10.7140 N.3    56  PHE56      -0.1241
      9  CA       -43.9370    5.2350  -11.1480 C.3    56  PHE56       0.1605
     10  C        -42.9420    5.2340   -9.9940 C.2    56  PHE56       0.2264
     11  O        -43.2020    5.7850   -8.9170 O.2    56  PHE56      -0.2867
     12  CB       -43.4500    6.0880  -12.3370 C.3    56  PHE56       0.0534
     13  CG       -43.0560    7.4930  -11.9650 C.ar   56  PHE56      -0.0203
     14  CD1      -44.0200    8.4270  -11.5990 C.ar   56  PHE56      -0.0042
     15  CD2      -41.7260    7.8930  -11.9980 C.ar   56  PHE56      -0.0042
     16  CE1      -43.6620    9.7190  -11.2610 C.ar   56  PHE56      -0.0003
     17  CE2      -41.3610    9.1880  -11.6540 C.ar   56  PHE56      -0.0003
     18  CZ       -42.3320   10.1020  -11.2830 C.ar   56  PHE56      -0.0000
     19  N        -38.1180    3.9340  -15.2910 N.3    86  ASP86      -0.1239
     20  CA       -37.0490    4.1380  -16.2550 C.3    86  ASP86       0.1674
     21  C        -36.3210    2.8150  -16.4790 C.2    86  ASP86       0.2266
     22  O        -35.3620    2.4990  -15.7860 O.2    86  ASP86      -0.2867
     23  CB       -36.1010    5.2240  -15.7630 C.3    86  ASP86       0.1410
     24  CG       -36.7540    6.5850  -15.7490 C.2    86  ASP86       0.3668
     25  OD1      -36.9010    7.1530  -16.8430 O.co2  86  ASP86      -0.2456
     26  OD2      -37.1160    7.0870  -14.6690 O.co2  86  ASP86      -0.2456
     27  N        -40.1260    4.4290  -19.4340 N.3   130  PHE130     -0.1241
     28  CA       -39.7920    5.7510  -19.9680 C.3   130  PHE130      0.1605
     29  C        -38.5530    5.6480  -20.8720 C.2   130  PHE130      0.2264
     30  O        -37.4680    6.1420  -20.5560 O.2   130  PHE130     -0.2867
     31  CB       -39.6030    6.7600  -18.8420 C.3   130  PHE130      0.0534
     32  CG       -40.7460    6.8090  -17.8680 C.ar  130  PHE130     -0.0203
     33  CD1      -42.0570    6.9850  -18.3100 C.ar  130  PHE130     -0.0042
     34  CD2      -40.5190    6.6860  -16.4980 C.ar  130  PHE130     -0.0042
     35  CE1      -43.1110    7.0320  -17.4070 C.ar  130  PHE130     -0.0003
     36  CE2      -41.5710    6.7400  -15.5890 C.ar  130  PHE130     -0.0003
     37  CZ       -42.8750    6.9120  -16.0490 C.ar  130  PHE130     -0.0000
     38  N        -26.4890   13.4910  -20.4930 N.3   144  ARG144     -0.1245
     39  CA       -27.5350   12.6190  -21.0070 C.3   144  ARG144      0.1563
     40  C        -27.2200   12.0400  -22.3860 C.2   144  ARG144      0.2260
     41  O        -27.9860   11.2180  -22.8690 O.2   144  ARG144     -0.2867
     42  CB       -28.8960   13.3080  -20.9700 C.3   144  ARG144      0.0307
     43  CG       -29.1690   14.0430  -19.6610 C.3   144  ARG144      0.0489
     44  CD       -30.6400   14.2360  -19.3650 C.3   144  ARG144      0.2205
     45  NE       -31.3120   12.9610  -19.0920 N.pl3 144  ARG144     -0.0865
     46  CZ       -32.5440   12.8520  -18.5970 C.cat 144  ARG144      0.5346
     47  NH1      -33.2520   13.9250  -18.2770 N.pl3 144  ARG144      0.1354
     48  NH2      -33.0560   11.6480  -18.3830 N.pl3 144  ARG144      0.1354
     49  N        -38.7160    9.7620  -25.5440 N.3   183  LYS183     -0.1231
     50  CA       -38.3830   10.9830  -24.8190 C.3   183  LYS183      0.1693
     51  C        -37.0900   11.5540  -25.3840 C.2   183  LYS183      0.2592
     52  O        -36.3460   10.8230  -26.0370 O.2   183  LYS183     -0.2718
     53  CB       -38.2880   10.7060  -23.3130 C.3   183  LYS183      0.0285
     54  CG       -37.1290    9.8270  -22.8780 C.3   183  LYS183      0.0035
     55  CD       -37.2810    9.3800  -21.4270 C.3   183  LYS183      0.0206
     56  CE       -35.9860    8.7780  -20.9160 C.3   183  LYS183      0.1093
     57  NZ       -36.0640    8.3950  -19.4870 N.3   183  LYS183     -0.1314
     58  N        -36.8080   12.8460  -25.1870 N.am  184  HIS184     -0.1976
     59  CA       -37.6460   13.8180  -24.5240 C.3   184  HIS184      0.1656
     60  C        -38.0800   14.8060  -25.5960 C.2   184  HIS184      0.2291
     61  O        -37.2520   15.5330  -26.1410 O.2   184  HIS184     -0.2864
     62  CB       -36.8670   14.5280  -23.4140 C.3   184  HIS184      0.0771
     63  CG       -36.2270   13.5990  -22.4220 C.ar  184  HIS184      0.0820
     64  ND1      -35.0190   12.9820  -22.6500 N.ar  184  HIS184     -0.2267
     65  CD2      -36.6120   13.2160  -21.1800 C.ar  184  HIS184      0.1154
     66  CE1      -34.6870   12.2580  -21.5970 C.ar  184  HIS184      0.1986
     67  NE2      -35.6360   12.3860  -20.6890 N.ar  184  HIS184     -0.2212
     68  N        -42.9510   11.5640  -23.8870 N.3   227  MET227     -0.1245
     69  CA       -42.6710   12.4380  -22.7540 C.3   227  MET227      0.1570
     70  C        -42.2100   13.8140  -23.2300 C.2   227  MET227      0.2261
     71  O        -41.2190   13.9130  -23.9480 O.2   227  MET227     -0.2867
     72  CB       -41.6000   11.8270  -21.8510 C.3   227  MET227      0.0387
     73  CG       -41.3210   12.6530  -20.5980 C.3   227  MET227      0.0595
     74  SD       -40.0410   11.9390  -19.5550 S.3   227  MET227     -0.1393
     75  CE       -40.9490   10.5650  -18.8500 C.3   227  MET227      0.0692
     76  N        -38.0210   19.0660  -20.7180 N.3   230  PHE230     -0.1241
     77  CA       -37.8610   20.1630  -19.7570 C.3   230  PHE230      0.1605
     78  C        -37.5390   21.5140  -20.3960 C.2   230  PHE230      0.2264
     79  O        -37.7820   22.5630  -19.7970 O.2   230  PHE230     -0.2867
     80  CB       -36.7120   19.8670  -18.7980 C.3   230  PHE230      0.0534
     81  CG       -37.0180   18.8280  -17.7610 C.ar  230  PHE230     -0.0203
     82  CD1      -38.1440   18.9460  -16.9550 C.ar  230  PHE230     -0.0042
     83  CD2      -36.1470   17.7630  -17.5470 C.ar  230  PHE230     -0.0042
     84  CE1      -38.4120   18.0120  -15.9680 C.ar  230  PHE230     -0.0003
     85  CE2      -36.4150   16.8150  -16.5620 C.ar  230  PHE230     -0.0003
     86  CZ       -37.5390   16.9480  -15.7670 C.ar  230  PHE230     -0.0000
     87  N        -42.4170   15.2980  -18.1720 N.3   262  ASP262     -0.1225
     88  CA       -41.2730   14.8660  -17.4010 C.3   262  ASP262      0.1805
     89  C        -41.5340   15.2620  -15.9240 C.2   262  ASP262      0.2597
     90  O        -42.5860   15.8380  -15.5850 O.2   262  ASP262     -0.2718
     91  CB       -39.9850   15.4900  -17.9840 C.3   262  ASP262      0.1424
     92  CG       -38.7340   14.6550  -17.7040 C.2   262  ASP262      0.3668
     93  OD1      -38.7080   13.9680  -16.6610 O.co2 262  ASP262     -0.2456
     94  OD2      -37.7660   14.7060  -18.5050 O.co2 262  ASP262     -0.2456
     95  N        -40.5890   14.9280  -15.0570 N.am  263  TYR263     -0.1976
     96  CA       -40.7290   15.0610  -13.6040 C.3   263  TYR263      0.1639
     97  C        -41.0310   16.4970  -13.1460 C.2   263  TYR263      0.2290
     98  O        -40.1980   17.3980  -13.2900 O.2   263  TYR263     -0.2864
     99  CB       -39.4440   14.5480  -12.9350 C.3   263  TYR263      0.0560
    100  CG       -39.5900   14.0470  -11.5240 C.ar  263  TYR263     -0.0198
    101  CD1      -39.8450   14.9210  -10.4580 C.ar  263  TYR263     -0.0009
    102  CD2      -39.4290   12.6870  -11.2330 C.ar  263  TYR263     -0.0009
    103  CE1      -39.9600   14.4510   -9.1590 C.ar  263  TYR263      0.0417
    104  CE2      -39.5430   12.2150   -9.9330 C.ar  263  TYR263      0.0417
    105  CZ       -39.8080   13.0900   -8.9050 C.ar  263  TYR263      0.1957
    106  OH       -39.9010   12.5960   -7.6180 O.3   263  TYR263     -0.2866
    107  N        -46.8840   14.2370  -14.5000 N.3   293  MET293     -0.1245
    108  CA       -45.9090   13.5910  -13.5960 C.3   293  MET293      0.1570
    109  C        -45.6050   14.4490  -12.3540 C.2   293  MET293      0.2261
    110  O        -44.9110   15.4700  -12.4520 O.2   293  MET293     -0.2867
    111  CB       -44.6070   13.2900  -14.3500 C.3   293  MET293      0.0387
    112  CG       -43.6490   12.3940  -13.5800 C.3   293  MET293      0.0595
    113  SD       -42.1890   11.9250  -14.5220 S.3   293  MET293     -0.1393
    114  CE       -42.8040   10.5850  -15.5220 C.3   293  MET293      0.0692
    115  N        -28.4960    5.2490  -14.9130 N.3   411  TRP411     -0.1241
    116  CA       -29.8420    4.7940  -15.2900 C.3   411  TRP411      0.1605
    117  C        -29.9620    3.2590  -15.2360 C.2   411  TRP411      0.2264
    118  O        -30.3220    2.6020  -16.2140 O.2   411  TRP411     -0.2867
    119  CB       -30.2670    5.3810  -16.6590 C.3   411  TRP411      0.0550
    120  CG       -30.6580    6.8230  -16.5490 C.ar  411  TRP411      0.0003
    121  CD1      -29.9940    7.9110  -17.0560 C.ar  411  TRP411      0.0946
    122  CD2      -31.7850    7.3370  -15.8360 C.ar  411  TRP411      0.0152
    123  NE1      -30.6610    9.0750  -16.7080 N.ar  411  TRP411     -0.2442
    124  CE2      -31.7620    8.7410  -15.9630 C.ar  411  TRP411      0.0810
    125  CE3      -32.8270    6.7390  -15.1140 C.ar  411  TRP411      0.0012
    126  CZ2      -32.7490    9.5540  -15.4060 C.ar  411  TRP411      0.0191
    127  CZ3      -33.7900    7.5400  -14.5480 C.ar  411  TRP411      0.0001
    128  CH2      -33.7550    8.9370  -14.6990 C.ar  411  TRP411      0.0015
    129  N        -28.5390   12.1090  -15.8790 N.3   499  GLU499     -0.1245
    130  CA       -29.2890   13.3500  -15.7240 C.3   499  GLU499      0.1567
    131  C        -28.6020   14.2520  -14.7080 C.2   499  GLU499      0.2260
    132  O        -28.0610   13.7740  -13.7170 O.2   499  GLU499     -0.2867
    133  CB       -30.7240   13.0330  -15.2960 C.3   499  GLU499      0.0388
    134  CG       -31.5790   14.2500  -15.0260 C.3   499  GLU499      0.1160
    135  CD       -33.0540   13.9440  -14.9520 C.2   499  GLU499      0.3649
    136  OE1      -33.4160   12.7540  -14.9320 O.co2 499  GLU499     -0.2457
    137  OE2      -33.8540   14.9090  -14.9090 O.co2 499  GLU499     -0.2457
@<TRIPOS>BOND
     1    61    60    2
     2    52    51    2
     3    60    59    1
     4    49    50    1
     5    51    58   am
     6    51    50    1
     7    58    59    1
     8    50    53    1
     9    59    62    1
    10    71    70    2
    11    68    69    1
    12    62    63    1
    13    53    54    1
    14    70    69    1
    15    54    55    1
    16    41    40    2
    17    69    72    1
    18    64    63   ar
    19    64    66   ar
    20    63    65   ar
    21    40    39    1
    22    72    73    1
    23    66    67   ar
    24    55    56    1
    25    65    67   ar
    26    39    42    1
    27    39    38    1
    28    42    43    1
    29    56    57    1
    30    29    30    2
    31    29    28    1
    32    76    77    1
    33    73    74    1
    34    78    79    2
    35    78    77    1
    36    28    27    1
    37    28    31    1
    38    77    80    1
    39    43    44    1
    40    74    75    1
    41    44    45    1
    42    45    46    2
    43    31    32    1
    44    80    81    1
    45    46    48    1
    46    46    47    1
    47    94    92   ar
    48    33    32   ar
    49    33    35   ar
    50    87    88    1
    51    91    92    1
    52    91    88    1
    53    32    34   ar
    54    81    83   ar
    55    81    82   ar
    56    92    93   ar
    57    83    85   ar
    58    35    37   ar
    59    88    89    1
    60   121   123   ar
    61   121   120   ar
    62    82    84   ar
    63    25    24   ar
    64   123   124   ar
    65   119   120    1
    66   119   116    1
    67    85    86   ar
    68   120   122   ar
    69    34    36   ar
    70    21    20    1
    71    21    22    2
    72    20    23    1
    73    20    19    1
    74   118   117    2
    75    37    36   ar
    76    84    86   ar
    77   124   122   ar
    78   124   126   ar
    79    89    90    2
    80    89    95   am
    81   129   130    1
    82   122   125   ar
    83    23    24    1
    84    24    26   ar
    85   130   133    1
    86   130   131    1
    87   114   113    1
    88   126   128   ar
    89   133   134    1
    90   116   117    1
    91   116   115    1
    92   125   127   ar
    93    95    96    1
    94   134   135    1
    95   135   136   ar
    96   135   137   ar
    97   131   132    2
    98   128   127   ar
    99   113   112    1
   100   107   108    1
   101   111   108    1
   102   111   112    1
   103    96    97    1
   104    96    99    1
   105   108   109    1
   106    98    97    2
   107    99   100    1
   108   110   109    2
   109    12    13    1
   110    12     9    1
   111    15    13   ar
   112    15    17   ar
   113    13    14   ar
   114    17    18   ar
   115    14    16   ar
   116   100   102   ar
   117   100   101   ar
   118     7     5    1
   119    18    16   ar
   120   102   104   ar
   121     5     6    1
   122     5     2    1
   123     9     8    1
   124     9    10    1
   125     4     3    2
   126   101   103   ar
   127    10    11    2
   128     3     2    1
   129     2     1    1
   130   104   105   ar
   131   103   105   ar
   132   105   106    1
