@<TRIPOS>MOLECULE
tmp/5xxsB00.pdb
 145 143 0 0 0
SMALL
GASTEIGER

@<TRIPOS>ATOM
      1  N         10.3540   -3.5170   42.5810 N.3    19  PHE19      -0.1227
      2  CA        10.1060   -3.7240   41.1530 C.3    19  PHE19       0.1736
      3  C          8.8210   -3.0560   40.6080 C.2    19  PHE19       0.2595
      4  O          8.6570   -2.9670   39.3930 O.2    19  PHE19      -0.2718
      5  CB        10.1560   -5.2160   40.8130 C.3    19  PHE19       0.0547
      6  CG        11.4900   -5.8370   41.0920 C.ar   19  PHE19      -0.0202
      7  CD1       12.5690   -5.5630   40.2760 C.ar   19  PHE19      -0.0042
      8  CD2       11.6810   -6.6530   42.2010 C.ar   19  PHE19      -0.0042
      9  CE1       13.8130   -6.1170   40.5400 C.ar   19  PHE19      -0.0003
     10  CE2       12.9210   -7.2120   42.4630 C.ar   19  PHE19      -0.0003
     11  CZ        13.9860   -6.9420   41.6290 C.ar   19  PHE19      -0.0000
     12  N          7.9290   -2.5900   41.4890 N.am   20  MET20      -0.1966
     13  CA         6.8000   -1.7420   41.0680 C.3    20  MET20       0.1721
     14  C          7.3410   -0.4200   40.5090 C.2    20  MET20       0.2458
     15  O          8.2660    0.1740   41.0980 O.2    20  MET20      -0.2730
     16  CB         5.8290   -1.4610   42.2200 C.3    20  MET20       0.0427
     17  CG         4.9030   -2.6220   42.5840 C.3    20  MET20       0.0599
     18  SD         3.5160   -2.7940   41.4380 S.3    20  MET20      -0.1393
     19  CE         2.4900   -1.3970   41.8740 C.3    20  MET20       0.0692
     20  N          6.7700    0.0530   39.3790 N.am   21  PRO21      -0.2727
     21  CA         7.3230    1.2420   38.7210 C.3    21  PRO21       0.1402
     22  C          7.1510    2.5450   39.5140 C.2    21  PRO21       0.2269
     23  O          7.9650    3.4410   39.3850 O.2    21  PRO21      -0.2865
     24  CB         6.5740    1.2810   37.3890 C.3    21  PRO21       0.0296
     25  CG         5.2830    0.6050   37.6740 C.3    21  PRO21       0.0237
     26  CD         5.6250   -0.4970   38.6350 C.3    21  PRO21       0.0939
     27  N          1.6600   -5.3990   42.7850 N.3    71  ILE71      -0.1231
     28  CA         1.9100   -6.7750   42.3410 C.3    71  ILE71       0.1692
     29  C          3.2900   -6.8670   41.7090 C.2    71  ILE71       0.2593
     30  O          3.6120   -6.1280   40.7810 O.2    71  ILE71      -0.2718
     31  CB         0.7830   -7.3330   41.4140 C.3    71  ILE71       0.0266
     32  CG1        1.1050   -8.7700   40.9540 C.3    71  ILE71       0.0019
     33  CG2        0.5580   -6.4440   40.2010 C.3    71  ILE71       0.0020
     34  CD1       -0.0930   -9.5140   40.4000 C.3    71  ILE71       0.0001
     35  N          4.1140   -7.7710   42.2370 N.am   72  SER72      -0.1938
     36  CA         5.4960   -7.9190   41.7690 C.3    72  SER72       0.2055
     37  C          6.0230   -9.3250   41.9710 C.2    72  SER72       0.2642
     38  O          5.7230   -9.9710   42.9680 O.2    72  SER72      -0.2714
     39  CB         6.4160   -6.8990   42.4560 C.3    72  SER72       0.2130
     40  OG         6.1520   -6.8340   43.8410 O.3    72  SER72      -0.2179
     41  N          6.7900   -9.7870   40.9870 N.am   73  VAL73      -0.1977
     42  CA         7.4510  -11.0700   41.0110 C.3    73  VAL73       0.1596
     43  C          8.9220  -10.8100   40.7270 C.2    73  VAL73       0.2287
     44  O          9.2670   -9.9860   39.8640 O.2    73  VAL73      -0.2864
     45  CB         6.8560  -12.0140   39.9400 C.3    73  VAL73       0.0276
     46  CG1        7.7210  -13.2640   39.7360 C.3    73  VAL73       0.0022
     47  CG2        5.4310  -12.3840   40.3190 C.3    73  VAL73       0.0022
     48  N          9.8630  -14.7580   36.9530 N.3    78  ARG78      -0.1231
     49  CA         8.7640  -14.3070   36.0830 C.3    78  ARG78       0.1694
     50  C          8.5220  -15.2460   34.8950 C.2    78  ARG78       0.2592
     51  O          9.3140  -16.1540   34.6390 O.2    78  ARG78      -0.2718
     52  CB         9.0390  -12.8930   35.5590 C.3    78  ARG78       0.0321
     53  CG         9.0460  -11.8320   36.6430 C.3    78  ARG78       0.0489
     54  CD         9.4800  -10.5080   36.0800 C.3    78  ARG78       0.2205
     55  NE         9.6230   -9.5030   37.1320 N.pl3  78  ARG78      -0.0865
     56  CZ        10.0140   -8.2530   36.9370 C.cat  78  ARG78       0.5346
     57  NH1       10.3150   -7.8170   35.7180 N.pl3  78  ARG78       0.1354
     58  NH2       10.1010   -7.4230   37.9740 N.pl3  78  ARG78       0.1354
     59  N          7.4280  -14.9860   34.1700 N.am   79  HIS79      -0.1962
     60  CA         7.0410  -15.7130   32.9380 C.3    79  HIS79       0.1787
     61  C          6.6400  -17.1700   33.1650 C.2    79  HIS79       0.2620
     62  O          6.7070  -17.9890   32.2460 O.2    79  HIS79      -0.2715
     63  CB         8.1410  -15.6290   31.8700 C.3    79  HIS79       0.0785
     64  CG         8.8220  -14.2990   31.8150 C.ar   79  HIS79       0.0821
     65  ND1        8.2380  -13.1860   31.2510 N.ar   79  HIS79      -0.2267
     66  CD2       10.0300  -13.9000   32.2730 C.ar   79  HIS79       0.1154
     67  CE1        9.0640  -12.1620   31.3540 C.ar   79  HIS79       0.1986
     68  NE2       10.1570  -12.5680   31.9730 N.ar   79  HIS79      -0.2212
     69  N          6.1910  -17.4800   34.3750 N.am   80  GLN80      -0.1963
     70  CA         5.8410  -18.8450   34.7520 C.3    80  GLN80       0.1733
     71  C          4.4410  -18.9260   35.3450 C.2    80  GLN80       0.2617
     72  O          4.1400  -19.8440   36.1060 O.2    80  GLN80      -0.2715
     73  CB         6.8720  -19.3790   35.7430 C.3    80  GLN80       0.0408
     74  CG         8.2730  -19.4280   35.1630 C.3    80  GLN80       0.0908
     75  CD         9.2630  -20.0980   36.0830 C.2    80  GLN80       0.2608
     76  OE1        8.9580  -21.1110   36.6990 O.2    80  GLN80      -0.2717
     77  NE2       10.4660  -19.5300   36.1780 N.am   80  GLN80      -0.0878
     78  N          3.5850  -17.9720   34.9760 N.am   81  GLY81      -0.1940
     79  CA         2.2390  -17.8770   35.5160 C.3    81  GLY81       0.2014
     80  C          2.0840  -17.4080   36.9510 C.2    81  GLY81       0.2639
     81  O          0.9590  -17.4080   37.4500 O.2    81  GLY81      -0.2714
     82  N          3.1720  -17.0070   37.6250 N.am   82  ILE82      -0.1963
     83  CA         3.1050  -16.6710   39.0650 C.3    82  ILE82       0.1727
     84  C          2.2450  -15.4220   39.3470 C.2    82  ILE82       0.2617
     85  O          1.4190  -15.4450   40.2530 O.2    82  ILE82      -0.2715
     86  CB         4.5100  -16.5350   39.7110 C.3    82  ILE82       0.0290
     87  CG1        5.1910  -17.9090   39.7590 C.3    82  ILE82       0.0022
     88  CG2        4.4130  -15.9850   41.1310 C.3    82  ILE82       0.0023
     89  CD1        6.6700  -17.8880   40.0930 C.3    82  ILE82       0.0001
     90  N          2.4360  -14.3550   38.5710 N.am   83  GLY83      -0.1940
     91  CA         1.5870  -13.1490   38.6690 C.3    83  GLY83       0.2014
     92  C          0.0970  -13.4610   38.6160 C.2    83  GLY83       0.2638
     93  O         -0.6850  -12.9820   39.4410 O.2    83  GLY83      -0.2714
     94  N         -0.2750  -14.2820   37.6370 N.am   84  LYS84      -0.1977
     95  CA        -1.6550  -14.7630   37.4450 C.3    84  LYS84       0.1596
     96  C         -2.1250  -15.5750   38.6460 C.2    84  LYS84       0.2287
     97  O         -3.2190  -15.3290   39.1730 O.2    84  LYS84      -0.2864
     98  CB        -1.7360  -15.5830   36.1390 C.3    84  LYS84       0.0298
     99  CG        -3.0270  -16.3400   35.8510 C.3    84  LYS84       0.0038
    100  CD        -4.2590  -15.4560   35.8390 C.3    84  LYS84       0.0206
    101  CE        -5.4700  -16.2310   35.3210 C.3    84  LYS84       0.1093
    102  NZ        -6.7600  -15.6460   35.7770 N.3    84  LYS84      -0.1314
    103  N         -3.0740    1.9720   38.1330 N.3   104  LEU104     -0.1231
    104  CA        -1.7440    1.3980   38.0030 C.3   104  LEU104      0.1693
    105  C         -1.7720   -0.0920   37.6840 C.2   104  LEU104      0.2592
    106  O         -1.0940   -0.5460   36.7700 O.2   104  LEU104     -0.2718
    107  CB        -0.9390    1.6520   39.2730 C.3   104  LEU104      0.0284
    108  CG         0.5260    1.2110   39.2940 C.3   104  LEU104      0.0019
    109  CD1        1.2990    1.7170   38.0750 C.3   104  LEU104      0.0001
    110  CD2        1.1610    1.7240   40.5820 C.3   104  LEU104      0.0001
    111  N         -2.5670   -0.8490   38.4340 N.am  105  THR105     -0.1953
    112  CA        -2.6190   -2.3050   38.2620 C.3   105  THR105      0.1897
    113  C         -3.6410   -2.7790   37.2080 C.2   105  THR105      0.2313
    114  O         -3.7410   -3.9820   36.9680 O.2   105  THR105     -0.2863
    115  CB        -2.9160   -2.9900   39.6030 C.3   105  THR105      0.1794
    116  OG1       -4.2470   -2.6460   40.0090 O.3   105  THR105     -0.2208
    117  CG2       -1.9020   -2.5270   40.6630 C.3   105  THR105      0.0378
    118  N         -3.8040   -2.6670   33.8760 N.3   107  SER107     -0.1202
    119  CA        -3.2920   -3.3410   32.6840 C.3   107  SER107      0.2020
    120  C         -2.9390   -4.8100   32.9320 C.2   107  SER107      0.2618
    121  O         -3.3260   -5.6890   32.1620 O.2   107  SER107     -0.2717
    122  CB        -2.0780   -2.6050   32.1360 C.3   107  SER107      0.2103
    123  OG        -1.5380   -3.3190   31.0410 O.3   107  SER107     -0.2182
    124  N         -2.2050   -5.0890   34.0010 N.am  108  PHE108     -0.1975
    125  CA        -1.9320   -6.4830   34.3410 C.3   108  PHE108      0.1639
    126  C         -3.2040   -7.2340   34.7700 C.2   108  PHE108      0.2290
    127  O         -3.3550   -8.4220   34.4410 O.2   108  PHE108     -0.2864
    128  CB        -0.8160   -6.6280   35.3830 C.3   108  PHE108      0.0560
    129  CG        -0.3430   -8.0520   35.5520 C.ar  108  PHE108     -0.0200
    130  CD1        0.4020   -8.6670   34.5580 C.ar  108  PHE108     -0.0042
    131  CD2       -0.6910   -8.7860   36.6690 C.ar  108  PHE108     -0.0042
    132  CE1        0.8270   -9.9780   34.6870 C.ar  108  PHE108     -0.0003
    133  CE2       -0.2570  -10.0920   36.8270 C.ar  108  PHE108     -0.0003
    134  CZ         0.4910  -10.6960   35.8280 C.ar  108  PHE108     -0.0000
    135  N         -5.2020   -8.3450   31.6940 N.3   111  ARG111     -0.1245
    136  CA        -4.5300   -9.5190   31.1620 C.3   111  ARG111      0.1563
    137  C         -4.8710  -10.8000   31.9390 C.2   111  ARG111      0.2260
    138  O         -5.0500  -11.8630   31.3430 O.2   111  ARG111     -0.2867
    139  CB        -3.0170   -9.2680   31.1270 C.3   111  ARG111      0.0307
    140  CG        -2.1780  -10.4550   30.7090 C.3   111  ARG111      0.0489
    141  CD        -1.6260  -11.1960   31.9080 C.3   111  ARG111      0.2205
    142  NE        -1.1490  -12.5110   31.5290 N.pl3 111  ARG111     -0.0865
    143  CZ        -0.6730  -13.4150   32.3760 C.cat 111  ARG111      0.5346
    144  NH1       -0.5900  -13.1470   33.6780 N.pl3 111  ARG111      0.1354
    145  NH2       -0.2610  -14.5900   31.9160 N.pl3 111  ARG111      0.1354
@<TRIPOS>BOND
     1   140   139    1
     2   140   141    1
     3   123   122    1
     4   139   136    1
     5   136   135    1
     6   136   137    1
     7    65    67   ar
     8    65    64   ar
     9   138   137    2
    10    67    68   ar
    11   142   141    1
    12   142   143    2
    13    64    63    1
    14    64    66   ar
    15    63    60    1
    16   145   143    1
    17    68    66   ar
    18   122   119    1
    19   121   120    2
    20    62    61    2
    21   143   144    1
    22   119   120    1
    23   119   118    1
    24   120   124   am
    25    60    61    1
    26    60    59    1
    27    61    69   am
    28   124   125    1
    29    59    50   am
    30   125   126    1
    31   125   128    1
    32    69    70    1
    33   127   126    2
    34   130   132   ar
    35   130   129   ar
    36    51    50    2
    37   132   134   ar
    38    70    71    1
    39    70    73    1
    40    50    49    1
    41    78    71   am
    42    78    79    1
    43    74    73    1
    44    74    75    1
    45   101   102    1
    46   101   100    1
    47    71    72    2
    48   128   129    1
    49    79    80    1
    50   129   131   ar
    51    52    49    1
    52    52    53    1
    53    57    56    1
    54   134   133   ar
    55   100    99    1
    56    99    98    1
    57    54    53    1
    58    54    55    1
    59    49    48    1
    60    75    77   am
    61    75    76    2
    62    98    95    1
    63   131   133   ar
    64   106   105    2
    65    56    55    2
    66    56    58    1
    67    80    81    2
    68    80    82   am
    69   114   113    2
    70   113   112    1
    71    24    25    1
    72    24    21    1
    73    95    94    1
    74    95    96    1
    75    82    83    1
    76    94    92   am
    77    25    26    1
    78   105   104    1
    79   105   111   am
    80   104   103    1
    81   104   107    1
    82   109   108    1
    83   112   111    1
    84   112   115    1
    85    90    91    1
    86    90    84   am
    87    92    91    1
    88    92    93    2
    89    26    20    1
    90    96    97    2
    91    21    20    1
    92    21    22    1
    93    83    84    1
    94    83    86    1
    95   107   108    1
    96   108   110    1
    97    84    85    2
    98    20    14   am
    99    23    22    2
   100     4     3    2
   101   115   116    1
   102   115   117    1
   103    86    87    1
   104    86    88    1
   105    46    45    1
   106    87    89    1
   107    44    43    2
   108    45    47    1
   109    45    42    1
   110    33    31    1
   111     7     9   ar
   112     7     6   ar
   113    34    32    1
   114    14    13    1
   115    14    15    2
   116     9    11   ar
   117     3     2    1
   118     3    12   am
   119    43    42    1
   120    30    29    2
   121     5     6    1
   122     5     2    1
   123    32    31    1
   124    41    42    1
   125    41    37   am
   126    13    12    1
   127    13    16    1
   128     6     8   ar
   129     2     1    1
   130    31    28    1
   131    18    19    1
   132    18    17    1
   133    11    10   ar
   134    29    35   am
   135    29    28    1
   136    36    37    1
   137    36    35    1
   138    36    39    1
   139    37    38    2
   140     8    10   ar
   141    16    17    1
   142    28    27    1
   143    39    40    1
