@<TRIPOS>MOLECULE
tmp/5xy1A00.pdb
 167 155 0 0 0
SMALL
GASTEIGER

@<TRIPOS>ATOM
      1  N        -24.6900   10.1340  -20.0600 N.3    16  LEU16      -0.1231
      2  CA       -23.7750   10.6900  -19.0710 C.3    16  LEU16       0.1693
      3  C        -24.1840   12.1060  -18.7110 C.2    16  LEU16       0.2592
      4  O        -24.2790   12.4600  -17.5330 O.2    16  LEU16      -0.2718
      5  CB       -22.3480   10.6700  -19.6200 C.3    16  LEU16       0.0284
      6  CG       -21.8880    9.2850  -20.0980 C.3    16  LEU16       0.0019
      7  CD1      -20.4840    9.3290  -20.6810 C.3    16  LEU16       0.0001
      8  CD2      -21.9650    8.2730  -18.9630 C.3    16  LEU16       0.0001
      9  N        -24.4200   12.9120  -19.7390 N.am   17  GLY17      -0.1957
     10  CA       -24.8960   14.2770  -19.5620 C.3    17  GLY17       0.1869
     11  C        -25.8840   14.6470  -20.6460 C.2    17  GLY17       0.2309
     12  O        -25.9240   14.0190  -21.7100 O.2    17  GLY17      -0.2863
     13  N        -24.4350   13.2140  -24.0620 N.3    24  VAL24      -0.1245
     14  CA       -23.2220   12.3980  -24.1100 C.3    24  VAL24       0.1561
     15  C        -23.5540   11.0130  -23.5810 C.2    24  VAL24       0.2260
     16  O        -24.1810   10.8850  -22.5290 O.2    24  VAL24      -0.2867
     17  CB       -22.0750   12.9730  -23.2590 C.3    24  VAL24       0.0252
     18  CG1      -20.8000   12.1810  -23.5110 C.3    24  VAL24       0.0019
     19  CG2      -21.8520   14.4450  -23.5700 C.3    24  VAL24       0.0019
     20  N        -16.9850    7.0720  -25.3210 N.3    36  ALA36      -0.1245
     21  CA       -17.9170    8.1550  -25.0560 C.3    36  ALA36       0.1562
     22  C        -18.3890    8.7100  -26.3970 C.2    36  ALA36       0.2260
     23  O        -17.5910    8.8930  -27.3160 O.2    36  ALA36      -0.2867
     24  CB       -17.2520    9.2390  -24.2200 C.3    36  ALA36       0.0290
     25  N        -20.4970   11.8930  -28.0700 N.3    38  LYS38      -0.1245
     26  CA       -21.1370   13.2020  -27.9640 C.3    38  LYS38       0.1561
     27  C        -22.1810   13.3460  -29.0630 C.2    38  LYS38       0.2260
     28  O        -21.8550   13.2710  -30.2450 O.2    38  LYS38      -0.2867
     29  CB       -20.0990   14.3240  -28.0670 C.3    38  LYS38       0.0271
     30  CG       -20.6040   15.6760  -27.5800 C.3    38  LYS38       0.0035
     31  CD       -19.4740   16.6880  -27.4700 C.3    38  LYS38       0.0206
     32  CE       -19.9930   18.0600  -27.0690 C.3    38  LYS38       0.1093
     33  NZ       -18.8860   19.0380  -26.8810 N.3    38  LYS38      -0.1314
     34  N        -14.7520   21.0830  -33.0550 N.3    53  GLU53      -0.1245
     35  CA       -14.1540   20.4960  -31.8550 C.3    53  GLU53       0.1567
     36  C        -13.3640   19.2350  -32.1980 C.2    53  GLU53       0.2260
     37  O        -12.2120   19.0860  -31.7930 O.2    53  GLU53      -0.2867
     38  CB       -15.2270   20.1450  -30.8220 C.3    53  GLU53       0.0388
     39  CG       -14.6940   19.3440  -29.6430 C.3    53  GLU53       0.1160
     40  CD       -15.7130   19.1590  -28.5400 C.2    53  GLU53       0.3649
     41  OE1      -16.9270   19.1130  -28.8380 O.co2  53  GLU53      -0.2457
     42  OE2      -15.2850   19.0460  -27.3690 O.co2  53  GLU53      -0.2457
     43  N         -9.3000   18.2740  -32.3310 N.3    57  MET57      -0.1245
     44  CA        -8.7710   17.1150  -31.6140 C.3    57  MET57       0.1570
     45  C         -7.9280   16.1830  -32.4820 C.2    57  MET57       0.2261
     46  O         -7.0860   15.4590  -31.9540 O.2    57  MET57      -0.2867
     47  CB        -9.9020   16.3170  -30.9610 C.3    57  MET57       0.0387
     48  CG       -10.5380   17.0230  -29.7780 C.3    57  MET57       0.0595
     49  SD       -12.0160   16.1890  -29.1790 S.3    57  MET57      -0.1393
     50  CE       -11.2860   14.9000  -28.1720 C.3    57  MET57       0.0692
     51  N         -7.9500   14.1910  -23.6460 N.3    66  VAL66      -0.1245
     52  CA        -8.8960   13.1490  -24.0400 C.3    66  VAL66       0.1561
     53  C         -8.7650   12.8810  -25.5320 C.2    66  VAL66       0.2260
     54  O         -8.8810   13.7860  -26.3540 O.2    66  VAL66      -0.2867
     55  CB       -10.3510   13.5170  -23.6880 C.3    66  VAL66       0.0252
     56  CG1      -11.3350   12.5430  -24.3230 C.3    66  VAL66       0.0019
     57  CG2      -10.5370   13.5330  -22.1790 C.3    66  VAL66       0.0019
     58  N        -19.5550   12.2340  -31.9590 N.3    80  ILE80      -0.1245
     59  CA       -18.0980   12.3330  -31.8210 C.3    80  ILE80       0.1561
     60  C        -17.6670   11.2920  -30.7960 C.2    80  ILE80       0.2260
     61  O        -18.2040   11.2490  -29.6910 O.2    80  ILE80      -0.2867
     62  CB       -17.6280   13.7260  -31.3620 C.3    80  ILE80       0.0252
     63  CG1      -18.1890   14.8120  -32.2830 C.3    80  ILE80       0.0019
     64  CG2      -16.1020   13.7960  -31.3470 C.3    80  ILE80       0.0019
     65  CD1      -17.8320   16.2230  -31.8670 C.3    80  ILE80       0.0001
     66  N        -14.8540    9.4440  -28.4430 N.3    82  THR82      -0.1203
     67  CA       -13.5930    9.6160  -27.7220 C.3    82  THR82       0.1994
     68  C        -13.3500    8.4520  -26.7720 C.2    82  THR82       0.2618
     69  O        -14.2100    7.5860  -26.6110 O.2    82  THR82      -0.2717
     70  CB       -13.6120   10.9050  -26.8880 C.3    82  THR82       0.1784
     71  OG1      -14.5410   10.7580  -25.8070 O.3    82  THR82      -0.2211
     72  CG2      -14.0210   12.0890  -27.7440 C.3    82  THR82       0.0376
     73  N        -12.1800    8.4490  -26.1360 N.am   83  GLU83      -0.1965
     74  CA       -11.8970    7.5060  -25.0610 C.3    83  GLU83       0.1733
     75  C        -12.8230    7.7640  -23.8740 C.2    83  GLU83       0.2616
     76  O        -13.1360    8.9120  -23.5570 O.2    83  GLU83      -0.2715
     77  CB       -10.4250    7.5810  -24.6170 C.3    83  GLU83       0.0429
     78  CG       -10.0340    8.7920  -23.7830 C.3    83  GLU83       0.1163
     79  CD        -8.5660    8.7780  -23.3940 C.2    83  GLU83       0.3649
     80  OE1       -7.8160    9.6760  -23.8360 O.co2  83  GLU83      -0.2457
     81  OE2       -8.1550    7.8630  -22.6490 O.co2  83  GLU83      -0.2457
     82  N        -13.2530    6.6820  -23.2290 N.am   84  TYR84      -0.1960
     83  CA       -14.1050    6.7580  -22.0510 C.3    84  TYR84       0.1771
     84  C        -13.2700    6.8850  -20.7740 C.2    84  TYR84       0.2619
     85  O        -12.2380    6.2350  -20.6270 O.2    84  TYR84      -0.2715
     86  CB       -14.9900    5.5190  -21.9760 C.3    84  TYR84       0.0574
     87  CG       -15.9070    5.4960  -20.7800 C.ar   84  TYR84      -0.0198
     88  CD1      -16.9780    6.3770  -20.6840 C.ar   84  TYR84      -0.0009
     89  CD2      -15.7100    4.5900  -19.7460 C.ar   84  TYR84      -0.0009
     90  CE1      -17.8230    6.3610  -19.5870 C.ar   84  TYR84       0.0417
     91  CE2      -16.5530    4.5640  -18.6490 C.ar   84  TYR84       0.0417
     92  CZ       -17.6050    5.4520  -18.5760 C.ar   84  TYR84       0.1957
     93  OH       -18.4380    5.4290  -17.4890 O.3    84  TYR84      -0.2866
     94  N        -13.7350    7.7310  -19.8620 N.am   85  MET85      -0.1963
     95  CA       -13.0950    7.9660  -18.5770 C.3    85  MET85       0.1736
     96  C        -14.1010    7.5510  -17.5200 C.2    85  MET85       0.2616
     97  O        -15.2150    8.0570  -17.4960 O.2    85  MET85      -0.2715
     98  CB       -12.7410    9.4420  -18.4180 C.3    85  MET85       0.0427
     99  CG       -12.0030   10.0320  -19.6070 C.3    85  MET85       0.0599
    100  SD       -10.3800    9.2940  -19.7940 S.3    85  MET85      -0.1393
    101  CE        -9.4750   10.1140  -18.4850 C.3    85  MET85       0.0692
    102  N        -13.7060    6.6330  -16.6490 N.am   86  ALA86      -0.1963
    103  CA       -14.6490    5.9260  -15.7920 C.3    86  ALA86       0.1728
    104  C        -15.2830    6.7890  -14.7140 C.2    86  ALA86       0.2616
    105  O        -16.4230    6.5450  -14.3230 O.2    86  ALA86      -0.2715
    106  CB       -13.9650    4.7250  -15.1570 C.3    86  ALA86       0.0334
    107  N        -14.5580    7.7940  -14.2320 N.am   87  LYS87      -0.1963
    108  CA       -15.0170    8.5650  -13.0700 C.3    87  LYS87       0.1728
    109  C        -15.6100    9.9360  -13.4120 C.2    87  LYS87       0.2617
    110  O        -15.9120   10.7270  -12.5110 O.2    87  LYS87      -0.2715
    111  CB       -13.8760    8.7040  -12.0650 C.3    87  LYS87       0.0311
    112  CG       -13.2450    7.3630  -11.7100 C.3    87  LYS87       0.0038
    113  CD       -12.8160    7.2870  -10.2520 C.3    87  LYS87       0.0206
    114  CE       -12.3500    5.8880   -9.8720 C.3    87  LYS87       0.1093
    115  NZ       -13.3950    4.8540  -10.1260 N.3    87  LYS87      -0.1314
    116  N        -15.8010   10.2050  -14.7040 N.am   88  GLY88      -0.1940
    117  CA       -16.3800   11.4670  -15.1460 C.3    88  GLY88       0.2014
    118  C        -15.4690   12.6390  -14.8660 C.2    88  GLY88       0.2639
    119  O        -14.2480   12.4950  -14.8530 O.2    88  GLY88      -0.2714
    120  N        -16.0640   13.8040  -14.6310 N.am   89  SER89      -0.1949
    121  CA       -15.2830   15.0230  -14.4530 C.3    89  SER89       0.1924
    122  C        -14.5300   15.0220  -13.1310 C.2    89  SER89       0.2314
    123  O        -14.9210   14.3530  -12.1720 O.2    89  SER89      -0.2863
    124  CB       -16.1830   16.2550  -14.5290 C.3    89  SER89       0.2116
    125  OG       -17.0620   16.3140  -13.4200 O.3    89  SER89      -0.2180
    126  N        -17.0150   16.0040  -10.5980 N.3    92  ASP92      -0.1239
    127  CA       -17.8750   14.9070  -10.1450 C.3    92  ASP92       0.1674
    128  C        -17.1290   14.0400   -9.1390 C.2    92  ASP92       0.2266
    129  O        -17.6630   13.6860   -8.0840 O.2    92  ASP92      -0.2867
    130  CB       -18.3200   14.0280  -11.3230 C.3    92  ASP92       0.1410
    131  CG       -19.2820   14.7370  -12.2700 C.2    92  ASP92       0.3668
    132  OD1      -20.2200   15.4090  -11.7860 O.co2  92  ASP92      -0.2456
    133  OD2      -19.0960   14.6070  -13.5040 O.co2  92  ASP92      -0.2456
    134  N        -14.7820   20.9680  -14.4620 N.3   134  ALA134     -0.1231
    135  CA       -15.8470   20.2950  -15.2170 C.3   134  ALA134      0.1694
    136  C        -15.3690   19.7610  -16.5750 C.2   134  ALA134      0.2592
    137  O        -15.9260   18.7890  -17.0850 O.2   134  ALA134     -0.2718
    138  CB       -17.0330   21.2260  -15.4040 C.3   134  ALA134      0.0304
    139  N        -14.3390   20.3850  -17.1440 N.am  135  ASN135     -0.1974
    140  CA       -13.7710   19.9430  -18.4190 C.3   135  ASN135      0.1688
    141  C        -12.4810   19.1180  -18.2850 C.2   135  ASN135      0.2292
    142  O        -11.7340   18.9460  -19.2490 O.2   135  ASN135     -0.2864
    143  CB       -13.5420   21.1580  -19.3160 C.3   135  ASN135      0.1181
    144  CG       -14.8040   21.9790  -19.5100 C.2   135  ASN135      0.2629
    145  OD1      -15.9090   21.4370  -19.5590 O.2   135  ASN135     -0.2716
    146  ND2      -14.6480   23.2900  -19.6050 N.am  135  ASN135     -0.0877
    147  N        -11.4590   15.2700  -17.1170 N.3   137  LEU137     -0.1245
    148  CA       -12.0610   13.9760  -16.8200 C.3   137  LEU137      0.1561
    149  C        -11.0910   13.0870  -16.0460 C.2   137  LEU137      0.2260
    150  O         -9.8890   13.3540  -16.0150 O.2   137  LEU137     -0.2867
    151  CB       -12.5140   13.3020  -18.1150 C.3   137  LEU137      0.0270
    152  CG       -13.5370   14.1130  -18.9240 C.3   137  LEU137      0.0019
    153  CD1      -13.8650   13.4060  -20.2270 C.3   137  LEU137      0.0001
    154  CD2      -14.8070   14.3850  -18.1340 C.3   137  LEU137      0.0001
    155  N        -10.6040   17.6530  -21.3810 N.3   147  ALA147     -0.1231
    156  CA       -11.6490   17.0520  -22.2180 C.3   147  ALA147      0.1694
    157  C        -12.2760   17.9720  -23.2670 C.2   147  ALA147      0.2592
    158  O        -12.1070   17.7480  -24.4640 O.2   147  ALA147     -0.2718
    159  CB       -12.7360   16.4770  -21.3360 C.3   147  ALA147      0.0304
    160  N        -13.0160   18.9840  -22.8280 N.am  148  ASP148     -0.1974
    161  CA       -13.8170   19.7940  -23.7480 C.3   148  ASP148      0.1709
    162  C        -12.9950   20.8870  -24.4330 C.2   148  ASP148      0.2293
    163  O        -12.5480   21.8240  -23.7800 O.2   148  ASP148     -0.2864
    164  CB       -14.9990   20.4210  -23.0030 C.3   148  ASP148      0.1436
    165  CG       -15.7840   21.3980  -23.8640 C.2   148  ASP148      0.3671
    166  OD1      -16.0260   21.0990  -25.0540 O.co2 148  ASP148     -0.2456
    167  OD2      -16.1580   22.4740  -23.3490 O.co2 148  ASP148     -0.2456
@<TRIPOS>BOND
     1    34    35    1
     2    45    46    2
     3    45    44    1
     4    43    44    1
     5    63    65    1
     6    63    62    1
     7    36    35    1
     8    36    37    2
     9    58    59    1
    10    35    38    1
    11    59    62    1
    12    59    60    1
    13    44    47    1
    14    62    64    1
    15    47    48    1
    16    38    39    1
    17    60    61    2
    18    28    27    2
    19    48    49    1
    20    39    40    1
    21    49    50    1
    22    27    26    1
    23    41    40   ar
    24    40    42   ar
    25    66    67    1
    26    25    26    1
    27    29    26    1
    28    29    30    1
    29    72    70    1
    30    67    70    1
    31    67    68    1
    32    30    31    1
    33    31    32    1
    34    23    22    2
    35    32    33    1
    36    70    71    1
    37    68    69    2
    38    68    73   am
    39    22    21    1
    40    54    53    2
    41    73    74    1
    42    53    52    1
    43    20    21    1
    44    74    77    1
    45    74    75    1
    46    21    24    1
    47   166   165   ar
    48    77    78    1
    49   158   157    2
    50   162   163    2
    51   162   161    1
    52    56    55    1
    53    14    13    1
    54    14    15    1
    55    14    17    1
    56    52    55    1
    57    52    51    1
    58    75    76    2
    59    75    82   am
    60   165   167   ar
    61   165   164    1
    62    80    79   ar
    63    78    79    1
    64   161   164    1
    65   161   160    1
    66    55    57    1
    67    15    16    2
    68    19    17    1
    69    18    17    1
    70    79    81   ar
    71   157   160   am
    72   157   156    1
    73    82    83    1
    74   156   155    1
    75   156   159    1
    76    83    86    1
    77    83    84    1
    78    86    87    1
    79    12    11    2
    80    87    88   ar
    81    87    89   ar
    82    84    85    2
    83    84    94   am
    84    88    90   ar
    85     7     6    1
    86    11    10    1
    87   153   152    1
    88     6     5    1
    89     6     8    1
    90     1     2    1
    91    94    95    1
    92   100    99    1
    93   100   101    1
    94    89    91   ar
    95     9    10    1
    96     9     3   am
    97     5     2    1
    98    99    98    1
    99   146   144   am
   100    90    92   ar
   101   145   144    2
   102   144   143    1
   103   143   140    1
   104   142   141    2
   105     2     3    1
   106   152   154    1
   107   152   151    1
   108     3     4    2
   109    91    92   ar
   110    95    98    1
   111    95    96    1
   112    92    93    1
   113   140   141    1
   114   140   139    1
   115   151   148    1
   116    96    97    2
   117    96   102   am
   118   139   136   am
   119   147   148    1
   120   137   136    2
   121   148   149    1
   122   102   103    1
   123   136   135    1
   124   149   150    2
   125   103   106    1
   126   103   104    1
   127   138   135    1
   128   135   134    1
   129   117   118    1
   130   117   116    1
   131   118   119    2
   132   118   120   am
   133   104   105    2
   134   104   107   am
   135   116   109   am
   136   120   121    1
   137   124   121    1
   138   124   125    1
   139   121   122    1
   140   107   108    1
   141   133   131   ar
   142   109   108    1
   143   109   110    2
   144   122   123    2
   145   108   111    1
   146   131   132   ar
   147   131   130    1
   148   111   112    1
   149   112   113    1
   150   130   127    1
   151   126   127    1
   152   113   114    1
   153   127   128    1
   154   115   114    1
   155   128   129    2
