@<TRIPOS>MOLECULE
tmp/5xy4C01.pdb
 72 67 0 0 0
SMALL
GASTEIGER

@<TRIPOS>ATOM
      1  N        -33.3470    9.2050  -81.5870 N.3   537  THR537     -0.1218
      2  CA       -33.0430   10.5210  -82.0910 C.3   537  THR537      0.1862
      3  C        -33.9650   11.5280  -81.3960 C.2   537  THR537      0.2287
      4  O        -35.0890   11.1930  -81.0660 O.2   537  THR537     -0.2866
      5  CB       -33.2030   10.6510  -83.6040 C.3   537  THR537      0.1770
      6  OG1      -32.9710   12.0310  -83.9740 O.3   537  THR537     -0.2211
      7  CG2      -34.5740   10.2450  -84.1110 C.3   537  THR537      0.0375
      8  N        -34.6830   14.2780  -83.0540 N.3   539  SER539     -0.1202
      9  CA       -35.3160   14.9520  -84.1900 C.3   539  SER539      0.2020
     10  C        -36.7420   14.4400  -84.4170 C.2   539  SER539      0.2618
     11  O        -37.4530   15.0390  -85.2030 O.2   539  SER539     -0.2717
     12  CB       -34.5060   14.8040  -85.4390 C.3   539  SER539      0.2103
     13  OG       -34.4200   13.4420  -85.8170 O.3   539  SER539     -0.2182
     14  N        -37.1710   13.3720  -83.7200 N.am  540  GLU540     -0.1979
     15  CA       -38.5360   12.8020  -83.8790 C.3   540  GLU540      0.1602
     16  C        -39.0910   12.4940  -82.4970 C.2   540  GLU540      0.2287
     17  O        -38.5590   11.6070  -81.7660 O.2   540  GLU540     -0.2864
     18  CB       -38.5290   11.5240  -84.7200 C.3   540  GLU540      0.0415
     19  CG       -38.1150   11.7280  -86.1660 C.3   540  GLU540      0.1163
     20  CD       -38.9730   12.6850  -86.9790 C.2   540  GLU540      0.3649
     21  OE1      -40.0720   13.0890  -86.4980 O.co2 540  GLU540     -0.2457
     22  OE2      -38.5350   13.0480  -88.1070 O.co2 540  GLU540     -0.2457
     23  N        -41.7140   10.9160  -81.9640 N.3   542  SER542     -0.1217
     24  CA       -42.1060    9.5040  -82.1090 C.3   542  SER542      0.1889
     25  C        -40.9550    8.5370  -81.7430 C.2   542  SER542      0.2288
     26  O        -41.1860    7.4620  -81.2190 O.2   542  SER542     -0.2866
     27  CB       -42.5870    9.2340  -83.4810 C.3   542  SER542      0.2089
     28  OG       -41.5610    8.6270  -84.2460 O.3   542  SER542     -0.2183
     29  N        -37.5340    2.7290  -85.2180 N.3   591  ASP591     -0.1225
     30  CA       -37.6040    3.0110  -86.6550 C.3   591  ASP591      0.1805
     31  C        -37.9790    4.4970  -86.9730 C.2   591  ASP591      0.2598
     32  O        -37.6650    4.9470  -88.0610 O.2   591  ASP591     -0.2718
     33  CB       -38.5340    2.0850  -87.4360 C.3   591  ASP591      0.1424
     34  CG       -40.0090    2.3360  -87.2570 C.2   591  ASP591      0.3668
     35  OD1      -40.3980    3.1320  -86.3870 O.co2 591  ASP591     -0.2456
     36  OD2      -40.7350    1.5870  -87.8630 O.co2 591  ASP591     -0.2456
     37  N        -38.4720    5.2870  -85.9990 N.am  592  GLY592     -0.1942
     38  CA       -38.4270    6.7840  -86.0480 C.3   592  GLY592      0.2014
     39  C        -37.0030    7.3970  -86.1690 C.2   592  GLY592      0.2639
     40  O        -36.8830    8.5770  -86.5250 O.2   592  GLY592     -0.2714
     41  N        -35.9340    6.6470  -85.9080 N.am  593  ALA593     -0.1963
     42  CA       -34.5120    7.1660  -85.9770 C.3   593  ALA593      0.1728
     43  C        -33.8200    6.7420  -87.2840 C.2   593  ALA593      0.2616
     44  O        -32.6040    6.9300  -87.4050 O.2   593  ALA593     -0.2715
     45  CB       -33.7240    6.6720  -84.7630 C.3   593  ALA593      0.0334
     46  N        -34.5560    6.1830  -88.2440 N.am  594  ALA594     -0.1963
     47  CA       -33.9450    5.5450  -89.4620 C.3   594  ALA594      0.1728
     48  C        -33.0530    6.5280  -90.2330 C.2   594  ALA594      0.2616
     49  O        -32.0420    6.1150  -90.7690 O.2   594  ALA594     -0.2715
     50  CB       -34.9920    4.9530  -90.3630 C.3   594  ALA594      0.0334
     51  N        -33.3570    7.8330  -90.2180 N.am  595  ALA595     -0.1963
     52  CA       -32.5870    8.8240  -90.9790 C.3   595  ALA595      0.1728
     53  C        -31.1350    8.9490  -90.4900 C.2   595  ALA595      0.2616
     54  O        -30.2600    9.3390  -91.2620 O.2   595  ALA595     -0.2715
     55  CB       -33.2960   10.1600  -90.9720 C.3   595  ALA595      0.0334
     56  N        -30.8280    8.6220  -89.2230 N.am  596  LEU596     -0.1977
     57  CA       -29.4510    8.6910  -88.7180 C.3   596  LEU596      0.1596
     58  C        -28.5680    7.6070  -89.3360 C.2   596  LEU596      0.2287
     59  O        -27.3270    7.6490  -89.1060 O.2   596  LEU596     -0.2864
     60  CB       -29.4160    8.4960  -87.2010 C.3   596  LEU596      0.0297
     61  CG       -29.6200    9.7510  -86.3630 C.3   596  LEU596      0.0022
     62  CD1      -30.8120   10.5370  -86.8730 C.3   596  LEU596      0.0001
     63  CD2      -29.7750    9.3940  -84.9170 C.3   596  LEU596      0.0001
     64  N        -34.6410    0.1380  -94.5300 N.3   634  GLU634     -0.1245
     65  CA       -33.6510    1.2600  -94.5890 C.3   634  GLU634      0.1567
     66  C        -32.4620    1.0600  -93.5900 C.2   634  GLU634      0.2260
     67  O        -31.2970    1.2130  -93.9760 O.2   634  GLU634     -0.2867
     68  CB       -34.4290    2.5530  -94.3460 C.3   634  GLU634      0.0388
     69  CG       -33.6490    3.8400  -94.5400 C.3   634  GLU634      0.1160
     70  CD       -34.4270    5.1130  -94.1890 C.2   634  GLU634      0.3649
     71  OE1      -35.6750    5.0630  -94.1300 O.co2 634  GLU634     -0.2457
     72  OE2      -33.7950    6.1800  -94.0520 O.co2 634  GLU634     -0.2457
@<TRIPOS>BOND
     1    65    64    1
     2    65    68    1
     3    65    66    1
     4    69    68    1
     5    69    70    1
     6    70    71   ar
     7    70    72   ar
     8    67    66    2
     9    54    53    2
    10    52    55    1
    11    52    53    1
    12    52    51    1
    13    49    48    2
    14    53    56   am
    15    50    47    1
    16    48    51   am
    17    48    47    1
    18    47    46    1
    19    58    59    2
    20    58    57    1
    21    56    57    1
    22    57    60    1
    23    46    43   am
    24    22    20   ar
    25    32    31    2
    26    36    34   ar
    27    33    34    1
    28    33    30    1
    29    44    43    2
    30    43    42    1
    31    34    35   ar
    32    60    61    1
    33    20    21   ar
    34    20    19    1
    35    31    30    1
    36    31    37   am
    37    62    61    1
    38    30    29    1
    39    40    39    2
    40    61    63    1
    41    39    38    1
    42    39    41   am
    43    19    18    1
    44    38    37    1
    45    42    41    1
    46    42    45    1
    47    13    12    1
    48    12     9    1
    49    11    10    2
    50    18    15    1
    51    10     9    1
    52    10    14   am
    53    28    27    1
    54     9     8    1
    55     7     5    1
    56     6     5    1
    57    15    14    1
    58    15    16    1
    59     5     2    1
    60    27    24    1
    61    16    17    2
    62    24    23    1
    63    24    25    1
    64     2     1    1
    65     2     3    1
    66    25    26    2
    67     3     4    2
