@<TRIPOS>MOLECULE
tmp/5xy4B00.pdb
 230 222 0 0 0
SMALL
GASTEIGER

@<TRIPOS>ATOM
      1  N         14.6240    5.3230  -31.7260 N.3    59  ARG59      -0.1231
      2  CA        14.5950    6.7370  -32.0070 C.3    59  ARG59       0.1694
      3  C         16.0380    7.2350  -32.3050 C.2    59  ARG59       0.2592
      4  O         17.0110    6.7890  -31.6760 O.2    59  ARG59      -0.2718
      5  CB        14.0210    7.4760  -30.8040 C.3    59  ARG59       0.0321
      6  CG        12.5770    7.1530  -30.4320 C.3    59  ARG59       0.0489
      7  CD        12.3260    7.5070  -28.9420 C.3    59  ARG59       0.2205
      8  NE        10.9430    7.4210  -28.4830 N.pl3  59  ARG59      -0.0865
      9  CZ        10.2360    6.3150  -28.3510 C.cat  59  ARG59       0.5346
     10  NH1       10.7780    5.1240  -28.5770 N.pl3  59  ARG59       0.1354
     11  NH2        8.9610    6.4190  -28.0080 N.pl3  59  ARG59       0.1354
     12  N         16.1960    8.2450  -33.1740 N.am   60  ALA60      -0.1966
     13  CA        17.5200    8.7310  -33.5580 C.3    60  ALA60       0.1728
     14  C         18.2550    9.4030  -32.3820 C.2    60  ALA60       0.2616
     15  O         19.4690    9.4110  -32.3230 O.2    60  ALA60      -0.2715
     16  CB        17.3500    9.7340  -34.7060 C.3    60  ALA60       0.0334
     17  N         17.4900   10.0450  -31.4920 N.am   61  VAL61      -0.1963
     18  CA        17.9420   10.4850  -30.1700 C.3    61  VAL61       0.1727
     19  C         16.8710   10.0600  -29.1350 C.2    61  VAL61       0.2616
     20  O         15.7120    9.7770  -29.5080 O.2    61  VAL61      -0.2715
     21  CB        18.1630   12.0140  -30.1220 C.3    61  VAL61       0.0290
     22  CG1       19.4080   12.4160  -30.8980 C.3    61  VAL61       0.0023
     23  CG2       16.9790   12.7780  -30.6910 C.3    61  VAL61       0.0023
     24  N         17.2170   10.0770  -27.8370 N.am   62  HIS62      -0.1973
     25  CA        16.3340    9.6850  -26.7800 C.3    62  HIS62       0.1656
     26  C         15.8820    8.2540  -26.9530 C.2    62  HIS62       0.2291
     27  O         14.7920    7.8870  -26.5160 O.2    62  HIS62      -0.2864
     28  CB        15.1450   10.6630  -26.6610 C.3    62  HIS62       0.0771
     29  CG        15.5370   12.0780  -26.4200 C.ar   62  HIS62       0.0820
     30  ND1       15.4530   12.6330  -25.1610 N.ar   62  HIS62      -0.2267
     31  CD2       15.9370   13.0870  -27.2390 C.ar   62  HIS62       0.1154
     32  CE1       15.8240   13.9310  -25.2060 C.ar   62  HIS62       0.1986
     33  NE2       16.1090   14.2320  -26.4660 N.ar   62  HIS62      -0.2212
     34  N          6.9360   10.2280  -21.5590 N.3    99  ARG99      -0.1245
     35  CA         8.1510    9.4350  -21.7030 C.3    99  ARG99       0.1563
     36  C          9.3500   10.2610  -21.2500 C.2    99  ARG99       0.2260
     37  O          9.5320   11.4350  -21.6740 O.2    99  ARG99      -0.2867
     38  CB         8.3700    8.9590  -23.1350 C.3    99  ARG99       0.0307
     39  CG         9.4070    7.8420  -23.3090 C.3    99  ARG99       0.0489
     40  CD         9.4330    7.2830  -24.7450 C.3    99  ARG99       0.2205
     41  NE        10.5840    6.3890  -25.0190 N.pl3  99  ARG99      -0.0865
     42  CZ        11.8060    6.8270  -25.3550 C.cat  99  ARG99       0.5346
     43  NH1       12.0700    8.1410  -25.4490 N.pl3  99  ARG99       0.1354
     44  NH2       12.7540    5.9190  -25.6080 N.pl3  99  ARG99       0.1354
     45  N         13.7320   10.0130  -20.8200 N.3   101  SER101     -0.1217
     46  CA        14.7670    9.4290  -21.5500 C.3   101  SER101      0.1889
     47  C         16.1270   10.0730  -21.2610 C.2   101  SER101      0.2288
     48  O         16.2010   11.1810  -20.7340 O.2   101  SER101     -0.2866
     49  CB        14.4370    9.5900  -23.0050 C.3   101  SER101      0.2089
     50  OG        14.2120   10.9420  -23.3330 O.3   101  SER101     -0.2183
     51  N         15.3140   13.6570  -21.5510 N.3   118  GLY118     -0.1210
     52  CA        14.0240   14.0100  -22.1460 C.3   118  GLY118      0.1956
     53  C         12.9060   13.8920  -21.1260 C.2   118  GLY118      0.2612
     54  O         12.9050   13.0460  -20.2170 O.2   118  GLY118     -0.2717
     55  N         11.9040   14.7360  -21.3190 N.am  119  PHE119     -0.1962
     56  CA        10.6660   14.7590  -20.5120 C.3   119  PHE119      0.1771
     57  C          9.5430   15.1860  -21.4620 C.2   119  PHE119      0.2619
     58  O          9.3400   16.3740  -21.6790 O.2   119  PHE119     -0.2715
     59  CB        10.8230   15.6950  -19.3190 C.3   119  PHE119      0.0574
     60  CG         9.7560   15.6840  -18.2420 C.ar  119  PHE119     -0.0200
     61  CD1        8.4330   15.3710  -18.5100 C.ar  119  PHE119     -0.0042
     62  CD2       10.0810   16.0810  -16.9600 C.ar  119  PHE119     -0.0042
     63  CE1        7.4680   15.4140  -17.5200 C.ar  119  PHE119     -0.0003
     64  CE2        9.1240   16.1300  -15.9640 C.ar  119  PHE119     -0.0003
     65  CZ         7.8040   15.8390  -16.2490 C.ar  119  PHE119     -0.0000
     66  N          8.9340   14.1910  -22.0890 N.am  120  ALA120     -0.1977
     67  CA         7.9690   14.4240  -23.1770 C.3   120  ALA120      0.1597
     68  C          6.5850   14.0710  -22.6510 C.2   120  ALA120      0.2287
     69  O          6.3680   12.9640  -22.1760 O.2   120  ALA120     -0.2864
     70  CB         8.3400   13.6100  -24.3680 C.3   120  ALA120      0.0319
     71  N          7.3840   18.5860  -25.7010 N.3   133  VAL133     -0.1231
     72  CA         8.5100   17.7150  -25.8600 C.3   133  VAL133      0.1692
     73  C          9.7150   18.4440  -25.2690 C.2   133  VAL133      0.2593
     74  O         10.3590   19.3270  -25.9020 O.2   133  VAL133     -0.2718
     75  CB         8.6980   17.3330  -27.3340 C.3   133  VAL133      0.0266
     76  CG1        9.8480   16.3550  -27.4840 C.3   133  VAL133      0.0020
     77  CG2        7.4260   16.7970  -27.9450 C.3   133  VAL133      0.0020
     78  N          9.9280   18.1690  -23.9760 N.am  134  GLY134     -0.1942
     79  CA        10.8790   18.9310  -23.1700 C.3   134  GLY134      0.2014
     80  C         12.0760   18.1090  -22.7210 C.2   134  GLY134      0.2638
     81  O         12.1930   16.9170  -23.0090 O.2   134  GLY134     -0.2714
     82  N         12.9650   18.7750  -21.9780 N.am  135  ASN135     -0.1972
     83  CA        14.1770   18.1530  -21.3940 C.3   135  ASN135      0.1688
     84  C         14.2560   18.5320  -19.9170 C.2   135  ASN135      0.2292
     85  O         13.5610   19.4470  -19.4660 O.2   135  ASN135     -0.2864
     86  CB        15.4660   18.5800  -22.0950 C.3   135  ASN135      0.1181
     87  CG        15.7320   17.8690  -23.4040 C.2   135  ASN135      0.2629
     88  OD1       15.2000   16.7820  -23.6910 O.2   135  ASN135     -0.2716
     89  ND2       16.5940   18.4540  -24.1990 N.am  135  ASN135     -0.0877
     90  N         19.3420   24.6010  -24.4840 N.3   140  PHE140     -0.1241
     91  CA        19.8400   23.5890  -25.4440 C.3   140  PHE140      0.1605
     92  C         21.2180   23.9910  -25.9740 C.2   140  PHE140      0.2264
     93  O         21.6250   25.1610  -25.9340 O.2   140  PHE140     -0.2867
     94  CB        18.8480   23.3570  -26.5820 C.3   140  PHE140      0.0534
     95  CG        19.0010   21.9750  -27.1670 C.ar  140  PHE140     -0.0203
     96  CD1       18.7490   20.8770  -26.3790 C.ar  140  PHE140     -0.0042
     97  CD2       19.5200   21.7440  -28.4280 C.ar  140  PHE140     -0.0042
     98  CE1       18.9040   19.5850  -26.8800 C.ar  140  PHE140     -0.0003
     99  CE2       19.6600   20.4550  -28.9260 C.ar  140  PHE140     -0.0003
    100  CZ        19.3980   19.3760  -28.1360 C.ar  140  PHE140     -0.0000
    101  N         18.3870   24.6020  -35.6440 N.3   145  ALA145     -0.1245
    102  CA        18.0430   23.1860  -35.7890 C.3   145  ALA145      0.1562
    103  C         18.9120   22.5180  -36.8640 C.2   145  ALA145      0.2260
    104  O         19.1390   21.3080  -36.7920 O.2   145  ALA145     -0.2867
    105  CB        16.5960   23.0450  -36.0910 C.3   145  ALA145      0.0290
    106  N         21.7160   20.1940  -35.6760 N.3   148  PHE148     -0.1228
    107  CA        21.4380   19.1350  -34.7640 C.3   148  PHE148      0.1721
    108  C         22.2480   17.8960  -35.1430 C.2   148  PHE148      0.2437
    109  O         22.7830   17.2390  -34.2450 O.2   148  PHE148     -0.2733
    110  CB        19.9420   18.8450  -34.6760 C.3   148  PHE148      0.0547
    111  CG        19.5290   17.9250  -33.5610 C.ar  148  PHE148     -0.0202
    112  CD1       19.6990   18.2820  -32.2450 C.ar  148  PHE148     -0.0042
    113  CD2       18.9200   16.7170  -33.8410 C.ar  148  PHE148     -0.0042
    114  CE1       19.2780   17.4610  -31.2140 C.ar  148  PHE148     -0.0003
    115  CE2       18.4920   15.8950  -32.8020 C.ar  148  PHE148     -0.0003
    116  CZ        18.6570   16.2710  -31.4990 C.ar  148  PHE148     -0.0000
    117  N         22.3460   17.4880  -36.4230 N.am  149  PRO149     -0.2729
    118  CA        23.1350   16.2920  -36.7370 C.3   149  PRO149      0.1401
    119  C         24.6270   16.4540  -36.3800 C.2   149  PRO149      0.2269
    120  O         25.3010   15.4540  -36.1150 O.2   149  PRO149     -0.2865
    121  CB        22.9490   16.1130  -38.2520 C.3   149  PRO149      0.0296
    122  CG        21.6390   16.8090  -38.5070 C.3   149  PRO149      0.0237
    123  CD        21.6410   18.0170  -37.6090 C.3   149  PRO149      0.0939
    124  N         10.1840   23.2340  -21.4180 N.3   207  GLY207     -0.1210
    125  CA         9.9350   23.2900  -22.8540 C.3   207  GLY207      0.1956
    126  C         11.1140   23.8230  -23.6530 C.2   207  GLY207      0.2612
    127  O         11.1630   23.6810  -24.8970 O.2   207  GLY207     -0.2717
    128  N         11.9990   24.5270  -22.9500 N.am  208  VAL208     -0.1965
    129  CA        13.2080   25.1630  -23.4730 C.3   208  VAL208      0.1727
    130  C         12.8870   26.4270  -24.2760 C.2   208  VAL208      0.2616
    131  O         13.3090   27.5370  -23.9080 O.2   208  VAL208     -0.2715
    132  CB        14.1150   24.1750  -24.2540 C.3   208  VAL208      0.0290
    133  CG1       15.3560   24.8840  -24.7410 C.3   208  VAL208      0.0023
    134  CG2       14.5530   23.0090  -23.4030 C.3   208  VAL208      0.0023
    135  N         12.1570   26.2700  -25.3810 N.am  209  HIS209     -0.1973
    136  CA        11.7850   27.3470  -26.2530 C.3   209  HIS209      0.1656
    137  C         10.7800   28.2870  -25.6100 C.2   209  HIS209      0.2291
    138  O          9.9570   27.8930  -24.7900 O.2   209  HIS209     -0.2864
    139  CB        11.1600   26.8720  -27.5700 C.3   209  HIS209      0.0771
    140  CG        11.9170   25.7810  -28.2380 C.ar  209  HIS209      0.0820
    141  ND1       13.1150   25.9970  -28.8530 N.ar  209  HIS209     -0.2267
    142  CD2       11.5950   24.4740  -28.3990 C.ar  209  HIS209      0.1154
    143  CE1       13.4970   24.8220  -29.3790 C.ar  209  HIS209      0.1986
    144  NE2       12.5750   23.8730  -29.1330 N.ar  209  HIS209     -0.2212
    145  N          5.1770    5.3730  -28.9040 N.3   323  VAL323     -0.1245
    146  CA         4.6090    6.7300  -28.7490 C.3   323  VAL323      0.1561
    147  C          5.4690    7.6830  -29.5980 C.2   323  VAL323      0.2260
    148  O          6.7100    7.6230  -29.5480 O.2   323  VAL323     -0.2867
    149  CB         4.5150    7.2000  -27.2970 C.3   323  VAL323      0.0252
    150  CG1        5.8710    7.3560  -26.6250 C.3   323  VAL323      0.0019
    151  CG2        3.7700    8.5290  -27.2310 C.3   323  VAL323      0.0019
    152  N          5.9720   11.4580  -30.4090 N.3   325  PHE325     -0.1241
    153  CA         5.7430   12.8560  -30.0050 C.3   325  PHE325      0.1605
    154  C          6.0980   13.8150  -31.1300 C.2   325  PHE325      0.2264
    155  O          6.9980   13.5160  -31.9420 O.2   325  PHE325     -0.2867
    156  CB         6.6270   13.2180  -28.8020 C.3   325  PHE325      0.0534
    157  CG         6.2500   12.5690  -27.4960 C.ar  325  PHE325     -0.0203
    158  CD1        5.2380   13.1000  -26.7220 C.ar  325  PHE325     -0.0042
    159  CD2        6.8640   11.4090  -27.0780 C.ar  325  PHE325     -0.0042
    160  CE1        4.8680   12.4810  -25.5450 C.ar  325  PHE325     -0.0003
    161  CE2        6.5080   10.7940  -25.8910 C.ar  325  PHE325     -0.0003
    162  CZ         5.4830   11.3110  -25.1360 C.ar  325  PHE325     -0.0000
    163  N         15.6980   26.9840  -33.5260 N.3   341  LEU341     -0.1245
    164  CA        15.8430   25.6190  -33.0760 C.3   341  LEU341      0.1561
    165  C         14.4750   24.9500  -33.1290 C.2   341  LEU341      0.2260
    166  O         14.3120   23.8580  -33.6850 O.2   341  LEU341     -0.2867
    167  CB        16.4660   25.5990  -31.6560 C.3   341  LEU341      0.0270
    168  CG        16.9000   24.2200  -31.1640 C.3   341  LEU341      0.0019
    169  CD1       18.0420   23.6510  -32.0050 C.3   341  LEU341      0.0001
    170  CD2       17.2870   24.2600  -29.7030 C.3   341  LEU341      0.0001
    171  N         12.9110   24.3080  -36.8210 N.3   344  GLY344     -0.1210
    172  CA        13.4110   23.1420  -37.5310 C.3   344  GLY344      0.1956
    173  C         12.8840   21.8440  -36.9270 C.2   344  GLY344      0.2611
    174  O         12.6920   20.8240  -37.6510 O.2   344  GLY344     -0.2717
    175  N         12.6630   21.8440  -35.6030 N.am  345  ARG345     -0.1979
    176  CA        12.1420   20.6560  -34.9520 C.3   345  ARG345      0.1597
    177  C         10.7850   20.2450  -35.5730 C.2   345  ARG345      0.2287
    178  O         10.4260   19.0750  -35.6780 O.2   345  ARG345     -0.2864
    179  CB        11.9410   20.9290  -33.4520 C.3   345  ARG345      0.0334
    180  CG        13.2310   20.8960  -32.6480 C.3   345  ARG345      0.0492
    181  CD        13.0160   21.1430  -31.1660 C.3   345  ARG345      0.2205
    182  NE        12.4390   20.0100  -30.4820 N.pl3 345  ARG345     -0.0865
    183  CZ        11.7970   20.1120  -29.3190 C.cat 345  ARG345      0.5346
    184  NH1       11.6290   21.3180  -28.7510 N.pl3 345  ARG345      0.1354
    185  NH2       11.3810   18.9970  -28.7340 N.pl3 345  ARG345      0.1354
    186  N         11.3090   17.8420  -38.2890 N.3   348  SER348     -0.1202
    187  CA        11.9940   16.5990  -37.9760 C.3   348  SER348      0.2020
    188  C         11.0420   15.5450  -37.4210 C.2   348  SER348      0.2618
    189  O         11.1140   14.3900  -37.8030 O.2   348  SER348     -0.2717
    190  CB        13.1080   16.8680  -36.9780 C.3   348  SER348      0.2103
    191  OG        13.7520   15.6490  -36.5740 O.3   348  SER348     -0.2182
    192  N         10.1430   15.9540  -36.5050 N.am  349  TYR349     -0.1975
    193  CA         9.3910   14.9300  -35.7460 C.3   349  TYR349      0.1639
    194  C          8.3050   14.3230  -36.6400 C.2   349  TYR349      0.2290
    195  O          7.9140   13.1930  -36.4040 O.2   349  TYR349     -0.2864
    196  CB         8.7840   15.4740  -34.4580 C.3   349  TYR349      0.0560
    197  CG         9.7860   15.8850  -33.4030 C.ar  349  TYR349     -0.0198
    198  CD1       10.6160   16.9720  -33.6050 C.ar  349  TYR349     -0.0009
    199  CD2        9.9040   15.2090  -32.2000 C.ar  349  TYR349     -0.0009
    200  CE1       11.5560   17.3700  -32.6570 C.ar  349  TYR349      0.0417
    201  CE2       10.8460   15.5870  -31.2510 C.ar  349  TYR349      0.0417
    202  CZ        11.6220   16.7210  -31.4590 C.ar  349  TYR349      0.1957
    203  OH        12.4900   17.1410  -30.5130 O.3   349  TYR349     -0.2866
    204  N         10.5380   11.8470  -39.0110 N.3   352  THR352     -0.1203
    205  CA        11.2340   10.7390  -38.4370 C.3   352  THR352      0.1994
    206  C         10.2720    9.5760  -38.1140 C.2   352  THR352      0.2617
    207  O         10.6890    8.3950  -38.1150 O.2   352  THR352     -0.2717
    208  CB        12.0410   11.1460  -37.2040 C.3   352  THR352      0.1784
    209  OG1       13.0340   10.1290  -36.9610 O.3   352  THR352     -0.2211
    210  CG2       11.1740   11.3240  -35.9750 C.3   352  THR352      0.0376
    211  N          8.9840    9.8840  -37.9320 N.am  353  GLN353     -0.1979
    212  CA         7.9950    8.7600  -37.6190 C.3   353  GLN353      0.1601
    213  C          7.8290    7.8020  -38.8110 C.2   353  GLN353      0.2287
    214  O          7.5150    6.6240  -38.6070 O.2   353  GLN353     -0.2864
    215  CB         6.6580    9.3040  -37.1350 C.3   353  GLN353      0.0394
    216  CG         6.6990   10.4440  -36.1240 C.3   353  GLN353      0.0908
    217  CD         7.6440   10.2620  -34.9760 C.2   353  GLN353      0.2608
    218  OE1        8.2190    9.1660  -34.8080 O.2   353  GLN353     -0.2717
    219  NE2        7.7470   11.2880  -34.1260 N.am  353  GLN353     -0.0878
    220  N         10.4420    5.2500  -38.1490 N.3   356  ARG356     -0.1245
    221  CA        10.1760    4.3860  -37.0490 C.3   356  ARG356      0.1563
    222  C          9.0610    3.3900  -37.3960 C.2   356  ARG356      0.2260
    223  O          9.1420    2.2140  -37.0390 O.2   356  ARG356     -0.2867
    224  CB         9.8460    5.2100  -35.8000 C.3   356  ARG356      0.0307
    225  CG        11.0720    5.9020  -35.2100 C.3   356  ARG356      0.0489
    226  CD        10.6480    6.8530  -34.0710 C.3   356  ARG356      0.2205
    227  NE         9.8640    6.2130  -33.0530 N.pl3 356  ARG356     -0.0865
    228  CZ         9.2450    6.8550  -32.0500 C.cat 356  ARG356      0.5346
    229  NH1        9.2020    8.1890  -32.0240 N.pl3 356  ARG356      0.1354
    230  NH2        8.6600    6.1310  -31.1020 N.pl3 356  ARG356      0.1354
@<TRIPOS>BOND
     1   204   205    1
     2   213   214    2
     3   213   212    1
     4   122   121    1
     5   122   123    1
     6   205   206    1
     7   205   208    1
     8   186   187    1
     9   121   118    1
    10   220   221    1
    11   207   206    2
    12   206   211   am
    13   187   188    1
    14   187   190    1
    15   211   212    1
    16   189   188    2
    17   174   173    2
    18   212   215    1
    19   123   117    1
    20   172   173    1
    21   172   171    1
    22   188   192   am
    23   222   221    1
    24   222   223    2
    25   208   209    1
    26   208   210    1
    27   215   216    1
    28   221   224    1
    29   190   191    1
    30   173   175   am
    31   103   104    2
    32   103   102    1
    33   118   117    1
    34   118   119    1
    35   194   195    2
    36   194   193    1
    37   192   193    1
    38   117   108   am
    39   119   120    2
    40   216   217    1
    41   105   102    1
    42   224   225    1
    43   102   101    1
    44   193   196    1
    45   178   177    2
    46   106   107    1
    47   175   176    1
    48   177   176    1
    49   225   226    1
    50   108   107    1
    51   108   109    2
    52   217   218    2
    53   217   219   am
    54   176   179    1
    55   107   110    1
    56    16    13    1
    57   110   111    1
    58   196   197    1
    59   226   227    1
    60   113   111   ar
    61   113   115   ar
    62   166   165    2
    63   198   197   ar
    64   198   200   ar
    65   111   112   ar
    66    13    12    1
    67    13    14    1
    68   163   164    1
    69   179   180    1
    70   197   199   ar
    71    12     3   am
    72   165   164    1
    73   164   167    1
    74   227   228    2
    75   115   116   ar
    76   200   202   ar
    77   180   181    1
    78    14    15    2
    79    14    17   am
    80     3     2    1
    81     3     4    2
    82   112   114   ar
    83   199   201   ar
    84   228   229    1
    85   228   230    1
    86     2     1    1
    87     2     5    1
    88   169   168    1
    89   155   154    2
    90   167   168    1
    91   116   114   ar
    92    17    18    1
    93   202   201   ar
    94   202   203    1
    95   181   182    1
    96   168   170    1
    97   154   153    1
    98    22    21    1
    99     5     6    1
   100    23    21    1
   101   182   183    2
   102     6     7    1
   103   152   153    1
   104    18    21    1
   105    18    19    1
   106   153   156    1
   107   147   148    2
   108   147   146    1
   109    20    19    2
   110   143   144   ar
   111   143   141   ar
   112   183   184    1
   113   183   185    1
   114    19    24   am
   115   144   142   ar
   116     7     8    1
   117    99    97   ar
   118    99   100   ar
   119   145   146    1
   120   141   140   ar
   121   156   157    1
   122   146   149    1
   123    10     9    1
   124     8     9    2
   125    97    95   ar
   126   142   140   ar
   127     9    11    1
   128   140   139    1
   129   100    98   ar
   130    77    75    1
   131    24    25    1
   132   139   136    1
   133   157   159   ar
   134   157   158   ar
   135    76    75    1
   136    75    72    1
   137   149   151    1
   138   149   150    1
   139    31    33   ar
   140    31    29   ar
   141    95    94    1
   142    95    96   ar
   143   159   161   ar
   144    26    25    1
   145    26    27    2
   146    98    96   ar
   147    25    28    1
   148   158   160   ar
   149    28    29    1
   150    94    91    1
   151    33    32   ar
   152    29    30   ar
   153   136   137    1
   154   136   135    1
   155    92    93    2
   156    92    91    1
   157    74    73    2
   158   161   162   ar
   159    72    71    1
   160    72    73    1
   161   137   138    2
   162    44    42    1
   163   160   162   ar
   164    43    42    1
   165    91    90    1
   166   135   130   am
   167    42    41    2
   168    73    78   am
   169    32    30   ar
   170    41    40    1
   171   127   126    2
   172    40    39    1
   173   133   132    1
   174    70    67    1
   175   130   131    2
   176   130   129    1
   177   132   129    1
   178   132   134    1
   179    89    87   am
   180    78    79    1
   181    88    87    2
   182   126   128   am
   183   126   125    1
   184   129   128    1
   185    87    86    1
   186    50    49    1
   187    39    38    1
   188    67    68    1
   189    67    66    1
   190    79    80    1
   191    38    35    1
   192    81    80    2
   193    49    46    1
   194   125   124    1
   195    80    82   am
   196    68    69    2
   197    52    51    1
   198    52    53    1
   199    86    83    1
   200    66    57   am
   201    82    83    1
   202    35    34    1
   203    35    36    1
   204    58    57    2
   205    37    36    2
   206    46    47    1
   207    46    45    1
   208    57    56    1
   209    83    84    1
   210    55    53   am
   211    55    56    1
   212    47    48    2
   213    53    54    2
   214    56    59    1
   215    84    85    2
   216    59    60    1
   217    61    60   ar
   218    61    63   ar
   219    60    62   ar
   220    63    65   ar
   221    62    64   ar
   222    65    64   ar
