@<TRIPOS>MOLECULE
tmp/5xy9A00.pdb
 148 138 0 0 0
SMALL
GASTEIGER

@<TRIPOS>ATOM
      1  N         46.2870    3.5930   16.8570 N.3    42  ASN42      -0.1240
      2  CA        45.8150    2.5650   15.9420 C.3    42  ASN42       0.1653
      3  C         44.7840    3.1260   14.9810 C.2    42  ASN42       0.2266
      4  O         44.7750    2.7540   13.8030 O.2    42  ASN42      -0.2867
      5  CB        45.2630    1.3790   16.7240 C.3    42  ASN42       0.1155
      6  CG        46.3710    0.5850   17.4070 C.2    42  ASN42       0.2627
      7  OD1       47.5150    0.5770   16.9410 O.2    42  ASN42      -0.2716
      8  ND2       46.0570   -0.0270   18.5510 N.am   42  ASN42      -0.0877
      9  N         46.5430    4.9750   12.4300 N.3    45  SER45      -0.1217
     10  CA        47.1930    4.0040   11.5630 C.3    45  SER45       0.1889
     11  C         46.2020    3.3530   10.6060 C.2    45  SER45       0.2288
     12  O         46.4740    3.2540    9.4050 O.2    45  SER45      -0.2866
     13  CB        47.8990    2.9480   12.4100 C.3    45  SER45       0.2089
     14  OG        48.4290    1.9220   11.5990 O.3    45  SER45      -0.2183
     15  N         46.2960    3.9170    6.4480 N.3    49  LYS49      -0.1245
     16  CA        46.5540    2.6970    5.6950 C.3    49  LYS49       0.1561
     17  C         45.4920    2.4700    4.6210 C.2    49  LYS49       0.2260
     18  O         45.8180    2.1050    3.4860 O.2    49  LYS49      -0.2867
     19  CB        46.6190    1.5010    6.6350 C.3    49  LYS49       0.0271
     20  CG        46.4530    0.1740    5.9320 C.3    49  LYS49       0.0035
     21  CD        46.4760   -0.9820    6.9340 C.3    49  LYS49       0.0206
     22  CE        45.0770   -1.3420    7.4080 C.3    49  LYS49       0.1093
     23  NZ        45.0930   -2.4700    8.3850 N.3    49  LYS49      -0.1314
     24  N         45.7870    5.3370    1.8540 N.3    52  VAL52      -0.1231
     25  CA        46.9370    5.1310    0.9760 C.3    52  VAL52       0.1692
     26  C         46.7970    3.8040    0.2470 C.2    52  VAL52       0.2592
     27  O         47.2440    3.6680   -0.8910 O.2    52  VAL52      -0.2718
     28  CB        48.2730    5.2180    1.7480 C.3    52  VAL52       0.0266
     29  CG1       48.6530    3.8790    2.4130 C.3    52  VAL52       0.0020
     30  CG2       49.3910    5.7120    0.8300 C.3    52  VAL52       0.0020
     31  N         46.1680    2.8120    0.8800 N.am   53  GLY53      -0.1957
     32  CA        46.0620    1.5030    0.2640 C.3    53  GLY53       0.1869
     33  C         45.2290    1.5440   -0.9970 C.2    53  GLY53       0.2309
     34  O         45.5180    0.8380   -1.9700 O.2    53  GLY53      -0.2863
     35  N         47.6030    2.9300   -3.7260 N.3    56  ARG56      -0.1245
     36  CA        48.5950    1.9350   -4.1380 C.3    56  ARG56       0.1563
     37  C         47.9610    0.8910   -5.0410 C.2    56  ARG56       0.2260
     38  O         48.5650    0.4520   -6.0220 O.2    56  ARG56      -0.2867
     39  CB        49.2260    1.2420   -2.9250 C.3    56  ARG56       0.0307
     40  CG        50.2030    2.0910   -2.1140 C.3    56  ARG56       0.0489
     41  CD        50.5960    1.4060   -0.7820 C.3    56  ARG56       0.2205
     42  NE        51.5600    0.3130   -0.9470 N.pl3  56  ARG56      -0.0865
     43  CZ        51.6580   -0.7250   -0.1180 C.cat  56  ARG56       0.5346
     44  NH1       50.8530   -0.8180    0.9350 N.pl3  56  ARG56       0.1354
     45  NH2       52.5660   -1.6670   -0.3230 N.pl3  56  ARG56       0.1354
     46  N         57.1660    1.9860   16.9230 N.3   117  PHE117     -0.1241
     47  CA        55.9570    2.0060   16.1010 C.3   117  PHE117      0.1605
     48  C         55.9990    3.1330   15.0780 C.2   117  PHE117      0.2264
     49  O         55.7320    2.9250   13.8900 O.2   117  PHE117     -0.2867
     50  CB        54.7150    2.1600   16.9720 C.3   117  PHE117      0.0534
     51  CG        53.4270    2.1020   16.1910 C.ar  117  PHE117     -0.0203
     52  CD1       52.9570    3.2240   15.5100 C.ar  117  PHE117     -0.0042
     53  CD2       52.6830    0.9340   16.1380 C.ar  117  PHE117     -0.0042
     54  CE1       51.7790    3.1800   14.7830 C.ar  117  PHE117     -0.0003
     55  CE2       51.4750    0.8870   15.4300 C.ar  117  PHE117     -0.0003
     56  CZ        51.0300    2.0100   14.7520 C.ar  117  PHE117     -0.0000
     57  N         58.7660    2.5810   12.4970 N.3   120  LYS120     -0.1231
     58  CA        58.2980    1.6210   11.5080 C.3   120  LYS120      0.1693
     59  C         57.3800    2.3110   10.5150 C.2   120  LYS120      0.2591
     60  O         57.5270    2.1550    9.2920 O.2   120  LYS120     -0.2718
     61  CB        57.5630    0.4660   12.1890 C.3   120  LYS120      0.0285
     62  CG        56.8500   -0.4820   11.1940 C.3   120  LYS120      0.0035
     63  CD        56.2110   -1.6430   11.9220 C.3   120  LYS120      0.0206
     64  CE        55.3460   -2.5060   11.0230 C.3   120  LYS120      0.1093
     65  NZ        54.2720   -1.7620   10.3380 N.3   120  LYS120     -0.1314
     66  N         56.4520    3.1160   11.0370 N.am  121  MET121     -0.1979
     67  CA        55.5110    3.8550   10.2020 C.3   121  MET121      0.1605
     68  C         56.2420    4.7850    9.2500 C.2   121  MET121      0.2287
     69  O         55.8830    4.8860    8.0690 O.2   121  MET121     -0.2864
     70  CB        54.5550    4.6490   11.0870 C.3   121  MET121      0.0413
     71  CG        53.3700    5.2320   10.3510 C.3   121  MET121      0.0598
     72  SD        52.1140    5.7970   11.5020 S.3   121  MET121     -0.1393
     73  CE        50.6610    5.8650   10.4700 C.3   121  MET121      0.0692
     74  N         57.6300    2.6180    6.5170 N.3   124  ASP124     -0.1225
     75  CA        56.5530    2.1600    5.6530 C.3   124  ASP124      0.1805
     76  C         56.1970    3.2120    4.6100 C.2   124  ASP124      0.2597
     77  O         56.1250    2.9160    3.4140 O.2   124  ASP124     -0.2718
     78  CB        55.3160    1.7930    6.5040 C.3   124  ASP124      0.1424
     79  CG        55.4880    0.4680    7.2260 C.2   124  ASP124      0.3668
     80  OD1       56.4440   -0.2820    6.9110 O.co2 124  ASP124     -0.2456
     81  OD2       54.6770    0.1580    8.0960 O.co2 124  ASP124     -0.2456
     82  N         55.9540    4.4470    5.0480 N.am  125  TYR125     -0.1976
     83  CA        55.4320    5.4460    4.1290 C.3   125  TYR125      0.1639
     84  C         56.5080    5.9900    3.1930 C.2   125  TYR125      0.2290
     85  O         56.1870    6.3500    2.0530 O.2   125  TYR125     -0.2864
     86  CB        54.7400    6.5540    4.9240 C.3   125  TYR125      0.0560
     87  CG        53.3340    6.1230    5.2790 C.ar  125  TYR125     -0.0198
     88  CD1       53.0960    5.3100    6.3860 C.ar  125  TYR125     -0.0009
     89  CD2       52.2450    6.4650    4.4580 C.ar  125  TYR125     -0.0009
     90  CE1       51.8050    4.8760    6.6980 C.ar  125  TYR125      0.0417
     91  CE2       50.9560    6.0490    4.7670 C.ar  125  TYR125      0.0417
     92  CZ        50.7430    5.2530    5.8820 C.ar  125  TYR125      0.1957
     93  OH        49.4740    4.8310    6.1730 O.3   125  TYR125     -0.2866
     94  N         56.3900    3.3800    0.5470 N.3   128  TYR128     -0.1241
     95  CA        55.3320    3.6140   -0.4350 C.3   128  TYR128      0.1605
     96  C         55.7330    4.6990   -1.4260 C.2   128  TYR128      0.2264
     97  O         55.3800    4.6290   -2.6130 O.2   128  TYR128     -0.2867
     98  CB        54.0180    3.9820    0.2560 C.3   128  TYR128      0.0534
     99  CG        53.6110    2.9720    1.2990 C.ar  128  TYR128     -0.0201
    100  CD1       53.9560    1.6330    1.1570 C.ar  128  TYR128     -0.0009
    101  CD2       52.9150    3.3590    2.4340 C.ar  128  TYR128     -0.0009
    102  CE1       53.6180    0.7050    2.1140 C.ar  128  TYR128      0.0417
    103  CE2       52.5590    2.4350    3.4020 C.ar  128  TYR128      0.0417
    104  CZ        52.9140    1.1100    3.2370 C.ar  128  TYR128      0.1957
    105  OH        52.5800    0.1820    4.1960 O.3   128  TYR128     -0.2866
    106  N         54.2720   -8.1940   18.5580 N.3   165  PRO165     -0.2102
    107  CA        53.8070   -7.9680   17.1770 C.3   165  PRO165      0.1504
    108  C         54.4090   -6.7350   16.5270 C.2   165  PRO165      0.2575
    109  O         54.5630   -6.7180   15.3000 O.2   165  PRO165     -0.2718
    110  CB        52.2820   -7.8530   17.3280 C.3   165  PRO165      0.0282
    111  CG        52.0260   -7.6340   18.8150 C.3   165  PRO165      0.0208
    112  CD        53.1580   -8.3220   19.5180 C.3   165  PRO165      0.0893
    113  N         54.7840   -5.7070   17.2960 N.am  166  ILE166     -0.1980
    114  CA        55.3940   -4.5440   16.6560 C.3   166  ILE166      0.1595
    115  C         56.8010   -4.8800   16.1830 C.2   166  ILE166      0.2287
    116  O         57.1850   -4.5560   15.0490 O.2   166  ILE166     -0.2864
    117  CB        55.3860   -3.3330   17.5920 C.3   166  ILE166      0.0276
    118  CG1       53.9540   -2.8770   17.8220 C.3   166  ILE166      0.0022
    119  CG2       56.1770   -2.2180   16.9740 C.3   166  ILE166      0.0022
    120  CD1       53.8390   -1.6470   18.7080 C.3   166  ILE166      0.0001
    121  N         56.1930   -7.2980   13.2060 N.3   169  GLY169     -0.1225
    122  CA        55.7290   -6.5810   12.0270 C.3   169  GLY169      0.1811
    123  C         56.8240   -5.7420   11.3940 C.2   169  GLY169      0.2280
    124  O         56.9790   -5.7200   10.1670 O.2   169  GLY169     -0.2866
    125  N         58.1470   -6.0050    7.5480 N.3   173  ASN173     -0.1240
    126  CA        58.1560   -4.9040    6.5880 C.3   173  ASN173      0.1653
    127  C         59.5800   -4.5500    6.1670 C.2   173  ASN173      0.2266
    128  O         59.8280   -4.2540    4.9940 O.2   173  ASN173     -0.2867
    129  CB        57.4180   -3.6800    7.1640 C.3   173  ASN173      0.1155
    130  CG        55.8940   -3.9020    7.2560 C.2   173  ASN173      0.2627
    131  OD1       55.4210   -5.0330    7.1420 O.2   173  ASN173     -0.2716
    132  ND2       55.1290   -2.8160    7.3960 N.am  173  ASN173     -0.0877
    133  N         47.9450  -11.7040   17.0300 N.3   213  ASP213     -0.1239
    134  CA        48.7310  -10.9100   16.0920 C.3   213  ASP213      0.1674
    135  C         50.1340  -11.4850   15.9350 C.2   213  ASP213      0.2266
    136  O         50.6800  -11.5240   14.8250 O.2   213  ASP213     -0.2867
    137  CB        48.8030   -9.4570   16.5550 C.3   213  ASP213      0.1410
    138  CG        47.5130   -8.7060   16.3230 C.2   213  ASP213      0.3668
    139  OD1       47.0730   -8.6220   15.1650 O.co2 213  ASP213     -0.2456
    140  OD2       46.9540   -8.1700   17.2950 O.co2 213  ASP213     -0.2456
    141  N         51.6460  -12.8270   12.2920 N.3   217  ILE217     -0.1245
    142  CA        52.8100  -12.2050   11.6800 C.3   217  ILE217      0.1561
    143  C         53.8950  -13.2450   11.4530 C.2   217  ILE217      0.2260
    144  O         54.5270  -13.2670   10.3900 O.2   217  ILE217     -0.2867
    145  CB        53.2980  -11.0130   12.5240 C.3   217  ILE217      0.0252
    146  CG1       52.2020   -9.9350   12.5720 C.3   217  ILE217      0.0019
    147  CG2       54.5440  -10.4200   11.9010 C.3   217  ILE217      0.0019
    148  CD1       52.4270   -8.8210   13.5880 C.3   217  ILE217      0.0001
@<TRIPOS>BOND
     1    38    37    2
     2    37    36    1
     3    36    35    1
     4    36    39    1
     5    39    40    1
     6    97    96    2
     7    40    41    1
     8    34    33    2
     9    96    95    1
    10    33    32    1
    11    42    41    1
    12    42    43    2
    13    27    26    2
    14    95    98    1
    15    95    94    1
    16    45    43    1
    17    43    44    1
    18    26    31   am
    19    26    25    1
    20    98    99    1
    21    32    31    1
    22    30    28    1
    23    25    28    1
    24    25    24    1
    25   100    99   ar
    26   100   102   ar
    27    99   101   ar
    28    28    29    1
    29    85    84    2
    30   102   104   ar
    31   101   103   ar
    32    84    83    1
    33   104   103   ar
    34   104   105    1
    35    77    76    2
    36    18    17    2
    37    83    86    1
    38    83    82    1
    39    89    91   ar
    40    89    87   ar
    41    76    82   am
    42    76    75    1
    43    17    16    1
    44    91    92   ar
    45    86    87    1
    46   128   127    2
    47    87    88   ar
    48    75    78    1
    49    75    74    1
    50    16    15    1
    51    16    19    1
    52    92    93    1
    53    92    90   ar
    54    20    19    1
    55    20    21    1
    56   127   126    1
    57    88    90   ar
    58    78    79    1
    59   126   129    1
    60   126   125    1
    61    80    79   ar
    62    21    22    1
    63   131   130    2
    64   129   130    1
    65    79    81   ar
    66   130   132   am
    67    22    23    1
    68    69    68    2
    69    68    67    1
    70    60    59    2
    71    12    11    2
    72   124   123    2
    73    67    66    1
    74    67    70    1
    75    65    64    1
    76    71    70    1
    77    71    72    1
    78   144   143    2
    79    73    72    1
    80    59    66   am
    81    59    58    1
    82    11    10    1
    83    64    63    1
    84    62    63    1
    85    62    61    1
    86   123   122    1
    87   143   142    1
    88    58    61    1
    89    58    57    1
    90    10    13    1
    91    10     9    1
    92    14    13    1
    93   142   141    1
    94   142   145    1
    95   147   145    1
    96   122   121    1
    97   145   146    1
    98   146   148    1
    99     4     3    2
   100    49    48    2
   101    56    54   ar
   102    56    55   ar
   103    54    52   ar
   104   136   135    2
   105     3     2    1
   106   116   115    2
   107    48    47    1
   108   139   138   ar
   109   109   108    2
   110    55    53   ar
   111    52    51   ar
   112   135   134    1
   113     2     5    1
   114     2     1    1
   115   134   137    1
   116   134   133    1
   117    47    46    1
   118    47    50    1
   119    53    51   ar
   120   115   114    1
   121    51    50    1
   122   138   137    1
   123   138   140   ar
   124   108   107    1
   125   108   113   am
   126   114   113    1
   127   114   117    1
   128     5     6    1
   129     7     6    2
   130   119   117    1
   131   107   110    1
   132   107   106    1
   133   110   111    1
   134     6     8   am
   135   117   118    1
   136   118   120    1
   137   106   112    1
   138   111   112    1
