@<TRIPOS>MOLECULE
tmp/5xyxA00.pdb
 150 140 0 0 0
SMALL
GASTEIGER

@<TRIPOS>ATOM
      1  N          2.8410  -29.0580  -39.1830 N.3    29  VAL29      -0.1245
      2  CA         2.9660  -30.3370  -38.4590 C.3    29  VAL29       0.1561
      3  C          2.4220  -31.5110  -39.3000 C.2    29  VAL29       0.2260
      4  O          1.3620  -31.3770  -39.9060 O.2    29  VAL29      -0.2867
      5  CB         2.2210  -30.2790  -37.1080 C.3    29  VAL29       0.0252
      6  CG1        2.2990  -31.6160  -36.3760 C.3    29  VAL29       0.0019
      7  CG2        2.7820  -29.1580  -36.2440 C.3    29  VAL29       0.0019
      8  N          4.3370  -36.9960  -34.1780 N.3    42  ALA42      -0.1245
      9  CA         4.1290  -35.7070  -34.7910 C.3    42  ALA42       0.1562
     10  C          5.4950  -35.1630  -35.1460 C.2    42  ALA42       0.2260
     11  O          6.4520  -35.3000  -34.3810 O.2    42  ALA42      -0.2867
     12  CB         3.4020  -34.7680  -33.8430 C.3    42  ALA42       0.0290
     13  N          7.2120  -31.5960  -36.5660 N.3    44  LYS44      -0.1245
     14  CA         7.0230  -30.1710  -36.7860 C.3    44  LYS44       0.1561
     15  C          8.2650  -29.6140  -37.4500 C.2    44  LYS44       0.2260
     16  O          9.3760  -29.7710  -36.9430 O.2    44  LYS44      -0.2867
     17  CB         6.7480  -29.4830  -35.4650 C.3    44  LYS44       0.0271
     18  CG         6.6860  -27.9540  -35.4760 C.3    44  LYS44       0.0035
     19  CD         6.4570  -27.5330  -34.0320 C.3    44  LYS44       0.0206
     20  CE         6.0740  -26.0870  -33.8640 C.3    44  LYS44       0.1093
     21  NZ         5.8420  -25.8790  -32.4170 N.3    44  LYS44      -0.1314
     22  N         12.4830  -23.0100  -27.5740 N.3    62  GLU62      -0.1245
     23  CA        11.6960  -24.2290  -27.8050 C.3    62  GLU62       0.1567
     24  C         12.5480  -25.5110  -27.7860 C.2    62  GLU62       0.2260
     25  O         12.1180  -26.5150  -27.2490 O.2    62  GLU62      -0.2867
     26  CB        10.8750  -24.1490  -29.1030 C.3    62  GLU62       0.0388
     27  CG        10.1900  -25.4740  -29.4460 C.3    62  GLU62       0.1160
     28  CD         9.0490  -25.3770  -30.4270 C.2    62  GLU62       0.3649
     29  OE1        9.1680  -24.6340  -31.4200 O.co2  62  GLU62      -0.2457
     30  OE2        8.0390  -26.0830  -30.2110 O.co2  62  GLU62      -0.2457
     31  N         12.1350  -28.5820  -24.8780 N.3    66  LEU66      -0.1245
     32  CA        11.7730  -29.9300  -25.2770 C.3    66  LEU66       0.1561
     33  C         12.8710  -30.9550  -24.9780 C.2    66  LEU66       0.2260
     34  O         12.5680  -32.0880  -24.5760 O.2    66  LEU66      -0.2867
     35  CB        11.3620  -29.9580  -26.7450 C.3    66  LEU66       0.0270
     36  CG        10.0710  -29.1810  -27.0420 C.3    66  LEU66       0.0019
     37  CD1        9.9300  -29.0650  -28.5600 C.3    66  LEU66       0.0001
     38  CD2        8.8320  -29.8270  -26.4170 C.3    66  LEU66       0.0001
     39  N          5.2620  -33.6610  -22.5210 N.3    75  ILE75      -0.1245
     40  CA         5.6580  -34.0490  -23.8570 C.3    75  ILE75       0.1561
     41  C          7.1710  -33.9280  -24.0340 C.2    75  ILE75       0.2260
     42  O          7.7500  -32.9030  -23.7450 O.2    75  ILE75      -0.2867
     43  CB         4.8720  -33.2600  -24.9220 C.3    75  ILE75       0.0252
     44  CG1        4.8320  -34.0900  -26.2080 C.3    75  ILE75       0.0019
     45  CG2        5.3770  -31.8100  -25.0360 C.3    75  ILE75       0.0019
     46  CD1        4.6740  -33.2870  -27.4700 C.3    75  ILE75       0.0001
     47  N         11.2410  -31.1650  -35.3480 N.3    95  LEU95      -0.1245
     48  CA        11.1280  -31.6620  -33.9870 C.3    95  LEU95       0.1561
     49  C         10.1790  -32.8340  -33.9940 C.2    95  LEU95       0.2260
     50  O          9.1060  -32.7600  -34.6360 O.2    95  LEU95      -0.2867
     51  CB        10.5640  -30.5750  -33.0830 C.3    95  LEU95       0.0270
     52  CG        11.3890  -29.2970  -32.9830 C.3    95  LEU95       0.0019
     53  CD1       10.5440  -28.2160  -32.3420 C.3    95  LEU95       0.0001
     54  CD2       12.6550  -29.5580  -32.1940 C.3    95  LEU95       0.0001
     55  N          7.9550  -35.6270  -31.8060 N.3    97  THR97      -0.1203
     56  CA         7.3220  -35.9820  -30.5620 C.3    97  THR97       0.1994
     57  C          6.2880  -37.0810  -30.8190 C.2    97  THR97       0.2618
     58  O          5.8840  -37.2960  -31.9640 O.2    97  THR97      -0.2717
     59  CB         6.6190  -34.7630  -29.9110 C.3    97  THR97       0.1784
     60  OG1        5.4120  -34.4420  -30.6300 O.3    97  THR97      -0.2211
     61  CG2        7.5480  -33.5320  -29.8600 C.3    97  THR97       0.0376
     62  N          5.8750  -37.7540  -29.7390 N.am   98  HIS98      -0.1961
     63  CA         4.7480  -38.6920  -29.7500 C.3    98  HIS98       0.1787
     64  C          3.5210  -38.0350  -30.3380 C.2    98  HIS98       0.2620
     65  O          3.2730  -36.8540  -30.0690 O.2    98  HIS98      -0.2715
     66  CB         4.3500  -39.0950  -28.3450 C.3    98  HIS98       0.0785
     67  CG         5.1950  -40.1630  -27.7510 C.ar   98  HIS98       0.0821
     68  ND1        6.0270  -39.9330  -26.6740 N.ar   98  HIS98      -0.2267
     69  CD2        5.3150  -41.4780  -28.0480 C.ar   98  HIS98       0.1154
     70  CE1        6.6340  -41.0590  -26.3390 C.ar   98  HIS98       0.1986
     71  NE2        6.2230  -42.0100  -27.1620 N.ar   98  HIS98      -0.2212
     72  N          2.7710  -38.8030  -31.1270 N.am   99  LEU99      -0.1963
     73  CA         1.4460  -38.4140  -31.5670 C.3    99  LEU99       0.1728
     74  C          0.4820  -38.9210  -30.5190 C.2    99  LEU99       0.2616
     75  O          0.5080  -40.1080  -30.1640 O.2    99  LEU99      -0.2715
     76  CB         1.1080  -39.0490  -32.9050 C.3    99  LEU99       0.0311
     77  CG        -0.0990  -38.4770  -33.6450 C.3    99  LEU99       0.0022
     78  CD1        0.2100  -37.0920  -34.2150 C.3    99  LEU99       0.0001
     79  CD2       -0.5080  -39.4350  -34.7550 C.3    99  LEU99       0.0001
     80  N         -0.3530  -38.0230  -30.0100 N.am  100  MET100     -0.1963
     81  CA        -1.3340  -38.3790  -28.9900 C.3   100  MET100      0.1736
     82  C         -2.6960  -38.5380  -29.6450 C.2   100  MET100      0.2617
     83  O         -2.9060  -38.0850  -30.7790 O.2   100  MET100     -0.2715
     84  CB        -1.3890  -37.3250  -27.8780 C.3   100  MET100      0.0427
     85  CG        -0.1150  -37.1920  -27.0460 C.3   100  MET100      0.0599
     86  SD         0.3510  -38.6250  -26.0400 S.3   100  MET100     -0.1393
     87  CE        -1.0130  -38.8360  -24.8770 C.3   100  MET100      0.0692
     88  N         -3.6010  -39.1940  -28.9110 N.am  101  GLY101     -0.1940
     89  CA        -4.9600  -39.4600  -29.3580 C.3   101  GLY101      0.2014
     90  C         -5.7370  -38.1890  -29.6510 C.2   101  GLY101      0.2639
     91  O         -5.9150  -37.8210  -30.8080 O.2   101  GLY101     -0.2714
     92  N         -6.1840  -37.5140  -28.6000 N.am  102  ALA102     -0.1963
     93  CA        -7.0320  -36.3400  -28.7470 C.3   102  ALA102      0.1728
     94  C         -6.7070  -35.3160  -27.6750 C.2   102  ALA102      0.2616
     95  O         -6.2930  -35.6770  -26.5740 O.2   102  ALA102     -0.2715
     96  CB        -8.4930  -36.7550  -28.6490 C.3   102  ALA102      0.0334
     97  N         -6.9220  -34.0410  -27.9870 N.am  103  ASP103     -0.1971
     98  CA        -6.7870  -33.0020  -26.9750 C.3   103  ASP103      0.1709
     99  C         -8.0000  -33.0720  -26.0290 C.2   103  ASP103      0.2293
    100  O         -8.9340  -33.8440  -26.2590 O.2   103  ASP103     -0.2864
    101  CB        -6.5540  -31.6170  -27.6220 C.3   103  ASP103      0.1436
    102  CG        -7.8180  -30.9510  -28.1170 C.2   103  ASP103      0.3671
    103  OD1       -8.9120  -31.2180  -27.5950 O.co2 103  ASP103     -0.2456
    104  OD2       -7.7110  -30.1080  -29.0270 O.co2 103  ASP103     -0.2456
    105  N        -11.8660  -32.1410  -27.5030 N.3   106  ASN106     -0.1240
    106  CA       -12.6260  -33.2020  -28.1850 C.3   106  ASN106      0.1653
    107  C        -13.3090  -34.1140  -27.1940 C.2   106  ASN106      0.2266
    108  O        -14.4320  -34.5490  -27.4020 O.2   106  ASN106     -0.2867
    109  CB       -11.7250  -34.0710  -29.0580 C.3   106  ASN106      0.1155
    110  CG       -10.8670  -33.2680  -30.0060 C.2   106  ASN106      0.2627
    111  OD1       -9.7840  -33.7150  -30.3910 O.2   106  ASN106     -0.2716
    112  ND2      -11.3260  -32.0700  -30.3640 N.am  106  ASN106     -0.0877
    113  N         -6.8920  -27.4840  -24.8760 N.3   141  SER141     -0.1217
    114  CA        -6.3060  -27.8300  -26.1660 C.3   141  SER141      0.1889
    115  C         -4.7870  -28.1180  -26.1060 C.2   141  SER141      0.2288
    116  O         -4.2660  -28.6740  -27.0490 O.2   141  SER141     -0.2866
    117  CB        -6.6680  -26.7760  -27.2360 C.3   141  SER141      0.2089
    118  OG        -6.1300  -25.5040  -26.9610 O.3   141  SER141     -0.2183
    119  N         -3.1790  -33.3340  -24.1510 N.3   144  ALA144     -0.1245
    120  CA        -3.5700  -34.5140  -24.9100 C.3   144  ALA144      0.1562
    121  C         -3.6600  -35.7750  -24.0680 C.2   144  ALA144      0.2260
    122  O         -2.9220  -35.9660  -23.1010 O.2   144  ALA144     -0.2867
    123  CB        -2.6270  -34.7320  -26.0610 C.3   144  ALA144      0.0290
    124  N          1.2400  -30.3220  -23.3590 N.3   154  LEU154     -0.1231
    125  CA         1.8560  -29.9090  -24.6130 C.3   154  LEU154      0.1693
    126  C          2.1490  -28.4340  -24.6270 C.2   154  LEU154      0.2592
    127  O          1.7450  -27.6940  -23.7200 O.2   154  LEU154     -0.2718
    128  CB         0.9190  -30.1710  -25.7940 C.3   154  LEU154      0.0284
    129  CG         0.1700  -31.4920  -25.7960 C.3   154  LEU154      0.0019
    130  CD1       -0.7890  -31.4960  -26.9690 C.3   154  LEU154      0.0001
    131  CD2        1.1410  -32.6710  -25.8240 C.3   154  LEU154      0.0001
    132  N          2.8370  -28.0410  -25.6980 N.am  155  ASP155     -0.1960
    133  CA         3.0630  -26.6540  -26.1000 C.3   155  ASP155      0.1840
    134  C          3.7620  -25.8150  -25.0390 C.2   155  ASP155      0.2622
    135  O          3.1330  -25.1850  -24.2050 O.2   155  ASP155     -0.2715
    136  CB         1.7630  -26.0000  -26.6120 C.3   155  ASP155      0.1450
    137  CG         1.2180  -26.6700  -27.9090 C.2   155  ASP155      0.3671
    138  OD1        1.8820  -27.5370  -28.5280 O.co2 155  ASP155     -0.2456
    139  OD2        0.0950  -26.3260  -28.3120 O.co2 155  ASP155     -0.2456
    140  N          5.0920  -25.8740  -25.0930 N.am  156  PHE156     -0.1974
    141  CA         6.0150  -24.9550  -24.4120 C.3   156  PHE156      0.1639
    142  C          6.8590  -24.1420  -25.4360 C.2   156  PHE156      0.2290
    143  O          7.1340  -24.6270  -26.5490 O.2   156  PHE156     -0.2864
    144  CB         7.0240  -25.7540  -23.5870 C.3   156  PHE156      0.0560
    145  CG         6.4300  -26.5310  -22.4630 C.ar  156  PHE156     -0.0200
    146  CD1        6.4010  -25.9970  -21.1840 C.ar  156  PHE156     -0.0042
    147  CD2        5.9540  -27.8210  -22.6740 C.ar  156  PHE156     -0.0042
    148  CE1        5.8850  -26.7280  -20.1380 C.ar  156  PHE156     -0.0003
    149  CE2        5.4320  -28.5520  -21.6360 C.ar  156  PHE156     -0.0003
    150  CZ         5.3980  -28.0060  -20.3680 C.ar  156  PHE156     -0.0000
@<TRIPOS>BOND
     1     4     3    2
     2     3     2    1
     3     1     2    1
     4     2     5    1
     5    15    16    2
     6    15    14    1
     7     5     6    1
     8     5     7    1
     9    14    13    1
    10    14    17    1
    11    18    17    1
    12    18    19    1
    13    47    48    1
    14    10     9    1
    15    10    11    2
    16     9     8    1
    17     9    12    1
    18    79    77    1
    19    50    49    2
    20    78    77    1
    21    19    20    1
    22    49    48    1
    23    48    51    1
    24    20    21    1
    25    77    76    1
    26    51    52    1
    27    52    53    1
    28    52    54    1
    29    76    73    1
    30    58    57    2
    31    55    56    1
    32    73    72    1
    33    73    74    1
    34    29    28   ar
    35    72    64   am
    36    57    56    1
    37    57    62   am
    38    91    90    2
    39    83    82    2
    40    60    59    1
    41    56    59    1
    42    74    75    2
    43    74    80   am
    44    28    30   ar
    45    28    27    1
    46   111   110    2
    47   112   110   am
    48    64    65    2
    49    64    63    1
    50    80    81    1
    51   110   109    1
    52    59    61    1
    53    63    62    1
    54    63    66    1
    55    90    89    1
    56    90    92   am
    57    82    81    1
    58    82    88   am
    59    27    26    1
    60    89    88    1
    61    26    23    1
    62   109   106    1
    63   104   102   ar
    64    81    84    1
    65    93    96    1
    66    93    92    1
    67    93    94    1
    68    37    36    1
    69   138   137   ar
    70    66    67    1
    71   139   137   ar
    72   106   105    1
    73   106   107    1
    74   102   101    1
    75   102   103   ar
    76    69    67   ar
    77    69    71   ar
    78    97    94   am
    79    97    98    1
    80   137   136    1
    81    84    85    1
    82    23    24    1
    83    23    22    1
    84    24    25    2
    85    67    68   ar
    86    94    95    2
    87   101    98    1
    88    46    44    1
    89   108   107    2
    90   117   118    1
    91   117   114    1
    92    71    70   ar
    93   116   115    2
    94    85    86    1
    95    36    35    1
    96    36    38    1
    97    98    99    1
    98   130   129    1
    99    35    32    1
   100    68    70   ar
   101   136   133    1
   102   143   142    2
   103   100    99    2
   104    44    43    1
   105   114   115    1
   106   114   113    1
   107   133   132    1
   108   133   134    1
   109   123   120    1
   110    86    87    1
   111   131   129    1
   112   129   128    1
   113   128   125    1
   114   132   126   am
   115   142   141    1
   116    32    33    1
   117    32    31    1
   118   140   134   am
   119   140   141    1
   120   134   135    2
   121    45    43    1
   122    33    34    2
   123    43    40    1
   124   120   119    1
   125   120   121    1
   126   126   125    1
   127   126   127    2
   128   125   124    1
   129   141   144    1
   130   121   122    2
   131    41    40    1
   132    41    42    2
   133    40    39    1
   134   144   145    1
   135   147   145   ar
   136   147   149   ar
   137   145   146   ar
   138   149   150   ar
   139   146   148   ar
   140   150   148   ar
