@<TRIPOS>MOLECULE
tmp/5xyyA00.pdb
 172 161 0 0 0
SMALL
GASTEIGER

@<TRIPOS>ATOM
      1  N         -1.2320  -32.9680  -40.1450 N.3    27  VAL27      -0.1245
      2  CA        -2.2510  -32.8490  -39.0800 C.3    27  VAL27       0.1561
      3  C         -2.6050  -31.3760  -38.7760 C.2    27  VAL27       0.2260
      4  O         -3.5980  -31.0860  -38.0760 O.2    27  VAL27      -0.2867
      5  CB        -1.8980  -33.7500  -37.8600 C.3    27  VAL27       0.0252
      6  CG1       -2.4110  -33.2100  -36.5090 C.3    27  VAL27       0.0019
      7  CG2       -2.4340  -35.1530  -38.1430 C.3    27  VAL27       0.0019
      8  N          2.7070  -29.6130  -38.6060 N.3    35  VAL35      -0.1245
      9  CA         2.8440  -30.9230  -37.9560 C.3    35  VAL35       0.1561
     10  C          2.3150  -32.0230  -38.8740 C.2    35  VAL35       0.2260
     11  O          1.2990  -31.8540  -39.5490 O.2    35  VAL35      -0.2867
     12  CB         2.1510  -30.9270  -36.6100 C.3    35  VAL35       0.0252
     13  CG1        2.2690  -32.2920  -35.9360 C.3    35  VAL35       0.0019
     14  CG2        2.7600  -29.8230  -35.7330 C.3    35  VAL35       0.0019
     15  N          4.3810  -37.6330  -33.7310 N.3    48  ALA48      -0.1231
     16  CA         4.1540  -36.3390  -34.3450 C.3    48  ALA48       0.1694
     17  C          5.4830  -35.7430  -34.6820 C.2    48  ALA48       0.2592
     18  O          6.3810  -35.7900  -33.8410 O.2    48  ALA48      -0.2718
     19  CB         3.3750  -35.4450  -33.3480 C.3    48  ALA48       0.0304
     20  N          5.5720  -35.1630  -35.8680 N.am   49  VAL49      -0.1966
     21  CA         6.7240  -34.4820  -36.4310 C.3    49  VAL49       0.1727
     22  C          6.3960  -33.0160  -36.7630 C.2    49  VAL49       0.2616
     23  O          5.6220  -32.7570  -37.6740 O.2    49  VAL49      -0.2715
     24  CB         7.2260  -35.1560  -37.7110 C.3    49  VAL49       0.0290
     25  CG1        8.5560  -34.5600  -38.1990 C.3    49  VAL49       0.0023
     26  CG2        7.4210  -36.6660  -37.4520 C.3    49  VAL49       0.0023
     27  N          7.0610  -32.0690  -36.0980 N.am   50  LYS50      -0.1977
     28  CA         6.8100  -30.6280  -36.3700 C.3    50  LYS50       0.1596
     29  C          8.0160  -30.1010  -37.1320 C.2    50  LYS50       0.2287
     30  O          9.1630  -30.3160  -36.6910 O.2    50  LYS50      -0.2864
     31  CB         6.6020  -29.8590  -35.0670 C.3    50  LYS50       0.0298
     32  CG         6.4010  -28.3110  -35.1580 C.3    50  LYS50       0.0038
     33  CD         6.6560  -27.7860  -33.7360 C.3    50  LYS50       0.0206
     34  CE         6.0630  -26.4340  -33.3680 C.3    50  LYS50       0.1093
     35  NZ         5.7680  -26.4500  -31.9310 N.3    50  LYS50      -0.1314
     36  N         12.3640  -23.4550  -27.5750 N.3    68  GLU68      -0.1245
     37  CA        11.5240  -24.6610  -27.7250 C.3    68  GLU68       0.1567
     38  C         12.3660  -25.9040  -27.6490 C.2    68  GLU68       0.2260
     39  O         11.9920  -26.8780  -27.0190 O.2    68  GLU68      -0.2867
     40  CB        10.7200  -24.5850  -29.0240 C.3    68  GLU68       0.0388
     41  CG         9.7880  -25.7900  -29.1130 C.3    68  GLU68       0.1160
     42  CD         8.8480  -25.8000  -30.3010 C.2    68  GLU68       0.3649
     43  OE1        8.9370  -24.9100  -31.1810 O.co2  68  GLU68      -0.2457
     44  OE2        7.8980  -26.6340  -30.2370 O.co2  68  GLU68      -0.2457
     45  N         12.0070  -28.8560  -24.7450 N.3    72  LEU72      -0.1245
     46  CA        11.6520  -30.1870  -25.0950 C.3    72  LEU72       0.1561
     47  C         12.7400  -31.1500  -24.7820 C.2    72  LEU72       0.2260
     48  O         12.4420  -32.2770  -24.3510 O.2    72  LEU72      -0.2867
     49  CB        11.2900  -30.2670  -26.5650 C.3    72  LEU72       0.0270
     50  CG         9.9880  -29.6000  -26.9510 C.3    72  LEU72       0.0019
     51  CD1        9.8950  -29.5240  -28.4650 C.3    72  LEU72       0.0001
     52  CD2        8.8470  -30.3820  -26.3240 C.3    72  LEU72       0.0001
     53  N          5.0300  -33.8540  -22.5450 N.3    81  ILE81      -0.1245
     54  CA         5.5040  -34.2690  -23.8830 C.3    81  ILE81       0.1561
     55  C          7.0160  -34.0870  -23.8650 C.2    81  ILE81       0.2260
     56  O          7.5130  -33.1500  -23.3010 O.2    81  ILE81      -0.2867
     57  CB         4.8390  -33.4690  -24.9660 C.3    81  ILE81       0.0252
     58  CG1        4.9140  -34.3300  -26.2300 C.3    81  ILE81       0.0019
     59  CG2        5.3480  -32.0230  -24.9990 C.3    81  ILE81       0.0019
     60  CD1        4.6100  -33.5400  -27.4220 C.3    81  ILE81       0.0001
     61  N         11.1770  -31.6060  -35.0840 N.3   101  LEU101     -0.1245
     62  CA        11.0500  -32.1500  -33.7060 C.3   101  LEU101      0.1561
     63  C         10.0760  -33.3220  -33.7390 C.2   101  LEU101      0.2260
     64  O          8.9440  -33.1740  -34.2710 O.2   101  LEU101     -0.2867
     65  CB        10.4660  -31.0890  -32.7640 C.3   101  LEU101      0.0270
     66  CG        11.2460  -29.7490  -32.7380 C.3   101  LEU101      0.0019
     67  CD1       10.4210  -28.5880  -32.1430 C.3   101  LEU101      0.0001
     68  CD2       12.5520  -29.9900  -31.9720 C.3   101  LEU101      0.0001
     69  N          7.7930  -36.1070  -31.4750 N.3   103  THR103     -0.1203
     70  CA         7.2280  -36.4800  -30.2070 C.3   103  THR103      0.1994
     71  C          6.2500  -37.6830  -30.3420 C.2   103  THR103      0.2618
     72  O          5.8580  -37.9690  -31.4850 O.2   103  THR103     -0.2717
     73  CB         6.4390  -35.2960  -29.6570 C.3   103  THR103      0.1784
     74  OG1        5.2680  -35.0420  -30.4340 O.3   103  THR103     -0.2211
     75  CG2        7.3200  -34.0430  -29.7190 C.3   103  THR103      0.0376
     76  N          5.8470  -38.2820  -29.2050 N.am  104  HIS104     -0.1961
     77  CA         4.7660  -39.2990  -29.2630 C.3   104  HIS104      0.1787
     78  C          3.5530  -38.6760  -29.8100 C.2   104  HIS104      0.2620
     79  O          3.2720  -37.5070  -29.5090 O.2   104  HIS104     -0.2715
     80  CB         4.3570  -39.7480  -27.8860 C.3   104  HIS104      0.0785
     81  CG         5.2690  -40.7410  -27.3070 C.ar  104  HIS104      0.0821
     82  ND1        6.1120  -40.4570  -26.2550 N.ar  104  HIS104     -0.2267
     83  CD2        5.4810  -42.0230  -27.6430 C.ar  104  HIS104      0.1154
     84  CE1        6.8110  -41.5380  -25.9620 C.ar  104  HIS104      0.1986
     85  NE2        6.4370  -42.5010  -26.7890 N.ar  104  HIS104     -0.2212
     86  N          2.7890  -39.4340  -30.5950 N.am  105  LEU105     -0.1963
     87  CA         1.4800  -38.9480  -31.0910 C.3   105  LEU105      0.1728
     88  C          0.3810  -39.4180  -30.1350 C.2   105  LEU105      0.2616
     89  O          0.2230  -40.6060  -29.8590 O.2   105  LEU105     -0.2715
     90  CB         1.1950  -39.4840  -32.4960 C.3   105  LEU105      0.0311
     91  CG        -0.0470  -38.9510  -33.2420 C.3   105  LEU105      0.0022
     92  CD1        0.1330  -37.5080  -33.6270 C.3   105  LEU105      0.0001
     93  CD2       -0.3290  -39.7920  -34.5010 C.3   105  LEU105      0.0001
     94  N         -0.3340  -38.4600  -29.5440 N.am  106  MET106     -0.1963
     95  CA        -1.3650  -38.7430  -28.5740 C.3   106  MET106      0.1736
     96  C         -2.6500  -38.9680  -29.3420 C.2   106  MET106      0.2617
     97  O         -2.7300  -38.6060  -30.4920 O.2   106  MET106     -0.2715
     98  CB        -1.4860  -37.5890  -27.6170 C.3   106  MET106      0.0427
     99  CG        -0.1550  -37.3480  -26.9030 C.3   106  MET106      0.0599
    100  SD         0.3870  -38.7350  -25.9040 S.3   106  MET106     -0.1393
    101  CE        -0.8350  -38.8510  -24.5490 C.3   106  MET106      0.0692
    102  N         -3.6340  -39.6160  -28.6920 N.am  107  GLY107     -0.1940
    103  CA        -4.8900  -39.9680  -29.3780 C.3   107  GLY107      0.2014
    104  C         -5.8090  -38.7720  -29.6330 C.2   107  GLY107      0.2639
    105  O         -6.3820  -38.6010  -30.7200 O.2   107  GLY107     -0.2714
    106  N         -6.0000  -37.9220  -28.6340 N.am  108  ALA108     -0.1963
    107  CA        -6.8800  -36.7840  -28.8150 C.3   108  ALA108      0.1728
    108  C         -6.4800  -35.7150  -27.8070 C.2   108  ALA108      0.2616
    109  O         -5.8620  -36.0380  -26.8110 O.2   108  ALA108     -0.2715
    110  CB        -8.2950  -37.2100  -28.5450 C.3   108  ALA108      0.0334
    111  N         -6.9300  -34.4930  -28.0080 N.am  109  ASP109     -0.1971
    112  CA        -6.7510  -33.5240  -26.9160 C.3   109  ASP109      0.1709
    113  C         -8.0650  -33.3680  -26.1920 C.2   109  ASP109      0.2293
    114  O         -9.1060  -33.6890  -26.7590 O.2   109  ASP109     -0.2864
    115  CB        -6.1870  -32.1830  -27.4010 C.3   109  ASP109      0.1436
    116  CG        -7.0930  -31.4640  -28.3800 C.2   109  ASP109      0.3671
    117  OD1       -8.1950  -31.0410  -27.9780 O.co2 109  ASP109     -0.2456
    118  OD2       -6.6640  -31.2960  -29.5410 O.co2 109  ASP109     -0.2456
    119  N        -11.0090  -31.5370  -27.9270 N.3   112  ASN112     -0.1240
    120  CA       -11.7330  -32.4000  -28.9400 C.3   112  ASN112      0.1653
    121  C        -12.6260  -33.4070  -28.2550 C.2   112  ASN112      0.2266
    122  O        -13.7650  -33.6450  -28.6690 O.2   112  ASN112     -0.2867
    123  CB       -10.7880  -33.3170  -29.7260 C.3   112  ASN112      0.1155
    124  CG       -10.0100  -32.6330  -30.7910 C.2   112  ASN112      0.2627
    125  OD1       -8.8410  -33.0240  -31.0570 O.2   112  ASN112     -0.2716
    126  ND2      -10.6210  -31.6430  -31.4530 N.am  112  ASN112     -0.0877
    127  N         -7.0220  -27.6930  -24.9070 N.3   151  SER151     -0.1217
    128  CA        -6.3930  -27.9870  -26.2060 C.3   151  SER151      0.1889
    129  C         -4.9410  -28.3780  -26.1410 C.2   151  SER151      0.2288
    130  O         -4.4700  -28.9520  -27.1100 O.2   151  SER151     -0.2866
    131  CB        -6.6070  -26.8840  -27.2220 C.3   151  SER151      0.2089
    132  OG        -6.0230  -25.6170  -26.8620 O.3   151  SER151     -0.2183
    133  N         -3.3540  -33.7150  -23.8680 N.3   154  ALA154     -0.1245
    134  CA        -3.7190  -34.8320  -24.6860 C.3   154  ALA154      0.1562
    135  C         -3.7440  -36.0860  -23.9520 C.2   154  ALA154      0.2260
    136  O         -2.9900  -36.2850  -23.0630 O.2   154  ALA154     -0.2867
    137  CB        -2.7990  -34.8590  -25.8520 C.3   154  ALA154      0.0290
    138  N          1.1280  -30.6260  -23.3780 N.3   164  LEU164     -0.1231
    139  CA         1.7780  -30.2440  -24.6300 C.3   164  LEU164      0.1693
    140  C          2.0680  -28.7590  -24.6710 C.2   164  LEU164      0.2592
    141  O          1.6430  -27.9570  -23.8350 O.2   164  LEU164     -0.2718
    142  CB         0.8410  -30.5620  -25.8420 C.3   164  LEU164      0.0284
    143  CG         0.1140  -31.8730  -25.8630 C.3   164  LEU164      0.0019
    144  CD1       -0.7520  -32.0700  -27.1130 C.3   164  LEU164      0.0001
    145  CD2        1.0730  -33.0170  -25.7990 C.3   164  LEU164      0.0001
    146  N          2.7280  -28.3760  -25.7530 N.am  165  ASP165     -0.1960
    147  CA         2.9280  -27.0030  -26.1220 C.3   165  ASP165      0.1840
    148  C          3.7590  -26.1570  -25.0940 C.2   165  ASP165      0.2622
    149  O          3.2950  -25.3660  -24.3720 O.2   165  ASP165     -0.2715
    150  CB         1.6200  -26.3660  -26.5620 C.3   165  ASP165      0.1450
    151  CG         1.0520  -27.0150  -27.8490 C.2   165  ASP165      0.3671
    152  OD1        1.6690  -27.9480  -28.4930 O.co2 165  ASP165     -0.2456
    153  OD2       -0.0020  -26.5200  -28.2440 O.co2 165  ASP165     -0.2456
    154  N          5.0540  -26.3410  -25.1950 N.am  166  PHE166     -0.1974
    155  CA         6.0440  -25.4920  -24.5290 C.3   166  PHE166      0.1639
    156  C          6.8460  -24.5650  -25.4910 C.2   166  PHE166      0.2290
    157  O          7.2590  -24.9520  -26.6410 O.2   166  PHE166     -0.2864
    158  CB         6.9990  -26.4270  -23.7920 C.3   166  PHE166      0.0560
    159  CG         6.3820  -27.0680  -22.6020 C.ar  166  PHE166     -0.0200
    160  CD1        6.3920  -26.4290  -21.3670 C.ar  166  PHE166     -0.0042
    161  CD2        5.7760  -28.3230  -22.7320 C.ar  166  PHE166     -0.0042
    162  CE1        5.8870  -27.0610  -20.2830 C.ar  166  PHE166     -0.0003
    163  CE2        5.2580  -28.9440  -21.6560 C.ar  166  PHE166     -0.0003
    164  CZ         5.3190  -28.3340  -20.4370 C.ar  166  PHE166     -0.0000
    165  N          6.0680  -21.8740  -27.0190 N.3   168  LEU168     -0.1245
    166  CA         5.4500  -21.4460  -28.3010 C.3   168  LEU168      0.1561
    167  C          5.4640  -19.9100  -28.3540 C.2   168  LEU168      0.2260
    168  O          5.5800  -19.2290  -27.3280 O.2   168  LEU168     -0.2867
    169  CB         4.0490  -22.0390  -28.5240 C.3   168  LEU168      0.0270
    170  CG         4.0100  -23.5930  -28.6740 C.3   168  LEU168      0.0019
    171  CD1        2.6380  -24.1490  -28.9700 C.3   168  LEU168      0.0001
    172  CD2        4.9380  -24.0930  -29.7720 C.3   168  LEU168      0.0001
@<TRIPOS>BOND
     1     1     2    1
     2    11    10    2
     3     2     3    1
     4     2     5    1
     5    10     9    1
     6     3     4    2
     7     8     9    1
     8    25    24    1
     9     7     5    1
    10     9    12    1
    11     5     6    1
    12    24    26    1
    13    24    21    1
    14    23    22    2
    15    29    30    2
    16    29    28    1
    17    22    21    1
    18    22    27   am
    19    12    13    1
    20    12    14    1
    21    21    20    1
    22    28    27    1
    23    28    31    1
    24    20    17   am
    25    32    31    1
    26    32    33    1
    27    61    62    1
    28    17    16    1
    29    17    18    2
    30    93    91    1
    31    16    15    1
    32    16    19    1
    33    64    63    2
    34    63    62    1
    35    33    34    1
    36    62    65    1
    37    92    91    1
    38    34    35    1
    39    91    90    1
    40    65    66    1
    41    66    67    1
    42    66    68    1
    43    90    87    1
    44    72    71    2
    45    69    70    1
    46   126   124   am
    47    43    42   ar
    48    87    86    1
    49    87    88    1
    50   125   124    2
    51   124   123    1
    52   105   104    2
    53    86    78   am
    54    97    96    2
    55    74    73    1
    56    71    70    1
    57    71    76   am
    58    42    44   ar
    59    42    41    1
    60    70    73    1
    61    88    89    2
    62    88    94   am
    63    78    79    2
    64    78    77    1
    65   172   170    1
    66   123   120    1
    67    75    73    1
    68   104   103    1
    69   104   106   am
    70    94    95    1
    71   118   116   ar
    72   103   102    1
    73    96   102   am
    74    96    95    1
    75    77    76    1
    76    77    80    1
    77    41    40    1
    78    40    37    1
    79   171   170    1
    80   120   121    1
    81   120   119    1
    82   107   106    1
    83   107   110    1
    84   107   108    1
    85   170   169    1
    86   122   121    2
    87    95    98    1
    88   169   166    1
    89   152   151   ar
    90    51    50    1
    91   116   117   ar
    92   116   115    1
    93   167   166    1
    94   167   168    2
    95   166   165    1
    96   153   151   ar
    97   111   108   am
    98   111   112    1
    99    80    81    1
   100   151   150    1
   101   108   109    2
   102    37    38    1
   103    37    36    1
   104    38    39    2
   105    83    81   ar
   106    83    85   ar
   107    98    99    1
   108    60    58    1
   109   115   112    1
   110    81    82   ar
   111   131   132    1
   112   131   128    1
   113   144   143    1
   114   130   129    2
   115    50    49    1
   116    50    52    1
   117   112   113    1
   118    99   100    1
   119    85    84   ar
   120   114   113    2
   121   157   156    2
   122    49    46    1
   123   150   147    1
   124    82    84   ar
   125    58    57    1
   126   128   129    1
   127   128   127    1
   128   147   146    1
   129   147   148    1
   130   100   101    1
   131   143   142    1
   132   143   145    1
   133   137   134    1
   134   142   139    1
   135   146   140   am
   136   156   155    1
   137   154   148   am
   138   154   155    1
   139    46    47    1
   140    46    45    1
   141   148   149    2
   142    59    57    1
   143    57    54    1
   144    47    48    2
   145   134   135    1
   146   134   133    1
   147   140   139    1
   148   140   141    2
   149   139   138    1
   150   155   158    1
   151   135   136    2
   152    54    55    1
   153    54    53    1
   154    55    56    2
   155   158   159    1
   156   161   159   ar
   157   161   163   ar
   158   159   160   ar
   159   163   164   ar
   160   160   162   ar
   161   164   162   ar
