@<TRIPOS>MOLECULE
tmp/5xyzA00.pdb
 155 144 0 0 0
SMALL
GASTEIGER

@<TRIPOS>ATOM
      1  N        -10.7350  -19.1770  -42.4370 N.3    15  LEU15      -0.1245
      2  CA       -10.1090  -19.6720  -41.1900 C.3    15  LEU15       0.1561
      3  C        -11.1170  -19.9640  -40.0580 C.2    15  LEU15       0.2260
      4  O        -11.7110  -19.0540  -39.4640 O.2    15  LEU15      -0.2867
      5  CB        -9.0560  -18.6660  -40.7080 C.3    15  LEU15       0.0270
      6  CG        -7.8790  -18.2690  -41.6290 C.3    15  LEU15       0.0019
      7  CD1       -7.5660  -16.7830  -41.4940 C.3    15  LEU15       0.0001
      8  CD2       -6.6190  -19.1010  -41.3790 C.3    15  LEU15       0.0001
      9  N        -13.2910  -14.8430  -41.5360 N.3    16  VAL16      -0.1245
     10  CA       -11.9400  -14.2670  -41.4960 C.3    16  VAL16       0.1561
     11  C        -10.9690  -15.1100  -42.3420 C.2    16  VAL16       0.2260
     12  O        -10.9930  -16.3470  -42.2750 O.2    16  VAL16      -0.2867
     13  CB       -11.4280  -14.1010  -40.0250 C.3    16  VAL16       0.0252
     14  CG1      -10.9400  -15.4220  -39.4270 C.3    16  VAL16       0.0019
     15  CG2      -10.3260  -13.0750  -39.9530 C.3    16  VAL16       0.0019
     16  N         -4.2680  -11.2220  -42.0120 N.3    28  ALA28      -0.1231
     17  CA        -5.5920  -11.7910  -41.8390 C.3    28  ALA28       0.1694
     18  C         -6.5560  -10.6900  -42.1350 C.2    28  ALA28       0.2592
     19  O         -6.2700   -9.5400  -41.7860 O.2    28  ALA28      -0.2718
     20  CB        -5.7850  -12.2540  -40.4020 C.3    28  ALA28       0.0304
     21  N         -7.6920  -11.0300  -42.7470 N.am   29  ILE29      -0.1966
     22  CA        -8.6780  -10.0410  -43.2140 C.3    29  ILE29       0.1727
     23  C        -10.0880  -10.5090  -42.8480 C.2    29  ILE29       0.2616
     24  O        -10.3810  -11.7050  -42.9240 O.2    29  ILE29      -0.2715
     25  CB        -8.6670   -9.8390  -44.7570 C.3    29  ILE29       0.0290
     26  CG1       -7.2580   -9.7180  -45.3330 C.3    29  ILE29       0.0022
     27  CG2       -9.5020   -8.6270  -45.1500 C.3    29  ILE29       0.0023
     28  CD1       -7.1950  -10.0800  -46.8060 C.3    29  ILE29       0.0001
     29  N        -10.9560   -9.5660  -42.4760 N.am   30  LYS30      -0.1977
     30  CA       -12.3200   -9.8880  -42.0550 C.3    30  LYS30       0.1596
     31  C        -13.3040   -9.0490  -42.8330 C.2    30  LYS30       0.2287
     32  O        -13.0740   -7.8560  -43.0770 O.2    30  LYS30      -0.2864
     33  CB       -12.5180   -9.6350  -40.5540 C.3    30  LYS30       0.0298
     34  CG       -13.8830  -10.0400  -39.9850 C.3    30  LYS30       0.0038
     35  CD       -13.9180   -9.8650  -38.4670 C.3    30  LYS30       0.0206
     36  CE       -15.0710  -10.6160  -37.7910 C.3    30  LYS30       0.1093
     37  NZ       -14.9690  -10.6300  -36.2930 N.3    30  LYS30      -0.1314
     38  N         -9.7050    1.0440  -32.4500 N.3    43  MET43      -0.1245
     39  CA        -8.5660    0.2660  -32.9980 C.3    43  MET43       0.1570
     40  C         -7.4400    1.1350  -33.5320 C.2    43  MET43       0.2261
     41  O         -6.2950    0.7180  -33.5310 O.2    43  MET43      -0.2867
     42  CB        -8.9910   -0.6350  -34.1460 C.3    43  MET43       0.0387
     43  CG        -9.9800   -1.7080  -33.7990 C.3    43  MET43       0.0595
     44  SD       -10.2530   -2.7490  -35.2350 S.3    43  MET43      -0.1393
     45  CE        -8.7700   -3.7650  -35.1720 C.3    43  MET43       0.0692
     46  N         -3.9200   -7.4310  -31.1660 N.3    52  VAL52      -0.1245
     47  CA        -3.8160   -7.7640  -32.5850 C.3    52  VAL52       0.1561
     48  C         -3.7010   -6.4420  -33.3610 C.2    52  VAL52       0.2260
     49  O         -4.6020   -5.5950  -33.3100 O.2    52  VAL52      -0.2867
     50  CB        -5.0190   -8.6050  -33.0760 C.3    52  VAL52       0.0252
     51  CG1       -4.9810   -8.7970  -34.5880 C.3    52  VAL52       0.0019
     52  CG2       -5.0510   -9.9550  -32.3730 C.3    52  VAL52       0.0019
     53  N        -11.6240   -5.2470  -42.5820 N.3    66  ILE66      -0.1245
     54  CA       -10.5790   -4.9720  -41.6050 C.3    66  ILE66       0.1561
     55  C         -9.4630   -5.9810  -41.8360 C.2    66  ILE66       0.2260
     56  O         -9.7190   -7.1870  -41.9850 O.2    66  ILE66      -0.2867
     57  CB       -11.0310   -5.1100  -40.1260 C.3    66  ILE66       0.0252
     58  CG1      -12.4050   -4.4850  -39.8780 C.3    66  ILE66       0.0019
     59  CG2      -10.0250   -4.4100  -39.2030 C.3    66  ILE66       0.0019
     60  CD1      -12.8600   -4.5900  -38.4320 C.3    66  ILE66       0.0001
     61  N         -5.6340   -7.2000  -40.3440 N.3    68  THR68      -0.1203
     62  CA        -4.7750   -7.1770  -39.1670 C.3    68  THR68       0.1994
     63  C         -3.5480   -8.0620  -39.3880 C.2    68  THR68       0.2618
     64  O         -3.4030   -8.6670  -40.4400 O.2    68  THR68      -0.2717
     65  CB        -5.5310   -7.6400  -37.9110 C.3    68  THR68       0.1784
     66  OG1       -5.6670   -9.0720  -37.9210 O.3    68  THR68      -0.2211
     67  CG2       -6.9100   -6.9640  -37.8230 C.3    68  THR68       0.0376
     68  N         -2.6630   -8.1090  -38.3910 N.am   69  GLU69      -0.1965
     69  CA        -1.5320   -9.0250  -38.4070 C.3    69  GLU69       0.1733
     70  C         -2.0170  -10.4620  -38.4610 C.2    69  GLU69       0.2616
     71  O         -3.0660  -10.8040  -37.9250 O.2    69  GLU69      -0.2715
     72  CB        -0.6050   -8.8110  -37.1940 C.3    69  GLU69       0.0429
     73  CG        -1.1750   -9.1560  -35.8220 C.3    69  GLU69       0.1163
     74  CD        -0.1830   -8.9060  -34.6700 C.2    69  GLU69       0.3649
     75  OE1        1.0450   -8.9940  -34.8920 O.co2  69  GLU69      -0.2457
     76  OE2       -0.6290   -8.6490  -33.5150 O.co2  69  GLU69      -0.2457
     77  N         -1.2560  -11.2820  -39.1620 N.am   70  TYR70      -0.1960
     78  CA        -1.5530  -12.6870  -39.2540 C.3    70  TYR70       0.1771
     79  C         -0.9290  -13.3310  -38.0300 C.2    70  TYR70       0.2619
     80  O          0.2970  -13.3600  -37.8960 O.2    70  TYR70      -0.2715
     81  CB        -0.9810  -13.2710  -40.5460 C.3    70  TYR70       0.0574
     82  CG        -1.2400  -14.7500  -40.7030 C.ar   70  TYR70      -0.0198
     83  CD1       -2.5340  -15.2340  -40.7780 C.ar   70  TYR70      -0.0009
     84  CD2       -0.1840  -15.6550  -40.7880 C.ar   70  TYR70      -0.0009
     85  CE1       -2.7780  -16.5870  -40.9200 C.ar   70  TYR70       0.0417
     86  CE2       -0.4060  -17.0110  -40.9380 C.ar   70  TYR70       0.0417
     87  CZ        -1.7090  -17.4810  -41.0030 C.ar   70  TYR70       0.1957
     88  OH        -1.9590  -18.8370  -41.1300 O.3    70  TYR70      -0.2866
     89  N         -1.7820  -13.7580  -37.1070 N.am   71  MET71      -0.1963
     90  CA        -1.3860  -14.5920  -35.9650 C.3    71  MET71       0.1736
     91  C         -1.3880  -16.0580  -36.4210 C.2    71  MET71       0.2616
     92  O         -2.4160  -16.7460  -36.3830 O.2    71  MET71      -0.2715
     93  CB        -2.3390  -14.3690  -34.7930 C.3    71  MET71       0.0427
     94  CG        -2.5950  -12.9040  -34.4550 C.3    71  MET71       0.0599
     95  SD        -1.0660  -12.1370  -33.9540 S.3    71  MET71      -0.1393
     96  CE        -1.2330  -12.4010  -32.1970 C.3    71  MET71       0.0692
     97  N         -0.2200  -16.5000  -36.8770 N.am   72  ALA72      -0.1977
     98  CA        -0.0340  -17.7910  -37.5490 C.3    72  ALA72       0.1597
     99  C         -0.3610  -19.0410  -36.7160 C.2    72  ALA72       0.2287
    100  O         -0.7110  -20.0520  -37.2860 O.2    72  ALA72      -0.2864
    101  CB         1.3960  -17.8850  -38.0760 C.3    72  ALA72       0.0319
    102  N         -2.9390  -19.2060  -34.6670 N.3    74  GLY74      -0.1210
    103  CA        -4.3870  -19.2660  -34.5630 C.3    74  GLY74       0.1956
    104  C         -4.9080  -18.9860  -33.1730 C.2    74  GLY74       0.2612
    105  O         -4.2400  -18.3250  -32.3730 O.2    74  GLY74      -0.2717
    106  N         -6.1110  -19.4770  -32.8930 N.am   75  CYS75      -0.1970
    107  CA        -6.7330  -19.2870  -31.5890 C.3    75  CYS75       0.1712
    108  C         -6.1390  -20.2100  -30.5110 C.2    75  CYS75       0.2296
    109  O         -5.7900  -21.3880  -30.7600 O.2    75  CYS75      -0.2864
    110  CB        -8.2600  -19.4380  -31.6580 C.3    75  CYS75       0.0983
    111  SG        -8.8350  -20.7310  -32.7800 S.3    75  CYS75      -0.0798
    112  N         -7.3790  -23.8920  -29.3990 N.3    78  ASN78      -0.1240
    113  CA        -6.8710  -25.0000  -30.2270 C.3    78  ASN78       0.1653
    114  C         -5.3930  -25.2340  -29.9590 C.2    78  ASN78       0.2266
    115  O         -4.9560  -26.3650  -29.7750 O.2    78  ASN78      -0.2867
    116  CB        -7.0700  -24.7180  -31.7120 C.3    78  ASN78       0.1155
    117  CG        -8.5250  -24.5560  -32.0860 C.2    78  ASN78       0.2627
    118  OD1       -9.2030  -23.6550  -31.5970 O.2    78  ASN78      -0.2716
    119  ND2       -9.0090  -25.4150  -32.9740 N.am   78  ASN78      -0.0877
    120  N        -10.8240  -19.3760  -26.8130 N.3   116  ARG116     -0.1245
    121  CA       -11.2230  -19.3540  -28.2170 C.3   116  ARG116      0.1563
    122  C        -11.0900  -17.9580  -28.8510 C.2   116  ARG116      0.2260
    123  O        -10.8790  -17.8600  -30.0480 O.2   116  ARG116     -0.2867
    124  CB       -12.6680  -19.8640  -28.3770 C.3   116  ARG116      0.0307
    125  CG       -13.7140  -18.8960  -27.8450 C.3   116  ARG116      0.0489
    126  CD       -15.1320  -19.4430  -27.8590 C.3   116  ARG116      0.2205
    127  NE       -15.9240  -18.7330  -26.8530 N.pl3 116  ARG116     -0.0865
    128  CZ       -15.8490  -18.9440  -25.5340 C.cat 116  ARG116      0.5346
    129  NH1      -15.0200  -19.8690  -25.0370 N.pl3 116  ARG116      0.1354
    130  NH2      -16.6030  -18.2210  -24.7000 N.pl3 116  ARG116      0.1354
    131  N         -5.5060  -15.2270  -29.3610 N.3   119  LEU119     -0.1245
    132  CA        -4.8430  -15.4670  -30.6420 C.3   119  LEU119      0.1561
    133  C         -3.3400  -15.5290  -30.4960 C.2   119  LEU119      0.2260
    134  O         -2.8070  -14.8160  -29.6730 O.2   119  LEU119     -0.2867
    135  CB        -5.2120  -14.3410  -31.6210 C.3   119  LEU119      0.0270
    136  CG        -6.4520  -14.4900  -32.4950 C.3   119  LEU119      0.0019
    137  CD1       -6.5570  -13.3300  -33.4800 C.3   119  LEU119      0.0001
    138  CD2       -6.4510  -15.8420  -33.2260 C.3   119  LEU119      0.0001
    139  N         -7.8680   -9.0770  -29.0290 N.3   129  SER129     -0.1217
    140  CA        -8.3680   -8.1340  -30.0420 C.3   129  SER129      0.1889
    141  C         -8.9760   -6.8610  -29.4350 C.2   129  SER129      0.2288
    142  O         -9.7110   -6.9450  -28.4530 O.2   129  SER129     -0.2866
    143  CB        -9.4130   -8.8310  -30.8930 C.3   129  SER129      0.2089
    144  OG        -9.8890   -7.9510  -31.8880 O.3   129  SER129     -0.2183
    145  N        -11.1180   -5.0000  -31.1130 N.3   131  PHE131     -0.1241
    146  CA       -12.3130   -4.8050  -31.9230 C.3   131  PHE131      0.1605
    147  C        -13.4240   -5.4760  -31.1710 C.2   131  PHE131      0.2264
    148  O        -13.2540   -6.6010  -30.7280 O.2   131  PHE131     -0.2867
    149  CB       -12.1010   -5.4690  -33.2620 C.3   131  PHE131      0.0534
    150  CG       -13.2840   -5.4220  -34.1570 C.ar  131  PHE131     -0.0203
    151  CD1      -13.8020   -4.2110  -34.5680 C.ar  131  PHE131     -0.0042
    152  CD2      -13.8630   -6.5980  -34.6160 C.ar  131  PHE131     -0.0042
    153  CE1      -14.8950   -4.1700  -35.4150 C.ar  131  PHE131     -0.0003
    154  CE2      -14.9550   -6.5670  -35.4470 C.ar  131  PHE131     -0.0003
    155  CZ       -15.4690   -5.3520  -35.8530 C.ar  131  PHE131     -0.0000
@<TRIPOS>BOND
     1    28    26    1
     2    26    25    1
     3    27    25    1
     4    25    22    1
     5    22    23    1
     6    22    21    1
     7    32    31    2
     8    24    23    2
     9    23    29   am
    10    31    30    1
    11    21    18   am
    12    53    54    1
    13    29    30    1
    14     1     2    1
    15    11    12    2
    16    11    10    1
    17    18    17    1
    18    18    19    2
    19    30    33    1
    20    16    17    1
    21    56    55    2
    22    17    20    1
    23    55    54    1
    24     6     7    1
    25     6     8    1
    26     6     5    1
    27    54    57    1
    28     9    10    1
    29    10    13    1
    30     2     5    1
    31     2     3    1
    32    88    87    1
    33    87    86   ar
    34    87    85   ar
    35    86    84   ar
    36    85    83   ar
    37    84    82   ar
    38    83    82   ar
    39    82    81    1
    40    33    34    1
    41    81    78    1
    42    64    63    2
    43    61    62    1
    44    57    58    1
    45    57    59    1
    46     3     4    2
    47    13    15    1
    48    13    14    1
    49    34    35    1
    50    58    60    1
    51    63    62    1
    52    63    68   am
    53    78    77    1
    54    78    79    1
    55    62    65    1
    56    77    70   am
    57    35    36    1
    58    70    69    1
    59    70    71    2
    60    69    68    1
    61    69    72    1
    62   101    98    1
    63    79    80    2
    64    79    89   am
    65    66    65    1
    66    65    67    1
    67    36    37    1
    68    98    97    1
    69    98    99    1
    70   100    99    2
    71    72    73    1
    72    89    90    1
    73    97    91   am
    74    91    92    2
    75    91    90    1
    76    90    93    1
    77   155   154   ar
    78   155   153   ar
    79    73    74    1
    80   154   152   ar
    81   153   151   ar
    82    44    45    1
    83    44    43    1
    84    75    74   ar
    85    93    94    1
    86    74    76   ar
    87   102   103    1
    88   152   150   ar
    89    51    50    1
    90   151   150   ar
    91   103   104    1
    92    94    95    1
    93   150   149    1
    94    42    43    1
    95    42    39    1
    96    95    96    1
    97    40    41    2
    98    40    39    1
    99   137   136    1
   100    48    49    2
   101    48    47    1
   102   149   146    1
   103   138   136    1
   104   104   106   am
   105   104   105    2
   106    50    47    1
   107    50    52    1
   108    39    38    1
   109   119   117   am
   110   106   107    1
   111   111   110    1
   112    47    46    1
   113   136   135    1
   114   117   116    1
   115   117   118    2
   116   146   147    1
   117   146   145    1
   118   144   143    1
   119   116   113    1
   120   110   107    1
   121   135   132    1
   122   107   108    1
   123   147   148    2
   124   143   140    1
   125   109   108    2
   126   132   133    1
   127   132   131    1
   128   133   134    2
   129   113   114    1
   130   113   112    1
   131   123   122    2
   132   140   141    1
   133   140   139    1
   134   114   115    2
   135   141   142    2
   136   122   121    1
   137   124   121    1
   138   124   125    1
   139   121   120    1
   140   126   125    1
   141   126   127    1
   142   127   128    2
   143   128   129    1
   144   128   130    1
