@<TRIPOS>MOLECULE
tmp/5xyzB00.pdb
 155 144 0 0 0
SMALL
GASTEIGER

@<TRIPOS>ATOM
      1  N         18.2400   17.7460  -34.6280 N.3    15  LEU15      -0.1245
      2  CA        17.5710   17.6550  -33.3040 C.3    15  LEU15       0.1561
      3  C         18.5440   17.4950  -32.0930 C.2    15  LEU15       0.2260
      4  O         19.2920   16.5060  -31.9610 O.2    15  LEU15      -0.2867
      5  CB        16.5350   16.5130  -33.3230 C.3    15  LEU15       0.0270
      6  CG        15.4570   16.4910  -34.4340 C.3    15  LEU15       0.0019
      7  CD1       14.8110   15.1170  -34.6290 C.3    15  LEU15       0.0001
      8  CD2       14.3860   17.5520  -34.1830 C.3    15  LEU15       0.0001
      9  N         21.0680   13.2600  -35.5870 N.3    16  VAL16      -0.1245
     10  CA        19.6720   12.8370  -35.7550 C.3    16  VAL16       0.1561
     11  C         18.7200   13.9490  -36.2670 C.2    16  VAL16       0.2260
     12  O         18.7180   15.0740  -35.7490 O.2    16  VAL16      -0.2867
     13  CB        19.1120   12.2320  -34.4450 C.3    16  VAL16       0.0252
     14  CG1       18.8930   13.3030  -33.3880 C.3    16  VAL16       0.0019
     15  CG2       17.8170   11.4850  -34.6950 C.3    16  VAL16       0.0019
     16  N         12.0190   10.0440  -37.6500 N.3    28  ALA28      -0.1231
     17  CA        13.3370   10.4820  -37.2540 C.3    28  ALA28       0.1694
     18  C         14.3070    9.6750  -38.0770 C.2    28  ALA28       0.2592
     19  O         14.0580    8.5010  -38.3850 O.2    28  ALA28      -0.2718
     20  CB        13.5860   10.2650  -35.7660 C.3    28  ALA28       0.0304
     21  N         15.4210   10.3270  -38.3960 N.am   29  ILE29      -0.1966
     22  CA        16.4410    9.8040  -39.2780 C.3    29  ILE29       0.1727
     23  C         17.7890    9.9660  -38.5740 C.2    29  ILE29       0.2616
     24  O         18.1880   11.0940  -38.2500 O.2    29  ILE29      -0.2715
     25  CB        16.4550   10.5980  -40.6120 C.3    29  ILE29       0.0290
     26  CG1       15.0440   10.6800  -41.2120 C.3    29  ILE29       0.0022
     27  CG2       17.4360    9.9710  -41.5910 C.3    29  ILE29       0.0023
     28  CD1       14.9420   11.5750  -42.4250 C.3    29  ILE29       0.0001
     29  N         18.4740    8.8480  -38.3220 N.am   30  LYS30      -0.1977
     30  CA        19.8250    8.8740  -37.7330 C.3    30  LYS30       0.1596
     31  C         20.8310    8.5720  -38.8300 C.2    30  LYS30       0.2287
     32  O         20.6970    7.5410  -39.5030 O.2    30  LYS30      -0.2864
     33  CB        19.9450    7.8270  -36.6260 C.3    30  LYS30       0.0298
     34  CG        21.1950    7.9580  -35.7740 C.3    30  LYS30       0.0038
     35  CD        20.9560    7.6290  -34.2890 C.3    30  LYS30       0.0206
     36  CE        22.0430    8.2570  -33.3990 C.3    30  LYS30       0.1093
     37  NZ        21.9790    7.9410  -31.9400 N.3    30  LYS30      -0.1314
     38  N         17.4120   -4.8220  -33.5770 N.3    45  MET45      -0.1245
     39  CA        16.2820   -3.9010  -33.6460 C.3    45  MET45       0.1570
     40  C         15.1160   -4.5050  -34.4160 C.2    45  MET45       0.2261
     41  O         13.9670   -4.2990  -34.0600 O.2    45  MET45      -0.2867
     42  CB        16.6840   -2.6000  -34.3010 C.3    45  MET45       0.0387
     43  CG        17.6440   -1.7650  -33.4820 C.3    45  MET45       0.0595
     44  SD        17.8490   -0.1610  -34.2750 S.3    45  MET45      -0.1393
     45  CE        16.3580    0.7020  -33.7510 C.3    45  MET45       0.0692
     46  N         11.3090    2.5760  -28.9850 N.3    54  VAL54      -0.1245
     47  CA        11.2120    3.4430  -30.1440 C.3    54  VAL54       0.1561
     48  C         11.2160    2.5010  -31.3460 C.2    54  VAL54       0.2260
     49  O         12.1940    1.7980  -31.5820 O.2    54  VAL54      -0.2867
     50  CB        12.3900    4.4240  -30.2530 C.3    54  VAL54       0.0252
     51  CG1       12.2730    5.2380  -31.5310 C.3    54  VAL54       0.0019
     52  CG2       12.4630    5.3420  -29.0320 C.3    54  VAL54       0.0019
     53  N         19.1880    5.1220  -40.2140 N.3    68  ILE68      -0.1245
     54  CA        18.2130    4.3860  -39.4320 C.3    68  ILE68       0.1561
     55  C         17.0010    5.2830  -39.2570 C.2    68  ILE68       0.2260
     56  O         17.1060    6.4220  -38.7590 O.2    68  ILE68      -0.2867
     57  CB        18.7770    3.9420  -38.0650 C.3    68  ILE68       0.0252
     58  CG1       20.0100    3.0470  -38.2750 C.3    68  ILE68       0.0019
     59  CG2       17.7150    3.1890  -37.2560 C.3    68  ILE68       0.0019
     60  CD1       20.6970    2.6300  -36.9930 C.3    68  ILE68       0.0001
     61  N         13.3020    5.7640  -37.5930 N.3    70  THR70      -0.1203
     62  CA        12.4950    5.3660  -36.4690 C.3    70  THR70       0.1994
     63  C         11.2830    6.2600  -36.4300 C.2    70  THR70       0.2618
     64  O         11.2060    7.2510  -37.1570 O.2    70  THR70      -0.2717
     65  CB        13.2550    5.5570  -35.1580 C.3    70  THR70       0.1784
     66  OG1       13.6360    6.9360  -35.0410 O.3    70  THR70      -0.2211
     67  CG2       14.4860    4.6730  -35.1100 C.3    70  THR70       0.0376
     68  N         10.3400    5.8860  -35.5700 N.am   71  GLU71      -0.1965
     69  CA         9.2270    6.7580  -35.2200 C.3    71  GLU71       0.1733
     70  C          9.6980    8.1100  -34.6600 C.2    71  GLU71       0.2616
     71  O         10.7450    8.2070  -34.0400 O.2    71  GLU71      -0.2715
     72  CB         8.2770    6.0640  -34.2280 C.3    71  GLU71       0.0429
     73  CG         8.8590    5.7860  -32.8620 C.3    71  GLU71       0.1163
     74  CD         7.8530    5.1490  -31.9480 C.2    71  GLU71       0.3649
     75  OE1        6.8090    5.7590  -31.6650 O.co2  71  GLU71      -0.2457
     76  OE2        8.1150    4.0290  -31.5070 O.co2  71  GLU71      -0.2457
     77  N          8.9110    9.1400  -34.9390 N.am   72  TYR72      -0.1960
     78  CA         9.1100   10.4760  -34.4050 C.3    72  TYR72       0.1771
     79  C          8.4780   10.4610  -33.0150 C.2    72  TYR72       0.2619
     80  O          7.3660    9.9390  -32.8390 O.2    72  TYR72      -0.2715
     81  CB         8.4560   11.5430  -35.3130 C.3    72  TYR72       0.0574
     82  CG         8.7160   12.9760  -34.8730 C.ar   72  TYR72      -0.0198
     83  CD1       10.0080   13.4940  -34.8460 C.ar   72  TYR72      -0.0009
     84  CD2        7.6720   13.8150  -34.4790 C.ar   72  TYR72      -0.0009
     85  CE1       10.2560   14.7980  -34.4360 C.ar   72  TYR72       0.0417
     86  CE2        7.9100   15.1220  -34.0680 C.ar   72  TYR72       0.0417
     87  CZ         9.2020   15.6080  -34.0420 C.ar   72  TYR72       0.1957
     88  OH         9.4490   16.9050  -33.6360 O.3    72  TYR72      -0.2866
     89  N          9.2130   10.9970  -32.0350 N.am   73  MET73      -0.1963
     90  CA         8.7860   11.0980  -30.6530 C.3    73  MET73       0.1736
     91  C          8.7430   12.6150  -30.4070 C.2    73  MET73       0.2616
     92  O          9.7330   13.2390  -30.0240 O.2    73  MET73      -0.2715
     93  CB         9.7680   10.3920  -29.7300 C.3    73  MET73       0.0427
     94  CG        10.0160    8.9100  -30.0270 C.3    73  MET73       0.0599
     95  SD         8.6910    7.7450  -29.5820 S.3    73  MET73      -0.1393
     96  CE         8.7930    7.8190  -27.7910 C.3    73  MET73       0.0692
     97  N          7.5770   13.1970  -30.6520 N.am   74  ALA74      -0.1977
     98  CA         7.4230   14.6580  -30.7250 C.3    74  ALA74       0.1597
     99  C          7.8400   15.4780  -29.5070 C.2    74  ALA74       0.2287
    100  O          8.0020   16.6680  -29.6560 O.2    74  ALA74      -0.2864
    101  CB         5.9830   15.0120  -31.0940 C.3    74  ALA74       0.0319
    102  N         10.6310   14.7760  -27.5600 N.3    76  GLY76      -0.1210
    103  CA        12.0840   14.8000  -27.5350 C.3    76  GLY76       0.1956
    104  C         12.5990   13.8590  -26.5070 C.2    76  GLY76       0.2612
    105  O         11.8920   12.9320  -26.1070 O.2    76  GLY76      -0.2717
    106  N         13.8390   14.0800  -26.0940 N.am   77  CYS77      -0.1970
    107  CA        14.4060   13.2960  -25.0180 C.3    77  CYS77       0.1712
    108  C         13.8900   13.7810  -23.6810 C.2    77  CYS77       0.2296
    109  O         13.5220   14.9410  -23.5400 O.2    77  CYS77      -0.2864
    110  CB        15.9360   13.2350  -25.0810 C.3    77  CYS77       0.0983
    111  SG        16.6680   14.4430  -26.1940 S.3    77  CYS77      -0.0798
    112  N         15.0180   17.0190  -21.1330 N.3    80  ASN80      -0.1240
    113  CA        14.5010   18.3450  -21.5460 C.3    80  ASN80       0.1653
    114  C         13.0010   18.5200  -21.3150 C.2    80  ASN80       0.2266
    115  O         12.5480   19.5870  -20.9070 O.2    80  ASN80      -0.2867
    116  CB        14.7810   18.5660  -23.0230 C.3    80  ASN80       0.1155
    117  CG        16.2620   18.5070  -23.3420 C.2    80  ASN80       0.2627
    118  OD1       16.8460   17.4300  -23.4590 O.2    80  ASN80      -0.2716
    119  ND2       16.8840   19.6750  -23.4680 N.am   80  ASN80      -0.0877
    120  N         18.5110   11.5280  -20.2510 N.3   121  ARG121     -0.1245
    121  CA        18.9250   12.0750  -21.5700 C.3   121  ARG121      0.1563
    122  C         18.6630   11.1250  -22.7520 C.2   121  ARG121      0.2260
    123  O         18.3700   11.5830  -23.8550 O.2   121  ARG121     -0.2867
    124  CB        20.3980   12.5350  -21.5620 C.3   121  ARG121      0.0307
    125  CG        21.4090   11.4410  -21.2300 C.3   121  ARG121      0.0489
    126  CD        22.8380   11.9480  -21.1340 C.3   121  ARG121      0.2205
    127  NE        23.6590   10.9540  -20.4400 N.pl3 121  ARG121     -0.0865
    128  CZ        23.6890   10.7670  -19.1150 C.cat 121  ARG121      0.5346
    129  NH1       22.9520   11.5300  -18.3070 N.pl3 121  ARG121      0.1354
    130  NH2       24.4620    9.8120  -18.5890 N.pl3 121  ARG121      0.1354
    131  N         13.0000    8.8590  -24.5910 N.3   124  LEU124     -0.1245
    132  CA        12.2500    9.7430  -25.4870 C.3   124  LEU124      0.1561
    133  C         10.7510    9.6920  -25.2230 C.2   124  LEU124      0.2260
    134  O         10.2390    8.7550  -24.6420 O.2   124  LEU124     -0.2867
    135  CB        12.5130    9.3600  -26.9380 C.3   124  LEU124      0.0270
    136  CG        13.9030    9.6530  -27.4840 C.3   124  LEU124      0.0019
    137  CD1       14.1500    8.7280  -28.6640 C.3   124  LEU124      0.0001
    138  CD2       14.0860   11.1190  -27.8590 C.3   124  LEU124      0.0001
    139  N         15.5530    3.3230  -26.5820 N.3   134  SER134     -0.1217
    140  CA        16.0770    2.7570  -27.8340 C.3   134  SER134      0.1889
    141  C         16.5760    1.3390  -27.6230 C.2   134  SER134      0.2288
    142  O         17.2920    1.0650  -26.6280 O.2   134  SER134     -0.2866
    143  CB        17.2560    3.5590  -28.3700 C.3   134  SER134      0.2089
    144  OG        17.8690    2.8820  -29.4710 O.3   134  SER134     -0.2183
    145  N         18.4890    0.2340  -30.1550 N.3   136  PHE136     -0.1241
    146  CA        19.7460    0.3870  -30.8980 C.3   136  PHE136      0.1605
    147  C         20.8880    0.5920  -29.9100 C.2   136  PHE136      0.2264
    148  O         20.7500    1.3530  -28.9470 O.2   136  PHE136     -0.2867
    149  CB        19.6410    1.5940  -31.8210 C.3   136  PHE136      0.0534
    150  CG        20.8880    1.9050  -32.5790 C.ar  136  PHE136     -0.0203
    151  CD1       21.3320    1.0670  -33.5730 C.ar  136  PHE136     -0.0042
    152  CD2       21.5900    3.0780  -32.3230 C.ar  136  PHE136     -0.0042
    153  CE1       22.4750    1.3710  -34.2860 C.ar  136  PHE136     -0.0003
    154  CE2       22.7260    3.3930  -33.0320 C.ar  136  PHE136     -0.0003
    155  CZ        23.1700    2.5330  -34.0160 C.ar  136  PHE136     -0.0000
@<TRIPOS>BOND
     1    28    26    1
     2    27    25    1
     3    26    25    1
     4    25    22    1
     5    53    54    1
     6    32    31    2
     7    54    55    1
     8    54    57    1
     9    22    23    1
    10    22    21    1
    11    55    56    2
    12    31    30    1
    13    23    29   am
    14    23    24    2
    15    21    18   am
    16    19    18    2
    17    29    30    1
    18    58    57    1
    19    58    60    1
    20    18    17    1
    21    57    59    1
    22    30    33    1
    23    16    17    1
    24    61    62    1
    25    17    20    1
    26    64    63    2
    27    33    34    1
    28    62    63    1
    29    62    65    1
    30    63    68   am
    31    11    10    1
    32    11    12    2
    33    34    35    1
    34    10     9    1
    35    10    13    1
    36    68    69    1
    37    81    82    1
    38    81    78    1
    39    69    70    1
    40    69    72    1
    41    65    67    1
    42    65    66    1
    43    77    70   am
    44    77    78    1
    45    82    83   ar
    46    82    84   ar
    47    83    85   ar
    48    15    13    1
    49    70    71    2
    50     7     6    1
    51     1     2    1
    52    84    86   ar
    53    13    14    1
    54    85    87   ar
    55     6     8    1
    56     6     5    1
    57    40    41    2
    58    40    39    1
    59    78    79    1
    60    42    39    1
    61    42    43    1
    62    35    36    1
    63   153   155   ar
    64   153   151   ar
    65    44    45    1
    66    44    43    1
    67    72    73    1
    68    86    87   ar
    69    87    88    1
    70   155   154   ar
    71    39    38    1
    72   151   150   ar
    73    36    37    1
    74     5     2    1
    75     2     3    1
    76   154   152   ar
    77    79    80    2
    78    79    89   am
    79    73    74    1
    80   150   152   ar
    81   150   149    1
    82     3     4    2
    83    89    90    1
    84    74    75   ar
    85    74    76   ar
    86   149   146    1
    87    49    48    2
    88    51    50    1
    89    48    47    1
    90   101    98    1
    91   146   145    1
    92   146   147    1
    93    98    97    1
    94    98    99    1
    95    90    91    1
    96    90    93    1
    97    97    91   am
    98    91    92    2
    99    50    47    1
   100    50    52    1
   101    47    46    1
   102    94    93    1
   103    94    95    1
   104   147   148    2
   105   100    99    2
   106    95    96    1
   107   144   143    1
   108   137   136    1
   109   143   140    1
   110   138   136    1
   111   140   141    1
   112   140   139    1
   113   141   142    2
   114   102   103    1
   115   103   104    1
   116   136   135    1
   117   135   132    1
   118   104   105    2
   119   104   106   am
   120   111   110    1
   121   106   107    1
   122   132   133    1
   123   132   131    1
   124   133   134    2
   125   110   107    1
   126   107   108    1
   127   123   122    2
   128   108   109    2
   129   119   117   am
   130   118   117    2
   131   117   116    1
   132   116   113    1
   133   122   121    1
   134   121   124    1
   135   121   120    1
   136   124   125    1
   137   113   114    1
   138   113   112    1
   139   114   115    2
   140   125   126    1
   141   126   127    1
   142   127   128    2
   143   128   130    1
   144   128   129    1
