@<TRIPOS>MOLECULE
tmp/5xz6A00.pdb
 187 178 0 0 0
SMALL
GASTEIGER

@<TRIPOS>ATOM
      1  N         -9.0100  -15.2990   20.9000 N.3     9  SER9       -0.1202
      2  CA        -8.0910  -15.3230   22.0540 C.3     9  SER9        0.2020
      3  C         -6.6160  -15.2510   21.6610 C.2     9  SER9        0.2619
      4  O         -6.2170  -15.6690   20.5730 O.2     9  SER9       -0.2717
      5  CB        -8.3540  -16.5800   22.8920 C.3     9  SER9        0.2103
      6  OG        -7.5530  -16.6050   24.0630 O.3     9  SER9       -0.2182
      7  N         -5.8230  -14.7020   22.5730 N.am   10  GLY10      -0.1942
      8  CA        -4.3860  -14.5420   22.3910 C.3    10  GLY10       0.2014
      9  C         -4.0170  -13.3490   21.5510 C.2    10  GLY10       0.2639
     10  O         -4.7750  -12.4110   21.4340 O.2    10  GLY10      -0.2714
     11  N         -2.8350  -13.3740   20.9570 N.am   11  GLY11      -0.1954
     12  CA        -2.4430  -12.2860   20.0730 C.3    11  GLY11       0.1869
     13  C         -3.4190  -12.1820   18.8990 C.2    11  GLY11       0.2309
     14  O         -3.7390  -13.2110   18.2650 O.2    11  GLY11      -0.2863
     15  N        -11.3950  -15.3330   26.6440 N.3    41  TYR41      -0.1241
     16  CA       -11.9150  -16.0940   27.7610 C.3    41  TYR41       0.1605
     17  C        -12.3350  -15.2350   28.9670 C.2    41  TYR41       0.2264
     18  O        -13.0850  -15.7160   29.8190 O.2    41  TYR41      -0.2867
     19  CB       -10.8670  -17.1160   28.1930 C.3    41  TYR41       0.0534
     20  CG       -10.6110  -18.2310   27.1960 C.ar   41  TYR41      -0.0201
     21  CD1      -11.6370  -19.0850   26.8050 C.ar   41  TYR41      -0.0009
     22  CD2       -9.3320  -18.4620   26.6830 C.ar   41  TYR41      -0.0009
     23  CE1      -11.4190  -20.1200   25.9140 C.ar   41  TYR41       0.0417
     24  CE2       -9.0980  -19.5020   25.7940 C.ar   41  TYR41       0.0417
     25  CZ       -10.1530  -20.3290   25.4110 C.ar   41  TYR41       0.1957
     26  OH        -9.9520  -21.3550   24.5320 O.3    41  TYR41      -0.2866
     27  N         -8.3250  -11.1610   24.9110 N.3    71  ALA71      -0.1231
     28  CA        -7.7780  -10.9170   26.2280 C.3    71  ALA71       0.1694
     29  C         -6.7450  -11.9610   26.5730 C.2    71  ALA71       0.2592
     30  O         -6.6030  -12.9890   25.8930 O.2    71  ALA71      -0.2718
     31  CB        -8.8850  -10.9120   27.2720 C.3    71  ALA71       0.0304
     32  N         -6.0140  -11.6380   27.6340 N.am   72  ARG72      -0.1966
     33  CA        -5.2330  -12.5900   28.3840 C.3    72  ARG72       0.1729
     34  C         -6.1190  -12.8320   29.5910 C.2    72  ARG72       0.2616
     35  O         -6.6460  -11.8860   30.1990 O.2    72  ARG72      -0.2715
     36  CB        -3.8570  -12.0550   28.8260 C.3    72  ARG72       0.0348
     37  CG        -2.9940  -11.4190   27.7330 C.3    72  ARG72       0.0492
     38  CD        -2.6500   -9.9530   28.0220 C.3    72  ARG72       0.2205
     39  NE        -3.8020   -9.1520   28.4650 N.pl3  72  ARG72      -0.0865
     40  CZ        -4.7680   -8.6600   27.6770 C.cat  72  ARG72       0.5346
     41  NH1       -4.7820   -8.8860   26.3580 N.pl3  72  ARG72       0.1354
     42  NH2       -5.7610   -7.9590   28.2250 N.pl3  72  ARG72       0.1354
     43  N         -6.3060  -14.1080   29.8970 N.am   73  CYS73      -0.1954
     44  CA        -7.0840  -14.5720   31.0380 C.3    73  CYS73       0.1828
     45  C         -6.2390  -15.7180   31.6430 C.2    73  CYS73       0.2467
     46  O         -6.6410  -16.8900   31.5840 O.2    73  CYS73      -0.2730
     47  CB        -8.4720  -15.0240   30.5370 C.3    73  CYS73       0.0996
     48  SG        -9.6980  -15.5650   31.7420 S.3    73  CYS73      -0.0797
     49  N         -5.0380  -15.3870   32.1810 N.am   74  PRO74      -0.2726
     50  CA        -4.1640  -16.3810   32.8450 C.3    74  PRO74       0.1402
     51  C         -4.8610  -17.2560   33.9000 C.2    74  PRO74       0.2269
     52  O         -4.4820  -18.4140   34.0960 O.2    74  PRO74      -0.2865
     53  CB        -3.0560  -15.5170   33.4940 C.3    74  PRO74       0.0296
     54  CG        -3.4260  -14.0850   33.2640 C.3    74  PRO74       0.0237
     55  CD        -4.3750  -14.0700   32.1010 C.3    74  PRO74       0.0939
     56  N         -7.6550  -18.6640   33.4330 N.3    76  PHE76      -0.1227
     57  CA        -8.3050  -19.7980   32.7200 C.3    76  PHE76       0.1736
     58  C         -7.5460  -21.1320   32.8030 C.2    76  PHE76       0.2595
     59  O         -8.0470  -22.1500   32.3340 O.2    76  PHE76      -0.2718
     60  CB        -8.5870  -19.4580   31.2380 C.3    76  PHE76       0.0547
     61  CG        -9.8490  -20.0910   30.7010 C.ar   76  PHE76      -0.0202
     62  CD1      -11.0880  -19.5610   31.0360 C.ar   76  PHE76      -0.0042
     63  CD2       -9.8000  -21.2160   29.8690 C.ar   76  PHE76      -0.0042
     64  CE1      -12.2550  -20.1340   30.5610 C.ar   76  PHE76      -0.0003
     65  CE2      -10.9650  -21.7970   29.3920 C.ar   76  PHE76      -0.0003
     66  CZ       -12.1950  -21.2550   29.7420 C.ar   76  PHE76      -0.0000
     67  N         -6.3600  -21.1160   33.4110 N.am   77  LYS77      -0.1980
     68  CA        -5.5780  -22.3300   33.7070 C.3    77  LYS77       0.1596
     69  C         -6.0770  -23.1580   34.9040 C.2    77  LYS77       0.2287
     70  O         -5.4410  -24.1360   35.2840 O.2    77  LYS77      -0.2864
     71  CB        -4.0980  -21.9380   33.9100 C.3    77  LYS77       0.0298
     72  CG        -3.3190  -21.9060   32.6050 C.3    77  LYS77       0.0038
     73  CD        -2.1140  -20.9780   32.5940 C.3    77  LYS77       0.0206
     74  CE        -1.0710  -21.5250   31.6240 C.3    77  LYS77       0.1093
     75  NZ         0.0780  -20.6510   31.2640 N.3    77  LYS77      -0.1314
     76  N        -12.6390  -22.1580   35.2760 N.3    82  ARG82      -0.1245
     77  CA       -13.2660  -22.6840   34.0540 C.3    82  ARG82       0.1563
     78  C        -14.6920  -23.2090   34.2810 C.2    82  ARG82       0.2260
     79  O        -15.5240  -23.1740   33.3570 O.2    82  ARG82      -0.2867
     80  CB       -12.4110  -23.7930   33.4300 C.3    82  ARG82       0.0307
     81  CG       -11.1450  -23.3090   32.7330 C.3    82  ARG82       0.0489
     82  CD       -10.5420  -24.3900   31.8420 C.3    82  ARG82       0.2205
     83  NE       -10.2210  -25.6080   32.5770 N.pl3  82  ARG82      -0.0865
     84  CZ        -9.0570  -25.8820   33.1660 C.cat  82  ARG82       0.5346
     85  NH1       -8.0340  -25.0360   33.1240 N.pl3  82  ARG82       0.1354
     86  NH2       -8.9040  -27.0290   33.8160 N.pl3  82  ARG82       0.1354
     87  N         -4.1360  -19.0370   19.2000 N.3   102  GLY102     -0.1210
     88  CA        -2.9350  -19.8200   19.0720 C.3   102  GLY102      0.1956
     89  C         -3.0510  -21.1010   19.8750 C.2   102  GLY102      0.2612
     90  O         -4.1240  -21.4480   20.3820 O.2   102  GLY102     -0.2717
     91  N         -1.9280  -21.8020   19.9670 N.am  103  ASP103     -0.1959
     92  CA        -1.8160  -23.0660   20.7260 C.3   103  ASP103      0.1840
     93  C         -2.1240  -22.9320   22.2310 C.2   103  ASP103      0.2623
     94  O         -2.5820  -23.8880   22.8480 O.2   103  ASP103     -0.2715
     95  CB        -0.4330  -23.7330   20.4990 C.3   103  ASP103      0.1450
     96  CG         0.7670  -22.8350   20.9120 C.2   103  ASP103      0.3671
     97  OD1        0.6450  -21.5790   20.9900 O.co2 103  ASP103     -0.2456
     98  OD2        1.8580  -23.4010   21.1270 O.co2 103  ASP103     -0.2456
     99  N         -1.8850  -21.7520   22.8110 N.am  104  GLY104     -0.1940
    100  CA        -2.3500  -21.4610   24.1770 C.3   104  GLY104      0.2014
    101  C         -3.8760  -21.4970   24.3020 C.2   104  GLY104      0.2639
    102  O         -4.4370  -22.2190   25.1500 O.2   104  GLY104     -0.2714
    103  N         -4.5400  -20.7250   23.4410 N.am  105  SER105     -0.1949
    104  CA        -6.0080  -20.6720   23.3890 C.3   105  SER105      0.1924
    105  C         -6.6720  -22.0140   23.0780 C.2   105  SER105      0.2314
    106  O         -7.7760  -22.2710   23.5180 O.2   105  SER105     -0.2863
    107  CB        -6.4440  -19.6430   22.3670 C.3   105  SER105      0.2116
    108  OG        -5.8210  -18.4020   22.6440 O.3   105  SER105     -0.2180
    109  N         -5.4130  -24.9100   24.1420 N.3   107  ARG107     -0.1231
    110  CA        -5.3680  -25.6570   25.4020 C.3   107  ARG107      0.1694
    111  C         -6.5930  -25.4080   26.2550 C.2   107  ARG107      0.2592
    112  O         -7.1660  -26.3600   26.7840 O.2   107  ARG107     -0.2718
    113  CB        -4.0930  -25.3590   26.1890 C.3   107  ARG107      0.0321
    114  CG        -2.8850  -26.0120   25.5440 C.3   107  ARG107      0.0489
    115  CD        -1.6400  -25.8550   26.3820 C.3   107  ARG107      0.2205
    116  NE        -0.5190  -26.6290   25.8450 N.pl3 107  ARG107     -0.0865
    117  CZ        -0.4020  -27.9660   25.8740 C.cat 107  ARG107      0.5346
    118  NH1       -1.3470  -28.7710   26.3930 N.pl3 107  ARG107      0.1354
    119  NH2        0.6910  -28.5100   25.3510 N.pl3 107  ARG107      0.1354
    120  N         -6.9880  -24.1400   26.3550 N.am  108  GLY108     -0.1957
    121  CA        -8.2410  -23.7630   26.9820 C.3   108  GLY108      0.1869
    122  C         -9.4530  -24.4700   26.3970 C.2   108  GLY108      0.2309
    123  O        -10.3550  -24.8630   27.1220 O.2   108  GLY108     -0.2863
    124  N         -9.4290  -28.2360   27.3140 N.3   111  ARG111     -0.1245
    125  CA        -9.9530  -28.3830   28.6750 C.3   111  ARG111      0.1563
    126  C        -11.4550  -28.4720   28.7290 C.2   111  ARG111      0.2260
    127  O        -12.0050  -29.3570   29.3770 O.2   111  ARG111     -0.2867
    128  CB        -9.5380  -27.2050   29.5280 C.3   111  ARG111      0.0307
    129  CG        -8.0790  -27.2490   29.9110 C.3   111  ARG111      0.0489
    130  CD        -7.7720  -28.3550   30.9050 C.3   111  ARG111      0.2205
    131  NE        -6.7660  -29.2600   30.3660 N.pl3 111  ARG111     -0.0865
    132  CZ        -5.4840  -28.9480   30.1410 C.cat 111  ARG111      0.5346
    133  NH1       -5.0020  -27.7230   30.4020 N.pl3 111  ARG111      0.1354
    134  NH2       -4.6650  -29.8720   29.6430 N.pl3 111  ARG111      0.1354
    135  N         -3.1560  -17.0830   14.3730 N.3   127  THR127     -0.1203
    136  CA        -1.9030  -16.5890   14.9350 C.3   127  THR127      0.1994
    137  C         -0.8700  -16.3640   13.8290 C.2   127  THR127      0.2618
    138  O         -0.9460  -16.9500   12.7330 O.2   127  THR127     -0.2717
    139  CB        -1.3160  -17.5420   16.0050 C.3   127  THR127      0.1784
    140  OG1        0.0270  -17.1410   16.3290 O.3   127  THR127     -0.2211
    141  CG2       -1.3170  -19.0040   15.5230 C.3   127  THR127      0.0376
    142  N          0.1060  -15.5310   14.1660 N.am  128  ILE128     -0.1965
    143  CA         1.1780  -15.1330   13.2490 C.3   128  ILE128      0.1727
    144  C          2.2980  -16.1690   13.2140 C.2   128  ILE128      0.2616
    145  O          2.9980  -16.2780   12.2180 O.2   128  ILE128     -0.2715
    146  CB         1.6400  -13.6750   13.5910 C.3   128  ILE128      0.0290
    147  CG1        0.8880  -12.6850   12.6910 C.3   128  ILE128      0.0022
    148  CG2        3.1460  -13.4410   13.4700 C.3   128  ILE128      0.0023
    149  CD1        0.4090  -11.4570   13.4060 C.3   128  ILE128      0.0001
    150  N          2.3970  -16.9620   14.2730 N.am  129  ASP129     -0.1971
    151  CA         3.5590  -17.8160   14.5600 C.3   129  ASP129      0.1709
    152  C          3.9800  -18.7880   13.4920 C.2   129  ASP129      0.2293
    153  O          5.1810  -18.9610   13.2410 O.2   129  ASP129     -0.2864
    154  CB         3.2970  -18.6440   15.8230 C.3   129  ASP129      0.1436
    155  CG         4.0810  -18.1540   16.9880 C.2   129  ASP129      0.3671
    156  OD1        5.2760  -18.5170   17.0790 O.co2 129  ASP129     -0.2456
    157  OD2        3.5230  -17.3760   17.7930 O.co2 129  ASP129     -0.2456
    158  N          3.3540  -21.6950   14.3260 N.3   131  ASP131     -0.1239
    159  CA         3.8910  -22.5230   15.3890 C.3   131  ASP131      0.1674
    160  C          2.9740  -23.7200   15.6110 C.2   131  ASP131      0.2266
    161  O          3.3410  -24.6390   16.3410 O.2   131  ASP131     -0.2867
    162  CB         4.0500  -21.6620   16.6640 C.3   131  ASP131      0.1410
    163  CG         2.8500  -20.7850   16.9650 C.2   131  ASP131      0.3668
    164  OD1        2.0140  -20.5880   16.0590 O.co2 131  ASP131     -0.2456
    165  OD2        2.6640  -20.2510   18.0780 O.co2 131  ASP131     -0.2456
    166  N          7.5310  -16.5080   17.7480 N.3   173  ARG173     -0.1245
    167  CA         7.6360  -16.6070   19.1750 C.3   173  ARG173      0.1563
    168  C          8.7910  -17.5450   19.4260 C.2   173  ARG173      0.2260
    169  O          9.8390  -17.1190   19.8820 O.2   173  ARG173     -0.2867
    170  CB         6.2940  -17.1020   19.6710 C.3   173  ARG173      0.0307
    171  CG         5.9400  -16.7650   21.0970 C.3   173  ARG173      0.0489
    172  CD         5.0940  -17.9110   21.6520 C.3   173  ARG173      0.2205
    173  NE         3.7220  -17.5210   21.9510 N.pl3 173  ARG173     -0.0865
    174  CZ         3.3350  -16.9550   23.0930 C.cat 173  ARG173      0.5346
    175  NH1        4.2180  -16.6940   24.0640 N.pl3 173  ARG173      0.1354
    176  NH2        2.0560  -16.6440   23.2760 N.pl3 173  ARG173      0.1354
    177  N          1.1290   -7.3780   13.6730 N.3   254  ARG254     -0.1245
    178  CA        -0.1400   -7.9590   14.0730 C.3   254  ARG254      0.1563
    179  C         -1.3160   -7.2700   13.4060 C.2   254  ARG254      0.2260
    180  O         -2.3920   -7.8520   13.2890 O.2   254  ARG254     -0.2867
    181  CB        -0.2630   -7.8590   15.5960 C.3   254  ARG254      0.0307
    182  CG         0.9340   -8.4700   16.3260 C.3   254  ARG254      0.0489
    183  CD         0.6610   -9.9050   16.7480 C.3   254  ARG254      0.2205
    184  NE        -0.1710   -9.8590   17.9450 N.pl3 254  ARG254     -0.0865
    185  CZ         0.2680   -9.6400   19.1930 C.cat 254  ARG254      0.5346
    186  NH1        1.5580   -9.4890   19.4640 N.pl3 254  ARG254      0.1354
    187  NH2       -0.5990   -9.5800   20.1990 N.pl3 254  ARG254      0.1354
@<TRIPOS>BOND
     1   145   144    2
     2   147   149    1
     3   147   146    1
     4   138   137    2
     5   144   143    1
     6   144   150   am
     7   153   152    2
     8   143   146    1
     9   143   142    1
    10   180   179    2
    11   179   178    1
    12   148   146    1
    13   152   151    1
    14   177   178    1
    15   137   142   am
    16   137   136    1
    17   178   181    1
    18   150   151    1
    19   158   159    1
    20   135   136    1
    21   151   154    1
    22   136   139    1
    23   159   160    1
    24   159   162    1
    25   141   139    1
    26   181   182    1
    27   160   161    2
    28   154   155    1
    29   139   140    1
    30   164   163   ar
    31   182   183    1
    32   162   163    1
    33   183   184    1
    34   163   165   ar
    35   155   156   ar
    36   155   157   ar
    37   166   167    1
    38   184   185    2
    39    14    13    2
    40    13    12    1
    41    88    87    1
    42    88    89    1
    43   167   168    1
    44   167   170    1
    45   185   186    1
    46   185   187    1
    47   168   169    2
    48   170   171    1
    49    89    91   am
    50    89    90    2
    51    91    92    1
    52    12    11    1
    53    95    92    1
    54    95    96    1
    55     4     3    2
    56    92    93    1
    57     1     2    1
    58    96    97   ar
    59    96    98   ar
    60    11     9   am
    61   171   172    1
    62    10     9    2
    63     9     8    1
    64   172   173    1
    65     3     2    1
    66     3     7   am
    67   173   174    2
    68     2     5    1
    69    93    99   am
    70    93    94    2
    71   107   108    1
    72   107   104    1
    73     8     7    1
    74    99   100    1
    75     5     6    1
    76   105   104    1
    77   105   106    2
    78   174   176    1
    79   174   175    1
    80   104   103    1
    81   103   101   am
    82   109   110    1
    83   100   101    1
    84   101   102    2
    85    26    25    1
    86    27    28    1
    87   119   117    1
    88   110   113    1
    89   110   111    1
    90    25    24   ar
    91    25    23   ar
    92   114   113    1
    93   114   115    1
    94    24    22   ar
    95   116   117    2
    96   116   115    1
    97   117   118    1
    98    30    29    2
    99    23    21   ar
   100    28    29    1
   101    28    31    1
   102   111   120   am
   103   111   112    2
   104   120   121    1
   105    41    40    1
   106   122   121    1
   107   122   123    2
   108    29    32   am
   109    15    16    1
   110    22    20   ar
   111    21    20   ar
   112    20    19    1
   113   124   125    1
   114    32    33    1
   115    40    42    1
   116    40    39    2
   117    37    38    1
   118    37    36    1
   119    16    19    1
   120    16    17    1
   121    38    39    1
   122    33    36    1
   123    33    34    1
   124   125   126    1
   125   125   128    1
   126   126   127    2
   127    17    18    2
   128    65    66   ar
   129    65    63   ar
   130   128   129    1
   131    34    43   am
   132    34    35    2
   133   134   132    1
   134    66    64   ar
   135    63    61   ar
   136    43    44    1
   137   129   130    1
   138   132   131    2
   139   132   133    1
   140   131   130    1
   141    47    44    1
   142    47    48    1
   143    64    62   ar
   144    61    62   ar
   145    61    60    1
   146    44    45    1
   147    60    57    1
   148    75    74    1
   149    46    45    2
   150    74    73    1
   151    45    49   am
   152    82    83    1
   153    82    81    1
   154    55    49    1
   155    55    54    1
   156    49    50    1
   157    59    58    2
   158    83    84    2
   159    73    72    1
   160    72    71    1
   161    57    58    1
   162    57    56    1
   163    81    80    1
   164    58    67   am
   165    50    53    1
   166    50    51    1
   167    85    84    1
   168    84    86    1
   169    54    53    1
   170    79    78    2
   171    67    68    1
   172    80    77    1
   173    68    71    1
   174    68    69    1
   175    51    52    2
   176    77    78    1
   177    77    76    1
   178    69    70    2
