@<TRIPOS>MOLECULE
tmp/5xz8A00.pdb
 99 93 0 0 0
SMALL
GASTEIGER

@<TRIPOS>ATOM
      1  N         21.7590  105.6830  133.7450 N.3    11  GLY11      -0.1210
      2  CA        22.2450  106.4110  132.5480 C.3    11  GLY11       0.1956
      3  C         23.7660  106.4070  132.5170 C.2    11  GLY11       0.2611
      4  O         24.4380  106.7080  133.5420 O.2    11  GLY11      -0.2717
      5  N         24.3260  106.0070  131.3800 N.am   12  ASP12      -0.1973
      6  CA        25.7890  106.0320  131.2200 C.3    12  ASP12       0.1709
      7  C         26.3640  107.4190  131.3700 C.2    12  ASP12       0.2293
      8  O         25.6670  108.4270  131.2520 O.2    12  ASP12      -0.2864
      9  CB        26.2220  105.3920  129.8890 C.3    12  ASP12       0.1436
     10  CG        25.8990  106.2260  128.6560 C.2    12  ASP12       0.3671
     11  OD1       24.8970  106.9870  128.6090 O.co2  12  ASP12      -0.2456
     12  OD2       26.6790  106.1130  127.6720 O.co2  12  ASP12      -0.2456
     13  N         17.8200   99.0080  131.9250 N.3    72  ARG72      -0.1245
     14  CA        16.9330   99.1120  133.0560 C.3    72  ARG72       0.1563
     15  C         16.4080   97.7290  133.3500 C.2    72  ARG72       0.2260
     16  O         16.2360   96.9040  132.4520 O.2    72  ARG72      -0.2867
     17  CB        15.7800  100.0670  132.7630 C.3    72  ARG72       0.0307
     18  CG        16.1730  101.5260  132.9400 C.3    72  ARG72       0.0489
     19  CD        15.1570  102.4660  132.3250 C.3    72  ARG72       0.2205
     20  NE        15.7590  103.7730  132.0530 N.pl3  72  ARG72      -0.0865
     21  CZ        15.5060  104.5480  130.9880 C.cat  72  ARG72       0.5346
     22  NH1       14.6410  104.1790  130.0460 N.pl3  72  ARG72       0.1354
     23  NH2       16.1390  105.7070  130.8600 N.pl3  72  ARG72       0.1354
     24  N         27.1220  109.4190  137.0420 N.3   127  THR127     -0.1203
     25  CA        26.0340  110.1290  136.3540 C.3   127  THR127      0.1994
     26  C         26.5870  111.4880  135.9700 C.2   127  THR127      0.2618
     27  O         27.4130  112.0190  136.6700 O.2   127  THR127     -0.2717
     28  CB        24.7520  110.3000  137.2530 C.3   127  THR127      0.1784
     29  OG1       23.7910  111.1090  136.5820 O.3   127  THR127     -0.2211
     30  CG2       25.0490  110.9940  138.5130 C.3   127  THR127      0.0376
     31  N         26.1190  112.0400  134.8530 N.am  128  ILE128     -0.1965
     32  CA        26.4090  113.3950  134.5120 C.3   128  ILE128      0.1727
     33  C         25.6550  114.4320  135.3930 C.2   128  ILE128      0.2616
     34  O         26.0450  115.5780  135.4280 O.2   128  ILE128     -0.2715
     35  CB        26.1110  113.6810  133.0260 C.3   128  ILE128      0.0290
     36  CG1       24.6100  113.6200  132.7290 C.3   128  ILE128      0.0022
     37  CG2       26.9020  112.7560  132.0790 C.3   128  ILE128      0.0023
     38  CD1       24.2260  114.2860  131.4440 C.3   128  ILE128      0.0001
     39  N         24.5650  114.0280  136.0400 N.am  129  ASP129     -0.1971
     40  CA        23.6380  114.9660  136.7100 C.3   129  ASP129      0.1709
     41  C         24.1160  115.5490  138.0310 C.2   129  ASP129      0.2293
     42  O         23.5540  116.5650  138.5260 O.2   129  ASP129     -0.2864
     43  CB        22.2700  114.2770  136.9790 C.3   129  ASP129      0.1436
     44  CG        21.5730  113.9530  135.7510 C.2   129  ASP129      0.3671
     45  OD1       21.8870  114.5640  134.6940 O.co2 129  ASP129     -0.2456
     46  OD2       20.7260  113.0410  135.8060 O.co2 129  ASP129     -0.2456
     47  N         20.6130  119.1520  130.5010 N.3   171  MET171     -0.1230
     48  CA        20.1870  118.0130  131.2740 C.3   171  MET171      0.1702
     49  C         20.4540  118.2790  132.7740 C.2   171  MET171      0.2593
     50  O         20.8640  119.3900  133.1730 O.2   171  MET171     -0.2718
     51  CB        20.8580  116.7470  130.7600 C.3   171  MET171      0.0401
     52  CG        20.1530  116.0670  129.6120 C.3   171  MET171      0.0596
     53  SD        21.0730  114.5870  129.1390 S.3   171  MET171     -0.1393
     54  CE        19.9200  113.7160  128.1410 C.3   171  MET171      0.0692
     55  N         20.2680  117.2460  133.5940 N.am  172  GLY172     -0.1942
     56  CA        20.3480  117.3410  135.0300 C.3   172  GLY172      0.2014
     57  C         19.3190  116.5720  135.8380 C.2   172  GLY172      0.2638
     58  O         19.4540  116.4460  137.0730 O.2   172  GLY172     -0.2714
     59  N         18.3490  115.9690  135.1720 N.am  173  ARG173     -0.1977
     60  CA        17.1670  115.4250  135.8280 C.3   173  ARG173      0.1597
     61  C         16.6940  116.5210  136.8350 C.2   173  ARG173      0.2287
     62  O         16.3960  117.6170  136.4000 O.2   173  ARG173     -0.2864
     63  CB        17.4870  114.0790  136.5040 C.3   173  ARG173      0.0334
     64  CG        16.2080  113.2640  136.7570 C.3   173  ARG173      0.0492
     65  CD        16.4970  111.9480  137.4350 C.3   173  ARG173      0.2205
     66  NE        17.3410  111.1040  136.5690 N.pl3 173  ARG173     -0.0865
     67  CZ        16.8790  110.3660  135.5690 C.cat 173  ARG173      0.5346
     68  NH1       15.5770  110.3550  135.3100 N.pl3 173  ARG173      0.1354
     69  NH2       17.7280  109.6500  134.8060 N.pl3 173  ARG173      0.1354
     70  N         16.4380  121.2030  132.8080 N.3   224  GLU224     -0.1245
     71  CA        15.2400  120.4480  132.4200 C.3   224  GLU224      0.1567
     72  C         14.4030  120.0780  133.6540 C.2   224  GLU224      0.2260
     73  O         13.1940  119.9530  133.5670 O.2   224  GLU224     -0.2867
     74  CB        15.5850  119.1740  131.6290 C.3   224  GLU224      0.0388
     75  CG        16.4170  118.1940  132.4330 C.3   224  GLU224      0.1160
     76  CD        16.6840  116.8970  131.7460 C.2   224  GLU224      0.3649
     77  OE1       16.3360  116.7580  130.5530 O.co2 224  GLU224     -0.2457
     78  OE2       17.2960  116.0400  132.4230 O.co2 224  GLU224     -0.2457
     79  N         21.0620  114.3840  124.3230 N.3   251  HIS251     -0.1241
     80  CA        21.9780  113.2740  124.6800 C.3   251  HIS251      0.1621
     81  C         23.4600  113.3990  124.3600 C.2   251  HIS251      0.2264
     82  O         24.2410  112.5990  124.8180 O.2   251  HIS251     -0.2867
     83  CB        21.4320  111.9490  124.2040 C.3   251  HIS251      0.0745
     84  CG        20.2080  111.5470  124.9460 C.ar  251  HIS251      0.0817
     85  ND1       18.9680  112.0910  124.6910 N.ar  251  HIS251     -0.2268
     86  CD2       20.0350  110.6780  125.9580 C.ar  251  HIS251      0.1154
     87  CE1       18.0890  111.5920  125.5490 C.ar  251  HIS251      0.1986
     88  NE2       18.7110  110.7280  126.3190 N.ar  251  HIS251     -0.2212
     89  N         25.6260  113.2500  127.3620 N.3   254  ARG254     -0.1245
     90  CA        25.9950  111.9830  127.9600 C.3   254  ARG254      0.1563
     91  C         27.2380  111.3580  127.3430 C.2   254  ARG254      0.2260
     92  O         27.8480  110.4720  127.9390 O.2   254  ARG254     -0.2867
     93  CB        24.8310  111.0020  127.8420 C.3   254  ARG254      0.0307
     94  CG        23.5520  111.4330  128.5510 C.3   254  ARG254      0.0489
     95  CD        23.5130  110.8470  129.9620 C.3   254  ARG254      0.2205
     96  NE        23.3100  109.4250  129.8350 N.pl3 254  ARG254     -0.0865
     97  CZ        22.1560  108.8500  129.5500 C.cat 254  ARG254      0.5346
     98  NH1       21.0650  109.5750  129.5490 N.pl3 254  ARG254      0.1354
     99  NH2       22.1130  107.5480  129.2960 N.pl3 254  ARG254      0.1354
@<TRIPOS>BOND
     1    83    80    1
     2    83    84    1
     3    79    80    1
     4    81    80    1
     5    81    82    2
     6    85    84   ar
     7    85    87   ar
     8    84    86   ar
     9    87    88   ar
    10    86    88   ar
    11    91    92    2
    12    91    90    1
    13    89    90    1
    14    12    10   ar
    15    93    90    1
    16    93    94    1
    17    54    53    1
    18    94    95    1
    19    11    10   ar
    20    10     9    1
    21    53    52    1
    22    99    97    1
    23    98    97    1
    24    97    96    2
    25    52    51    1
    26    96    95    1
    27     9     6    1
    28    22    21    1
    29    47    48    1
    30    77    76   ar
    31    51    48    1
    32    23    21    1
    33    21    20    2
    34     6     7    1
    35     6     5    1
    36     8     7    2
    37    48    49    1
    38     5     3   am
    39    38    36    1
    40    74    71    1
    41    74    75    1
    42    76    78   ar
    43    76    75    1
    44    13    14    1
    45    20    19    1
    46    37    35    1
    47    19    18    1
    48    71    70    1
    49    71    72    1
    50    16    15    2
    51     3     2    1
    52     3     4    2
    53     2     1    1
    54    36    35    1
    55    17    18    1
    56    17    14    1
    57    49    50    2
    58    49    55   am
    59    35    32    1
    60    14    15    1
    61    73    72    2
    62    55    56    1
    63    32    31    1
    64    32    33    1
    65    45    44   ar
    66    69    67    1
    67    31    26   am
    68    56    57    1
    69    59    60    1
    70    59    57   am
    71    68    67    1
    72    33    34    2
    73    33    39   am
    74    67    66    2
    75    44    46   ar
    76    44    43    1
    77    60    63    1
    78    60    61    1
    79    57    58    2
    80    26    25    1
    81    26    27    2
    82    39    40    1
    83    25    24    1
    84    25    28    1
    85    62    61    2
    86    63    64    1
    87    66    65    1
    88    29    28    1
    89    40    43    1
    90    40    41    1
    91    64    65    1
    92    28    30    1
    93    41    42    2
