@<TRIPOS>MOLECULE
tmp/5xz9A00.pdb
 172 163 0 0 0
SMALL
GASTEIGER

@<TRIPOS>ATOM
      1  N         12.5600  -15.7570   19.0570 N.3     9  SER9       -0.1202
      2  CA        14.0010  -15.7580   18.9350 C.3     9  SER9        0.2020
      3  C         14.5130  -15.7290   17.4590 C.2     9  SER9        0.2619
      4  O         13.8920  -16.2400   16.5500 O.2     9  SER9       -0.2717
      5  CB        14.5410  -16.9390   19.7440 C.3     9  SER9        0.2103
      6  OG        15.9400  -16.9610   19.7410 O.3     9  SER9       -0.2182
      7  N         15.6090  -15.0290   17.2630 N.am   10  GLY10      -0.1942
      8  CA        16.2310  -14.7760   15.9970 C.3    10  GLY10       0.2014
      9  C         15.7190  -13.5060   15.3930 C.2    10  GLY10       0.2639
     10  O         15.1090  -12.6970   16.0630 O.2    10  GLY10      -0.2714
     11  N         15.9450  -13.3220   14.1050 N.am   11  GLY11      -0.1954
     12  CA        15.5390  -12.0960   13.4600 C.3    11  GLY11       0.1869
     13  C         14.0150  -12.0380   13.3810 C.2    11  GLY11       0.2309
     14  O         13.3300  -13.0780   13.3550 O.2    11  GLY11      -0.2863
     15  N         15.9490  -15.8880   24.3220 N.3    41  TYR41      -0.1241
     16  CA        16.6130  -16.6760   25.3130 C.3    41  TYR41       0.1605
     17  C         17.2900  -15.8220   26.4360 C.2    41  TYR41       0.2264
     18  O         17.4220  -16.3300   27.5570 O.2    41  TYR41      -0.2867
     19  CB        17.5720  -17.6340   24.6520 C.3    41  TYR41       0.0534
     20  CG        16.8620  -18.7730   23.9350 C.ar   41  TYR41      -0.0201
     21  CD1       16.1180  -19.6950   24.6470 C.ar   41  TYR41      -0.0009
     22  CD2       16.9590  -18.9290   22.5350 C.ar   41  TYR41      -0.0009
     23  CE1       15.4840  -20.7750   24.0110 C.ar   41  TYR41       0.0417
     24  CE2       16.3370  -19.9920   21.8620 C.ar   41  TYR41       0.0417
     25  CZ        15.6120  -20.9240   22.5920 C.ar   41  TYR41       0.1957
     26  OH        15.0380  -22.0190   21.9650 O.3    41  TYR41      -0.2866
     27  N         16.3810  -11.2010   21.3640 N.3    71  ALA71      -0.1231
     28  CA        17.8100  -10.8630   21.4720 C.3    71  ALA71       0.1694
     29  C         18.6720  -12.0590   21.1100 C.2    71  ALA71       0.2592
     30  O         18.1910  -13.1860   21.0690 O.2    71  ALA71      -0.2718
     31  CB        18.1450  -10.3600   22.8700 C.3    71  ALA71       0.0304
     32  N         19.9290  -11.7900   20.7840 N.am   72  ARG72      -0.1966
     33  CA        20.9090  -12.8310   20.5650 C.3    72  ARG72       0.1729
     34  C         21.4150  -13.2320   21.9290 C.2    72  ARG72       0.2616
     35  O         21.5710  -12.4180   22.8130 O.2    72  ARG72      -0.2715
     36  CB        22.0620  -12.3540   19.6720 C.3    72  ARG72       0.0348
     37  CG        21.6450  -12.1030   18.2250 C.3    72  ARG72       0.0492
     38  CD        22.8200  -11.8710   17.2760 C.3    72  ARG72       0.2205
     39  NE        22.0820  -11.7180   16.0330 N.pl3  72  ARG72      -0.0865
     40  CZ        22.6250  -12.0090   14.8470 C.cat  72  ARG72       0.5346
     41  NH1       23.8460  -12.5400   14.7400 N.pl3  72  ARG72       0.1354
     42  NH2       21.9170  -11.7670   13.7420 N.pl3  72  ARG72       0.1354
     43  N         21.6280  -14.5170   22.0800 N.am   73  CYS73      -0.1954
     44  CA        22.0500  -15.1180   23.3060 C.3    73  CYS73       0.1828
     45  C         23.0140  -16.2460   22.9300 C.2    73  CYS73       0.2467
     46  O         22.7050  -17.4350   23.1020 O.2    73  CYS73      -0.2730
     47  CB        20.8330  -15.6340   24.1170 C.3    73  CYS73       0.0996
     48  SG        21.2880  -16.1300   25.7750 S.3    73  CYS73      -0.0797
     49  N         24.2150  -15.8720   22.4430 N.am   74  PRO74      -0.2726
     50  CA        25.2680  -16.8570   22.2170 C.3    74  PRO74       0.1402
     51  C         25.6190  -17.7340   23.4030 C.2    74  PRO74       0.2269
     52  O         25.9760  -18.9070   23.2170 O.2    74  PRO74      -0.2865
     53  CB        26.4850  -15.9920   21.8070 C.3    74  PRO74       0.0296
     54  CG        26.1870  -14.6390   22.3420 C.3    74  PRO74       0.0237
     55  CD        24.6940  -14.5080   22.1180 C.3    74  PRO74       0.0939
     56  N         23.7870  -19.1480   25.3180 N.3    76  PHE76      -0.1227
     57  CA        22.8450  -20.2770   25.4840 C.3    76  PHE76       0.1736
     58  C         23.3590  -21.6110   24.8800 C.2    76  PHE76       0.2595
     59  O         22.8160  -22.6830   25.1570 O.2    76  PHE76      -0.2718
     60  CB        21.5010  -19.9360   24.8630 C.3    76  PHE76       0.0547
     61  CG        20.3350  -20.5970   25.5370 C.ar   76  PHE76      -0.0202
     62  CD1       19.8790  -20.1130   26.7700 C.ar   76  PHE76      -0.0042
     63  CD2       19.6540  -21.6330   24.9250 C.ar   76  PHE76      -0.0042
     64  CE1       18.8110  -20.6850   27.3930 C.ar   76  PHE76      -0.0003
     65  CE2       18.5660  -22.2070   25.5520 C.ar   76  PHE76      -0.0003
     66  CZ        18.1540  -21.7270   26.7900 C.ar   76  PHE76      -0.0000
     67  N         24.4400  -21.5280   24.0950 N.am   77  LYS77      -0.1980
     68  CA        25.1930  -22.7320   23.6530 C.3    77  LYS77       0.1596
     69  C         25.8920  -23.4190   24.7970 C.2    77  LYS77       0.2287
     70  O         26.2560  -24.5750   24.6450 O.2    77  LYS77      -0.2864
     71  CB        26.2600  -22.3860   22.6040 C.3    77  LYS77       0.0298
     72  CG        25.7900  -21.4130   21.5310 C.3    77  LYS77       0.0038
     73  CD        25.4540  -22.0140   20.1920 C.3    77  LYS77       0.0206
     74  CE        26.5500  -21.7650   19.2030 C.3    77  LYS77       0.1093
     75  NZ        26.0810  -21.2180   17.9060 N.3    77  LYS77      -0.1314
     76  N         22.3370  -22.7460   30.4380 N.3    82  ARG82      -0.1245
     77  CA        20.9780  -23.2710   30.2930 C.3    82  ARG82       0.1563
     78  C         20.3690  -23.7190   31.6050 C.2    82  ARG82       0.2260
     79  O         19.1490  -23.5990   31.7860 O.2    82  ARG82      -0.2867
     80  CB        20.9170  -24.3650   29.2310 C.3    82  ARG82       0.0307
     81  CG        21.2340  -23.8220   27.8350 C.3    82  ARG82       0.0489
     82  CD        20.8760  -24.8420   26.7700 C.3    82  ARG82       0.2205
     83  NE        21.7180  -26.0420   26.8840 N.pl3  82  ARG82      -0.0865
     84  CZ        22.8790  -26.2180   26.2330 C.cat  82  ARG82       0.5346
     85  NH1       23.3820  -25.2830   25.3990 N.pl3  82  ARG82       0.1354
     86  NH2       23.5380  -27.3390   26.4120 N.pl3  82  ARG82       0.1354
     87  N         13.7670  -19.3090   13.9980 N.3   102  GLY102     -0.1210
     88  CA        14.4350  -20.1830   13.0110 C.3   102  GLY102      0.1956
     89  C         15.0470  -21.4640   13.5690 C.2   102  GLY102      0.2612
     90  O         14.9140  -21.7620   14.7650 O.2   102  GLY102     -0.2717
     91  N         15.7300  -22.2460   12.7240 N.am  103  ASP103     -0.1959
     92  CA        16.3950  -23.5110   13.2310 C.3   103  ASP103      0.1840
     93  C         17.4240  -23.3240   14.3390 C.2   103  ASP103      0.2623
     94  O         17.5880  -24.2220   15.1660 O.2   103  ASP103     -0.2715
     95  CB        17.0730  -24.4470   12.1920 C.3   103  ASP103      0.1450
     96  CG        17.2570  -23.8550   10.8880 C.2   103  ASP103      0.3671
     97  OD1       16.5020  -24.2660    9.9720 O.co2 103  ASP103     -0.2456
     98  OD2       18.1720  -23.0240   10.7650 O.co2 103  ASP103     -0.2456
     99  N         18.1290  -22.1990   14.3300 N.am  104  GLY104     -0.1940
    100  CA        18.9630  -21.8250   15.4740 C.3   104  GLY104      0.2014
    101  C         18.1490  -21.8440   16.7530 C.2   104  GLY104      0.2639
    102  O         18.5220  -22.4940   17.7740 O.2   104  GLY104     -0.2714
    103  N         17.0090  -21.1410   16.7010 N.am  105  SER105     -0.1949
    104  CA        16.1260  -21.0800   17.8680 C.3   105  SER105      0.1924
    105  C         15.7150  -22.4670   18.3360 C.2   105  SER105      0.2314
    106  O         15.4920  -22.6630   19.5080 O.2   105  SER105     -0.2863
    107  CB        14.8540  -20.2590   17.5320 C.3   105  SER105      0.2116
    108  OG        15.2350  -18.9200   17.2970 O.3   105  SER105     -0.2180
    109  N         17.4100  -25.2310   18.2830 N.3   107  ARG107     -0.1231
    110  CA        18.4990  -25.9170   18.9670 C.3   107  ARG107      0.1694
    111  C         18.4230  -25.7190   20.4390 C.2   107  ARG107      0.2592
    112  O         18.5430  -26.6630   21.1800 O.2   107  ARG107     -0.2718
    113  CB        19.8780  -25.4240   18.4730 C.3   107  ARG107      0.0321
    114  CG        20.2020  -25.7750   17.0300 C.3   107  ARG107      0.0489
    115  CD        20.5760  -27.2550   16.8890 C.3   107  ARG107      0.2205
    116  NE        21.1590  -27.5510   15.5650 N.pl3 107  ARG107     -0.0865
    117  CZ        21.4500  -28.7740   15.1070 C.cat 107  ARG107      0.5346
    118  NH1       21.2140  -29.8680   15.8350 N.pl3 107  ARG107      0.1354
    119  NH2       21.9570  -28.9080   13.8950 N.pl3 107  ARG107      0.1354
    120  N         18.2380  -24.4710   20.8510 N.am  108  GLY108     -0.1957
    121  CA        17.9490  -24.1380   22.2210 C.3   108  GLY108      0.1869
    122  C         16.8080  -24.9440   22.8320 C.2   108  GLY108      0.2309
    123  O         16.9310  -25.4130   23.9700 O.2   108  GLY108     -0.2863
    124  N         17.8860  -28.6610   23.2740 N.3   111  ARG111     -0.1245
    125  CA        18.6810  -28.7550   24.5150 C.3   111  ARG111      0.1563
    126  C         17.8210  -28.7100   25.7890 C.2   111  ARG111      0.2260
    127  O         18.0180  -29.5240   26.7260 O.2   111  ARG111     -0.2867
    128  CB        19.7370  -27.6360   24.5980 C.3   111  ARG111      0.0307
    129  CG        20.7330  -27.5530   23.4630 C.3   111  ARG111      0.0489
    130  CD        21.6860  -28.7220   23.3940 C.3   111  ARG111      0.2205
    131  NE        22.1600  -28.7830   22.0150 N.pl3 111  ARG111     -0.0865
    132  CZ        21.9080  -29.7470   21.1260 C.cat 111  ARG111      0.5346
    133  NH1       21.2030  -30.8410   21.4300 N.pl3 111  ARG111      0.1354
    134  NH2       22.4060  -29.6190   19.9010 N.pl3 111  ARG111      0.1354
    135  N          9.1650  -19.2880   12.6300 N.3   126  GLY126     -0.1210
    136  CA         9.0900  -17.8460   12.3080 C.3   126  GLY126      0.1956
    137  C         10.3690  -17.3290   11.7020 C.2   126  GLY126      0.2612
    138  O         11.3180  -17.0000   12.4100 O.2   126  GLY126     -0.2717
    139  N         10.4010  -17.2430   10.3860 N.am  127  THR127     -0.1952
    140  CA        11.5850  -16.7260    9.6930 C.3   127  THR127      0.1897
    141  C         11.1970  -16.5710    8.2000 C.2   127  THR127      0.2313
    142  O         10.3100  -17.2920    7.6700 O.2   127  THR127     -0.2863
    143  CB        12.7750  -17.6900    9.7810 C.3   127  THR127      0.1794
    144  OG1       13.8020  -17.2210    8.9130 O.3   127  THR127     -0.2208
    145  CG2       12.3720  -19.0990    9.3610 C.3   127  THR127      0.0378
    146  N         13.0880  -16.8940    5.5450 N.3   129  ASP129     -0.1239
    147  CA        14.0120  -17.6710    4.7080 C.3   129  ASP129      0.1674
    148  C         13.4680  -18.9300    4.1070 C.2   129  ASP129      0.2266
    149  O         14.0120  -19.3680    3.0870 O.2   129  ASP129     -0.2867
    150  CB        15.2340  -18.1620    5.5360 C.3   129  ASP129      0.1410
    151  CG        16.0050  -17.0360    6.1510 C.2   129  ASP129      0.3668
    152  OD1       15.9060  -15.8970    5.5990 O.co2 129  ASP129     -0.2456
    153  OD2       16.6470  -17.2700    7.2170 O.co2 129  ASP129     -0.2456
    154  N         13.6400  -22.0700    5.1360 N.3   131  ASP131     -0.1239
    155  CA        14.7760  -22.9900    5.1420 C.3   131  ASP131      0.1674
    156  C         14.6930  -23.9150    6.3590 C.2   131  ASP131      0.2266
    157  O         15.7090  -24.1490    7.0180 O.2   131  ASP131     -0.2867
    158  CB        16.0890  -22.2000    5.2130 C.3   131  ASP131      0.1410
    159  CG        16.2670  -21.4330    6.5880 C.2   131  ASP131      0.3668
    160  OD1       15.3840  -21.5790    7.4950 O.co2 131  ASP131     -0.2456
    161  OD2       17.2800  -20.6960    6.7580 O.co2 131  ASP131     -0.2456
    162  N         19.2470  -15.8590    3.5340 N.3   173  ARG173     -0.1245
    163  CA        20.3500  -16.5850    4.2020 C.3   173  ARG173      0.1563
    164  C         20.9260  -17.5620    3.1540 C.2   173  ARG173      0.2260
    165  O         21.2500  -17.1050    2.1080 O.2   173  ARG173     -0.2867
    166  CB        19.8750  -17.2330    5.5310 C.3   173  ARG173      0.0307
    167  CG        21.0000  -17.5460    6.5190 C.3   173  ARG173      0.0489
    168  CD        20.5850  -17.3710    7.9750 C.3   173  ARG173      0.2205
    169  NE        19.8260  -16.1270    8.1560 N.pl3 173  ARG173     -0.0865
    170  CZ        20.3370  -14.8940    8.2490 C.cat 173  ARG173      0.5346
    171  NH1       21.6460  -14.6790    8.2170 N.pl3 173  ARG173      0.1354
    172  NH2       19.5210  -13.8520    8.3860 N.pl3 173  ARG173      0.1354
@<TRIPOS>BOND
     1   165   164    2
     2   149   148    2
     3   164   163    1
     4   162   163    1
     5   148   147    1
     6   163   166    1
     7   147   150    1
     8   147   146    1
     9   154   155    1
    10   155   158    1
    11   155   156    1
    12   158   159    1
    13   166   167    1
    14   150   151    1
    15   152   151   ar
    16   151   153   ar
    17   156   157    2
    18   167   168    1
    19   159   161   ar
    20   159   160   ar
    21   142   141    2
    22   168   169    1
    23   169   170    2
    24   141   140    1
    25   171   170    1
    26   170   172    1
    27   144   143    1
    28   145   143    1
    29   140   143    1
    30   140   139    1
    31    97    96   ar
    32   139   137   am
    33    98    96   ar
    34    96    95    1
    35   137   136    1
    36   137   138    2
    37    95    92    1
    38   136   135    1
    39    91    92    1
    40    91    89   am
    41    88    89    1
    42    88    87    1
    43    92    93    1
    44    14    13    2
    45    13    12    1
    46    12    11    1
    47    89    90    2
    48    42    40    1
    49   119   117    1
    50    11     9   am
    51    99    93   am
    52    99   100    1
    53    93    94    2
    54    41    40    1
    55    40    39    2
    56   117   116    2
    57   117   118    1
    58     9     8    1
    59     9    10    2
    60   100   101    1
    61   116   115    1
    62     8     7    1
    63    39    38    1
    64     4     3    2
    65   103   101   am
    66   103   104    1
    67   101   102    2
    68   115   114    1
    69   114   113    1
    70     7     3   am
    71    38    37    1
    72   108   107    1
    73     3     2    1
    74   107   104    1
    75   104   105    1
    76    75    74    1
    77    37    36    1
    78   109   110    1
    79   105   106    2
    80   113   110    1
    81     2     1    1
    82     2     5    1
    83   110   111    1
    84    74    73    1
    85    36    33    1
    86     6     5    1
    87   134   132    1
    88    73    72    1
    89   111   120   am
    90   111   112    2
    91    33    32    1
    92    33    34    1
    93    32    29   am
    94   120   121    1
    95    30    29    2
    96    29    28    1
    97   132   133    1
    98   132   131    2
    99    27    28    1
   100    28    31    1
   101    72    71    1
   102    53    50    1
   103    53    54    1
   104    24    22   ar
   105    24    25   ar
   106    34    43   am
   107    34    35    2
   108    26    25    1
   109   131   130    1
   110    43    44    1
   111    55    54    1
   112    55    49    1
   113    50    49    1
   114    50    51    1
   115   121   122    1
   116    49    45   am
   117    22    20   ar
   118    25    23   ar
   119    71    68    1
   120   122   123    2
   121    45    46    2
   122    45    44    1
   123    52    51    2
   124   124   125    1
   125    44    47    1
   126   130   129    1
   127   129   128    1
   128    68    67    1
   129    68    69    1
   130    20    21   ar
   131    20    19    1
   132    23    21   ar
   133    67    58   am
   134    47    48    1
   135    15    16    1
   136   125   128    1
   137   125   126    1
   138    70    69    2
   139    19    16    1
   140    60    57    1
   141    60    61    1
   142    58    59    2
   143    58    57    1
   144    63    61   ar
   145    63    65   ar
   146    16    17    1
   147    56    57    1
   148    85    84    1
   149    61    62   ar
   150    65    66   ar
   151   126   127    2
   152    84    86    1
   153    84    83    2
   154    17    18    2
   155    82    83    1
   156    82    81    1
   157    62    64   ar
   158    66    64   ar
   159    81    80    1
   160    80    77    1
   161    77    76    1
   162    77    78    1
   163    78    79    2
