@<TRIPOS>MOLECULE
tmp/5xzaA00.pdb
 152 145 0 0 0
SMALL
GASTEIGER

@<TRIPOS>ATOM
      1  N        131.6140  -15.1140   19.0800 N.3     9  SER9       -0.1202
      2  CA       133.0580  -15.2250   19.0260 C.3     9  SER9        0.2020
      3  C        133.5770  -15.1300   17.5530 C.2     9  SER9        0.2619
      4  O        132.9470  -15.6150   16.6240 O.2     9  SER9       -0.2717
      5  CB       133.5230  -16.5560   19.6950 C.3     9  SER9        0.2103
      6  OG       134.9680  -16.6440   19.7280 O.3     9  SER9       -0.2182
      7  N        134.7000  -14.4610   17.3900 N.am   10  GLY10      -0.1942
      8  CA       135.2940  -14.1230   16.0950 C.3    10  GLY10       0.2014
      9  C        134.7570  -12.8660   15.4100 C.2    10  GLY10       0.2639
     10  O        134.1090  -12.0320   16.0060 O.2    10  GLY10      -0.2714
     11  N        135.0110  -12.7030   14.1510 N.am   11  GLY11      -0.1954
     12  CA       134.5920  -11.4840   13.5020 C.3    11  GLY11       0.1869
     13  C        133.0630  -11.4060   13.5040 C.2    11  GLY11       0.2309
     14  O        132.3430  -12.4570   13.5810 O.2    11  GLY11      -0.2863
     15  N        134.8820  -15.2920   24.2810 N.3    41  TYR41      -0.1241
     16  CA       135.5500  -16.0430   25.3090 C.3    41  TYR41       0.1605
     17  C        136.2710  -15.1940   26.3650 C.2    41  TYR41       0.2264
     18  O        136.4900  -15.7060   27.4820 O.2    41  TYR41      -0.2867
     19  CB       136.4850  -17.0790   24.6940 C.3    41  TYR41       0.0534
     20  CG       135.7890  -18.2210   23.9650 C.ar   41  TYR41      -0.0201
     21  CD1      135.0000  -19.1270   24.6410 C.ar   41  TYR41      -0.0009
     22  CD2      135.9440  -18.3960   22.5660 C.ar   41  TYR41      -0.0009
     23  CE1      134.3950  -20.1760   23.9800 C.ar   41  TYR41       0.0417
     24  CE2      135.3850  -19.4630   21.8950 C.ar   41  TYR41       0.0417
     25  CZ       134.5960  -20.3450   22.5790 C.ar   41  TYR41       0.1957
     26  OH       134.0270  -21.4090   21.9150 O.3    41  TYR41      -0.2866
     27  N        135.3100  -10.7770   21.0990 N.3    71  ALA71      -0.1231
     28  CA       136.7330  -10.5590   21.1230 C.3    71  ALA71       0.1694
     29  C        137.4780  -11.6660   20.3500 C.2    71  ALA71       0.2592
     30  O        136.8690  -12.6070   19.7170 O.2    71  ALA71      -0.2718
     31  CB       137.2110  -10.4530   22.5620 C.3    71  ALA71       0.0304
     32  N        138.7920  -11.4380   20.3150 N.am   72  ARG72      -0.1966
     33  CA       139.8020  -12.4330   20.0040 C.3    72  ARG72       0.1729
     34  C        140.3470  -12.7040   21.3960 C.2    72  ARG72       0.2616
     35  O        140.5990  -11.7970   22.1550 O.2    72  ARG72      -0.2715
     36  CB       140.8700  -11.9310   19.0310 C.3    72  ARG72       0.0348
     37  CG       140.3800  -11.7690   17.6010 C.3    72  ARG72       0.0492
     38  CD       141.4520  -11.3160   16.6240 C.3    72  ARG72       0.2205
     39  NE       140.9180  -11.1080   15.2810 N.pl3  72  ARG72      -0.0865
     40  CZ       141.6140  -10.6050   14.2720 C.cat  72  ARG72       0.5346
     41  NH1      142.8820  -10.2560   14.4460 N.pl3  72  ARG72       0.1354
     42  NH2      141.0460  -10.4500   13.0830 N.pl3  72  ARG72       0.1354
     43  N        140.4810  -13.9710   21.7480 N.am   73  CYS73      -0.1954
     44  CA       140.9890  -14.3630   23.0430 C.3    73  CYS73       0.1828
     45  C        141.9670  -15.5150   22.7750 C.2    73  CYS73       0.2467
     46  O        141.6410  -16.7090   22.9570 O.2    73  CYS73      -0.2730
     47  CB       139.8280  -14.8160   23.9260 C.3    73  CYS73       0.0996
     48  SG       140.2700  -15.3930   25.5510 S.3    73  CYS73      -0.0797
     49  N        143.1620  -15.1730   22.3120 N.am   74  PRO74      -0.2726
     50  CA       144.1520  -16.2260   21.9950 C.3    74  PRO74       0.1402
     51  C        144.6030  -17.0670   23.1850 C.2    74  PRO74       0.2269
     52  O        145.0260  -18.2130   23.0100 O.2    74  PRO74      -0.2865
     53  CB       145.3460  -15.4250   21.4160 C.3    74  PRO74       0.0296
     54  CG       145.1820  -14.0560   21.9640 C.3    74  PRO74       0.0237
     55  CD       143.6810  -13.8200   22.0200 C.3    74  PRO74       0.0939
     56  N        142.7740  -18.4920   25.2120 N.3    76  PHE76      -0.1227
     57  CA       141.8330  -19.6220   25.3540 C.3    76  PHE76       0.1736
     58  C        142.3070  -20.9480   24.7490 C.2    76  PHE76       0.2595
     59  O        141.7450  -22.0280   25.0290 O.2    76  PHE76      -0.2718
     60  CB       140.4470  -19.2550   24.7390 C.3    76  PHE76       0.0547
     61  CG       139.3170  -19.9510   25.3900 C.ar   76  PHE76      -0.0202
     62  CD1      138.8790  -19.5410   26.6750 C.ar   76  PHE76      -0.0042
     63  CD2      138.6550  -20.9990   24.7670 C.ar   76  PHE76      -0.0042
     64  CE1      137.8200  -20.1670   27.3080 C.ar   76  PHE76      -0.0003
     65  CE2      137.6110  -21.6450   25.4250 C.ar   76  PHE76      -0.0003
     66  CZ       137.1810  -21.2160   26.6780 C.ar   76  PHE76      -0.0000
     67  N        143.3080  -20.8710   23.8680 N.am   77  LYS77      -0.1980
     68  CA       144.0740  -22.0630   23.4510 C.3    77  LYS77       0.1596
     69  C        144.8080  -22.8000   24.5600 C.2    77  LYS77       0.2287
     70  O        145.1610  -23.9770   24.3860 O.2    77  LYS77      -0.2864
     71  CB       145.0470  -21.6980   22.3330 C.3    77  LYS77       0.0298
     72  CG       144.3260  -21.3930   21.0330 C.3    77  LYS77       0.0038
     73  CD       145.2510  -21.0560   19.8950 C.3    77  LYS77       0.0206
     74  CE       144.5570  -20.7950   18.5790 C.3    77  LYS77       0.1093
     75  NZ       145.5710  -20.6510   17.4880 N.3    77  LYS77      -0.1314
     76  N        141.3770  -22.0440   30.1990 N.3    82  ARG82      -0.1245
     77  CA       140.0080  -22.5610   30.0410 C.3    82  ARG82       0.1563
     78  C        139.4180  -23.0330   31.3860 C.2    82  ARG82       0.2260
     79  O        138.2190  -22.9690   31.6030 O.2    82  ARG82      -0.2867
     80  CB       139.9790  -23.6530   29.0130 C.3    82  ARG82       0.0307
     81  CG       140.2940  -23.1710   27.5800 C.3    82  ARG82       0.0489
     82  CD       139.8370  -24.2160   26.5610 C.3    82  ARG82       0.2205
     83  NE       140.6720  -25.3980   26.6990 N.pl3  82  ARG82      -0.0865
     84  CZ       141.8070  -25.6230   26.0370 C.cat  82  ARG82       0.5346
     85  NH1      142.2580  -24.7680   25.1160 N.pl3  82  ARG82       0.1354
     86  NH2      142.4930  -26.7270   26.2960 N.pl3  82  ARG82       0.1354
     87  N        132.8040  -18.7660   13.9620 N.3   102  GLY102     -0.1210
     88  CA       133.3900  -19.6400   12.9090 C.3   102  GLY102      0.1956
     89  C        134.1090  -20.8500   13.4840 C.2   102  GLY102      0.2612
     90  O        133.9410  -21.2010   14.6520 O.2   102  GLY102     -0.2717
     91  N        134.9660  -21.4560   12.6460 N.am  103  ASP103     -0.1959
     92  CA       135.6150  -22.7430   12.9440 C.3   103  ASP103      0.1840
     93  C        136.4930  -22.6820   14.1930 C.2   103  ASP103      0.2623
     94  O        136.5030  -23.6090   14.9700 O.2   103  ASP103     -0.2715
     95  CB       136.4510  -23.2000   11.7460 C.3   103  ASP103      0.1450
     96  CG       135.5960  -23.6250   10.5690 C.2   103  ASP103      0.3671
     97  OD1      134.3820  -23.8400   10.7610 O.co2 103  ASP103     -0.2456
     98  OD2      136.0530  -23.7700    9.4150 O.co2 103  ASP103     -0.2456
     99  N        137.1940  -21.5670   14.3540 N.am  104  GLY104     -0.1940
    100  CA       138.0120  -21.2780   15.5100 C.3   104  GLY104      0.2014
    101  C        137.2100  -21.2520   16.7910 C.2   104  GLY104      0.2639
    102  O        137.6020  -21.8360   17.7910 O.2   104  GLY104     -0.2714
    103  N        136.0630  -20.5810   16.7520 N.am  105  SER105     -0.1949
    104  CA       135.1290  -20.6200   17.8820 C.3   105  SER105      0.1924
    105  C        134.7000  -21.9890   18.2800 C.2   105  SER105      0.2314
    106  O        134.5520  -22.2970   19.4430 O.2   105  SER105     -0.2863
    107  CB       133.8960  -19.7880   17.5030 C.3   105  SER105      0.2116
    108  OG       134.3790  -18.4660   17.3330 O.3   105  SER105     -0.2180
    109  N        136.4000  -24.6310   18.1980 N.3   107  ARG107     -0.1231
    110  CA       137.5060  -25.3140   18.8510 C.3   107  ARG107      0.1694
    111  C        137.4680  -25.0370   20.3190 C.2   107  ARG107      0.2592
    112  O        137.5510  -25.9800   21.1420 O.2   107  ARG107     -0.2718
    113  CB       138.8520  -25.0060   18.1370 C.3   107  ARG107      0.0321
    114  CG       138.8230  -25.5180   16.7040 C.3   107  ARG107      0.0489
    115  CD       140.1880  -25.8370   16.1870 C.3   107  ARG107      0.2205
    116  NE       140.2660  -26.4520   14.8590 N.pl3 107  ARG107     -0.0865
    117  CZ       140.4380  -27.7560   14.5960 C.cat 107  ARG107      0.5346
    118  NH1      140.4250  -28.7140   15.5440 N.pl3 107  ARG107      0.1354
    119  NH2      140.5810  -28.1120   13.3220 N.pl3 107  ARG107      0.1354
    120  N        137.2110  -23.7780   20.6870 N.am  108  GLY108     -0.1957
    121  CA       136.9750  -23.4410   22.0810 C.3   108  GLY108      0.1869
    122  C        135.8740  -24.3230   22.7040 C.2   108  GLY108      0.2309
    123  O        136.0240  -24.8670   23.8170 O.2   108  GLY108     -0.2863
    124  N        136.8590  -28.0630   23.2970 N.3   111  ARG111     -0.1245
    125  CA       137.6950  -28.1810   24.4440 C.3   111  ARG111      0.1563
    126  C        136.8800  -28.1250   25.7030 C.2   111  ARG111      0.2260
    127  O        137.0820  -28.9310   26.6170 O.2   111  ARG111     -0.2867
    128  CB       138.7330  -27.0760   24.4770 C.3   111  ARG111      0.0307
    129  CG       139.6870  -27.1440   23.3150 C.3   111  ARG111      0.0489
    130  CD       140.6630  -28.2940   23.5060 C.3   111  ARG111      0.2205
    131  NE       140.8960  -28.9880   22.2570 N.pl3 111  ARG111     -0.0865
    132  CZ       141.4970  -28.4610   21.1950 C.cat 111  ARG111      0.5346
    133  NH1      141.9500  -27.1960   21.1970 N.pl3 111  ARG111      0.1354
    134  NH2      141.6510  -29.2130   20.1100 N.pl3 111  ARG111      0.1354
    135  N        129.3790  -16.6840   10.4410 N.3   127  THR127     -0.1218
    136  CA       130.5090  -16.1860    9.6770 C.3   127  THR127      0.1862
    137  C        130.0630  -15.9990    8.2110 C.2   127  THR127      0.2287
    138  O        129.1590  -16.6500    7.7020 O.2   127  THR127     -0.2866
    139  CB       131.7860  -17.0800    9.7240 C.3   127  THR127      0.1770
    140  OG1      132.7620  -16.5310    8.8590 O.3   127  THR127     -0.2211
    141  CG2      131.5360  -18.4800    9.2340 C.3   127  THR127      0.0375
    142  N        138.1370  -15.2640    3.7160 N.3   173  ARG173     -0.1245
    143  CA       139.3060  -15.9830    4.3030 C.3   173  ARG173      0.1563
    144  C        140.0100  -16.9430    3.2730 C.2   173  ARG173      0.2260
    145  O        140.4720  -16.4510    2.2810 O.2   173  ARG173     -0.2867
    146  CB       138.8490  -16.6510    5.6110 C.3   173  ARG173      0.0307
    147  CG       139.9240  -16.8030    6.6610 C.3   173  ARG173      0.0489
    148  CD       139.5710  -17.9090    7.6570 C.3   173  ARG173      0.2205
    149  NE       139.6900  -17.4700    9.0400 N.pl3 173  ARG173     -0.0865
    150  CZ       140.8420  -17.2270    9.6750 C.cat 173  ARG173      0.5346
    151  NH1      142.0260  -17.3510    9.0590 N.pl3 173  ARG173      0.1354
    152  NH2      140.8140  -16.8450   10.9500 N.pl3 173  ARG173      0.1354
@<TRIPOS>BOND
     1   145   144    2
     2   144   143    1
     3   142   143    1
     4   143   146    1
     5   146   147    1
     6   147   148    1
     7   148   149    1
     8   138   137    2
     9   137   136    1
    10   140   139    1
    11   149   150    2
    12   151   150    1
    13   141   139    1
    14    98    96   ar
    15   150   152    1
    16   136   139    1
    17   136   135    1
    18    96    97   ar
    19    96    95    1
    20    95    92    1
    21    91    92    1
    22    91    89   am
    23    88    89    1
    24    88    87    1
    25    92    93    1
    26    42    40    1
    27   119   117    1
    28    89    90    2
    29    12    13    1
    30    12    11    1
    31    13    14    2
    32    11     9   am
    33    93    99   am
    34    93    94    2
    35    40    41    1
    36    40    39    2
    37    99   100    1
    38   117   116    2
    39   117   118    1
    40   116   115    1
    41    39    38    1
    42     9    10    2
    43     9     8    1
    44   100   101    1
    45     8     7    1
    46   115   114    1
    47    38    37    1
    48     4     3    2
    49   114   113    1
    50   103   101   am
    51   103   104    1
    52   101   102    2
    53   108   107    1
    54     7     3   am
    55    75    74    1
    56   107   104    1
    57     3     2    1
    58    37    36    1
    59   104   105    1
    60   113   110    1
    61   109   110    1
    62   105   106    2
    63    74    73    1
    64   110   111    1
    65     2     1    1
    66     2     5    1
    67    36    33    1
    68     5     6    1
    69    30    29    2
    70    73    72    1
    71    33    32    1
    72    33    34    1
    73   134   132    1
    74    32    29   am
    75   111   120   am
    76   111   112    2
    77    29    28    1
    78   120   121    1
    79    72    71    1
    80    27    28    1
    81    28    31    1
    82   132   133    1
    83   132   131    2
    84    34    43   am
    85    34    35    2
    86    53    54    1
    87    53    50    1
    88    43    44    1
    89    24    22   ar
    90    24    25   ar
    91    26    25    1
    92    54    55    1
    93    50    49    1
    94    50    51    1
    95    55    49    1
    96   121   122    1
    97   131   130    1
    98    49    45   am
    99    71    68    1
   100    22    20   ar
   101    25    23   ar
   102   122   123    2
   103    45    46    2
   104    45    44    1
   105    52    51    2
   106    44    47    1
   107   124   125    1
   108   129   130    1
   109   129   128    1
   110    68    67    1
   111    68    69    1
   112    67    58   am
   113    47    48    1
   114    20    21   ar
   115    20    19    1
   116    23    21   ar
   117    15    16    1
   118    70    69    2
   119   125   128    1
   120   125   126    1
   121    19    16    1
   122    60    57    1
   123    60    61    1
   124    58    59    2
   125    58    57    1
   126    63    61   ar
   127    63    65   ar
   128    85    84    1
   129    56    57    1
   130    16    17    1
   131    61    62   ar
   132    65    66   ar
   133   126   127    2
   134    84    86    1
   135    84    83    2
   136    17    18    2
   137    82    83    1
   138    82    81    1
   139    62    64   ar
   140    66    64   ar
   141    81    80    1
   142    80    77    1
   143    77    76    1
   144    77    78    1
   145    78    79    2
