@<TRIPOS>MOLECULE
tmp/5xzeA00.pdb
 183 180 0 0 0
SMALL
GASTEIGER

@<TRIPOS>ATOM
      1  N        112.4730  193.4740  296.1900 N.3    85  ALA85      -0.1231
      2  CA       111.8250  194.7320  295.8190 C.3    85  ALA85       0.1694
      3  C        112.1730  195.1440  294.3930 C.2    85  ALA85       0.2592
      4  O        111.4320  195.8980  293.7620 O.2    85  ALA85      -0.2718
      5  CB       112.2070  195.8260  296.7920 C.3    85  ALA85       0.0304
      6  N        113.2870  194.6250  293.8790 N.am   86  PHE86      -0.1976
      7  CA       113.7700  195.0520  292.5730 C.3    86  PHE86       0.1639
      8  C        113.6640  193.9530  291.5340 C.2    86  PHE86       0.2290
      9  O        113.8410  192.7660  291.8330 O.2    86  PHE86      -0.2864
     10  CB       115.2110  195.5570  292.6850 C.3    86  PHE86       0.0560
     11  CG       115.3310  196.8200  293.4860 C.ar   86  PHE86      -0.0200
     12  CD1      115.4830  196.7710  294.8620 C.ar   86  PHE86      -0.0042
     13  CD2      115.2450  198.0580  292.8690 C.ar   86  PHE86      -0.0042
     14  CE1      115.5770  197.9340  295.6110 C.ar   86  PHE86      -0.0003
     15  CE2      115.3300  199.2270  293.6120 C.ar   86  PHE86      -0.0003
     16  CZ       115.4970  199.1610  294.9870 C.ar   86  PHE86      -0.0000
     17  N        118.7270  207.1270  291.8330 N.3   142  GLY142     -0.1210
     18  CA       118.0960  206.7660  293.0740 C.3   142  GLY142      0.1956
     19  C        116.7160  207.3670  293.2730 C.2   142  GLY142      0.2613
     20  O        116.1470  207.3070  294.3650 O.2   142  GLY142     -0.2717
     21  N        116.1690  207.9520  292.2140 N.am  143  SER143     -0.1938
     22  CA       114.8110  208.4750  292.2480 C.3   143  SER143      0.2040
     23  C        114.1060  208.1670  290.9350 C.2   143  SER143      0.2485
     24  O        114.6730  208.3690  289.8610 O.2   143  SER143     -0.2729
     25  CB       114.8160  209.9820  292.5150 C.3   143  SER143      0.2129
     26  OG       113.5020  210.5110  292.4510 O.3   143  SER143     -0.2179
     27  N        112.8670  207.6610  291.0210 N.am  144  PRO144     -0.2726
     28  CA       112.0600  207.3410  289.8420 C.3   144  PRO144      0.1402
     29  C        111.1980  208.5150  289.3760 C.2   144  PRO144      0.2269
     30  O        110.4630  208.3980  288.3950 O.2   144  PRO144     -0.2865
     31  CB       111.1780  206.1940  290.3420 C.3   144  PRO144      0.0296
     32  CG       110.9330  206.5450  291.7790 C.3   144  PRO144      0.0237
     33  CD       112.2160  207.2090  292.2670 C.3   144  PRO144      0.0939
     34  N        111.4460  198.9990  290.6990 N.3   216  ARG216     -0.1231
     35  CA       111.1070  198.7500  292.0980 C.3   216  ARG216      0.1694
     36  C        109.5940  198.5980  292.3180 C.2   216  ARG216      0.2592
     37  O        108.7780  199.2860  291.6930 O.2   216  ARG216     -0.2718
     38  CB       111.6540  199.8760  292.9790 C.3   216  ARG216      0.0321
     39  CG       111.5430  199.6070  294.4660 C.3   216  ARG216      0.0489
     40  CD       112.0590  200.7780  295.2870 C.3   216  ARG216      0.2205
     41  NE       111.2360  201.9790  295.1300 N.pl3 216  ARG216     -0.0865
     42  CZ       111.5860  203.1830  295.5770 C.cat 216  ARG216      0.5346
     43  NH1      112.7400  203.3420  296.2170 N.pl3 216  ARG216      0.1354
     44  NH2      110.7800  204.2230  295.3880 N.pl3 216  ARG216      0.1354
     45  N        109.2140  197.6850  293.2040 N.am  217  LEU217     -0.1966
     46  CA       107.8000  197.5120  293.5180 C.3   217  LEU217      0.1728
     47  C        107.2640  198.7720  294.1850 C.2   217  LEU217      0.2617
     48  O        107.9820  199.4580  294.8890 O.2   217  LEU217     -0.2715
     49  CB       107.5870  196.2960  294.4190 C.3   217  LEU217      0.0311
     50  CG       107.6830  194.9410  293.7070 C.3   217  LEU217      0.0022
     51  CD1      107.5710  193.7890  294.6950 C.3   217  LEU217      0.0001
     52  CD2      106.5830  194.8630  292.6670 C.3   217  LEU217      0.0001
     53  N        105.9960  199.0770  293.9600 N.am  218  SER218     -0.1936
     54  CA       105.3730  200.2100  294.6360 C.3   218  SER218      0.2055
     55  C        103.9810  199.8250  295.0900 C.2   218  SER218      0.2643
     56  O        103.2050  199.2800  294.3130 O.2   218  SER218     -0.2714
     57  CB       105.3150  201.4200  293.7160 C.3   218  SER218      0.2130
     58  OG       104.7130  202.5220  294.3740 O.3   218  SER218     -0.2179
     59  N        103.6680  200.0940  296.3500 N.am  219  PHE219     -0.1973
     60  CA       102.3170  199.8500  296.8580 C.3   219  PHE219      0.1639
     61  C        101.7130  201.1440  297.3990 C.2   219  PHE219      0.2290
     62  O        100.9990  201.1400  298.4060 O.2   219  PHE219     -0.2864
     63  CB       102.3500  198.7680  297.9310 C.3   219  PHE219      0.0560
     64  CG       102.9400  197.4660  297.4440 C.ar  219  PHE219     -0.0200
     65  CD1      102.1660  196.5640  296.7240 C.ar  219  PHE219     -0.0042
     66  CD2      104.2760  197.1680  297.6680 C.ar  219  PHE219     -0.0042
     67  CE1      102.7170  195.3730  296.2660 C.ar  219  PHE219     -0.0003
     68  CE2      104.8210  195.9770  297.2170 C.ar  219  PHE219     -0.0003
     69  CZ       104.0450  195.0860  296.5140 C.ar  219  PHE219     -0.0000
     70  N         98.8500  201.5260  300.2450 N.3   223  GLU223     -0.1245
     71  CA        99.1410  202.3240  301.4260 C.3   223  GLU223      0.1567
     72  C         98.1640  203.4860  301.5550 C.2   223  GLU223      0.2260
     73  O         97.7860  203.8770  302.6620 O.2   223  GLU223     -0.2867
     74  CB       100.5650  202.8700  301.3650 C.3   223  GLU223      0.0388
     75  CG       101.6650  201.8050  301.3350 C.3   223  GLU223      0.1160
     76  CD       102.9720  202.3630  300.7740 C.2   223  GLU223      0.3649
     77  OE1      103.9230  201.5880  300.5210 O.co2 223  GLU223     -0.2457
     78  OE2      103.0330  203.5940  300.5690 O.co2 223  GLU223     -0.2457
     79  N        120.6220  212.3340  306.0140 N.3   268  ASP268     -0.1225
     80  CA       120.0200  212.3800  304.6730 C.3   268  ASP268      0.1805
     81  C        119.5590  211.0220  304.1850 C.2   268  ASP268      0.2598
     82  O        118.7910  210.9300  303.2290 O.2   268  ASP268     -0.2718
     83  CB       120.9710  212.9660  303.6280 C.3   268  ASP268      0.1424
     84  CG       121.4330  214.3690  303.9690 C.2   268  ASP268      0.3668
     85  OD1      122.3910  214.5100  304.7490 O.co2 268  ASP268     -0.2456
     86  OD2      120.8770  215.3390  303.4060 O.co2 268  ASP268     -0.2456
     87  N        120.0440  209.9700  304.8260 N.am  269  ALA269     -0.1966
     88  CA       119.6570  208.6280  304.4400 C.3   269  ALA269      0.1728
     89  C        118.2030  208.3710  304.8470 C.2   269  ALA269      0.2616
     90  O        117.4260  207.8330  304.0670 O.2   269  ALA269     -0.2715
     91  CB       120.6060  207.5960  305.0620 C.3   269  ALA269      0.0334
     92  N        117.8350  208.7890  306.0540 N.am  270  PHE270     -0.1960
     93  CA       116.4650  208.6420  306.5430 C.3   270  PHE270      0.1771
     94  C        115.4630  209.5110  305.7930 C.2   270  PHE270      0.2619
     95  O        115.8380  210.4720  305.1130 O.2   270  PHE270     -0.2715
     96  CB       116.4080  208.9610  308.0340 C.3   270  PHE270      0.0574
     97  CG       117.2720  208.0710  308.8620 C.ar  270  PHE270     -0.0200
     98  CD1      116.8990  206.7570  309.1130 C.ar  270  PHE270     -0.0042
     99  CD2      118.4690  208.5300  309.3710 C.ar  270  PHE270     -0.0042
    100  CE1      117.7040  205.9270  309.8730 C.ar  270  PHE270     -0.0003
    101  CE2      119.2740  207.7090  310.1330 C.ar  270  PHE270     -0.0003
    102  CZ       118.8980  206.4050  310.3800 C.ar  270  PHE270     -0.0000
    103  N        114.1840  209.1740  305.9500 N.am  271  CYS271     -0.1968
    104  CA       113.1050  209.7910  305.1890 C.3   271  CYS271      0.1712
    105  C        111.7390  209.4280  305.7760 C.2   271  CYS271      0.2296
    106  O        111.6500  208.5960  306.6870 O.2   271  CYS271     -0.2864
    107  CB       113.1510  209.3230  303.7520 C.3   271  CYS271      0.0983
    108  SG       112.5270  207.6540  303.7010 S.3   271  CYS271     -0.0798
    109  N        109.1650  207.6540  304.5410 N.3   273  TYR273     -0.1227
    110  CA       108.7550  206.2500  304.3560 C.3   273  TYR273      0.1736
    111  C        109.2110  205.3260  305.4760 C.2   273  TYR273      0.2595
    112  O        108.5590  204.3350  305.7670 O.2   273  TYR273     -0.2718
    113  CB       109.2650  205.6910  303.0230 C.3   273  TYR273      0.0548
    114  CG       108.5810  204.3920  302.6360 C.ar  273  TYR273     -0.0200
    115  CD1      107.2230  204.3640  302.3510 C.ar  273  TYR273     -0.0009
    116  CD2      109.2960  203.1910  302.5520 C.ar  273  TYR273     -0.0009
    117  CE1      106.5720  203.1670  301.9990 C.ar  273  TYR273      0.0417
    118  CE2      108.6670  201.9950  302.2000 C.ar  273  TYR273      0.0417
    119  CZ       107.3090  201.9900  301.9240 C.ar  273  TYR273      0.1957
    120  OH       106.6820  200.8120  301.5720 O.3   273  TYR273     -0.2866
    121  N        110.3440  205.6380  306.0900 N.am  274  HIS274     -0.1975
    122  CA       110.7980  204.8740  307.2420 C.3   274  HIS274      0.1656
    123  C        109.7870  205.0090  308.3850 C.2   274  HIS274      0.2291
    124  O        109.4230  204.0140  309.0170 O.2   274  HIS274     -0.2864
    125  CB       112.1840  205.3350  307.6870 C.3   274  HIS274      0.0771
    126  CG       113.2590  205.0800  306.6740 C.ar  274  HIS274      0.0820
    127  ND1      114.2220  206.0150  306.3560 N.ar  274  HIS274     -0.2267
    128  CD2      113.5280  203.9920  305.9110 C.ar  274  HIS274      0.1154
    129  CE1      115.0360  205.5140  305.4420 C.ar  274  HIS274      0.1986
    130  NE2      114.6380  204.2880  305.1560 N.ar  274  HIS274     -0.2212
    131  N        110.2790  196.0510  305.4150 N.3   319  HIS319     -0.1241
    132  CA       109.2880  196.6080  304.5020 C.3   319  HIS319      0.1621
    133  C        107.9360  195.9780  304.8300 C.2   319  HIS319      0.2264
    134  O        107.8680  194.7940  305.1440 O.2   319  HIS319     -0.2867
    135  CB       109.6940  196.3390  303.0550 C.3   319  HIS319      0.0745
    136  CG       108.8910  197.0940  302.0450 C.ar  319  HIS319      0.0817
    137  ND1      107.5840  196.7810  301.7500 N.ar  319  HIS319     -0.2268
    138  CD2      109.2220  198.1280  301.2340 C.ar  319  HIS319      0.1154
    139  CE1      107.1380  197.5970  300.8110 C.ar  319  HIS319      0.1986
    140  NE2      108.1130  198.4240  300.4800 N.ar  319  HIS319     -0.2212
    141  N        107.0270  193.6220  301.8230 N.3   322  ILE322     -0.1245
    142  CA       108.0960  192.7560  301.3730 C.3   322  ILE322      0.1561
    143  C        109.0320  192.4860  302.5430 C.2   322  ILE322      0.2260
    144  O        110.0460  193.1520  302.7020 O.2   322  ILE322     -0.2867
    145  CB       108.8700  193.3980  300.2100 C.3   322  ILE322      0.0252
    146  CG1      107.9010  193.8550  299.1160 C.3   322  ILE322      0.0019
    147  CG2      109.8880  192.4440  299.6470 C.3   322  ILE322      0.0019
    148  CD1      108.5600  194.7560  298.0870 C.3   322  ILE322      0.0001
    149  N        112.8810  192.5920  302.6050 N.3   325  PHE325     -0.1241
    150  CA       113.5860  193.8360  302.3430 C.3   325  PHE325      0.1605
    151  C        113.7610  194.6490  303.6200 C.2   325  PHE325      0.2264
    152  O        112.8110  195.2260  304.1360 O.2   325  PHE325     -0.2867
    153  CB       112.8630  194.6610  301.2710 C.3   325  PHE325      0.0534
    154  CG       113.7310  195.7120  300.6370 C.ar  325  PHE325     -0.0203
    155  CD1      114.5300  195.4060  299.5460 C.ar  325  PHE325     -0.0042
    156  CD2      113.7700  197.0010  301.1460 C.ar  325  PHE325     -0.0042
    157  CE1      115.3430  196.3740  298.9650 C.ar  325  PHE325     -0.0003
    158  CE2      114.5860  197.9760  300.5730 C.ar  325  PHE325     -0.0003
    159  CZ       115.3710  197.6600  299.4810 C.ar  325  PHE325     -0.0000
    160  N        114.9050  197.8290  305.2110 N.3   327  LEU327     -0.1245
    161  CA       115.1900  199.2300  304.9270 C.3   327  LEU327      0.1561
    162  C        116.2780  199.8110  305.8220 C.2   327  LEU327      0.2260
    163  O        116.7780  200.9040  305.5650 O.2   327  LEU327     -0.2867
    164  CB       113.9210  200.0660  305.0800 C.3   327  LEU327      0.0270
    165  CG       112.8160  199.7850  304.0690 C.3   327  LEU327      0.0019
    166  CD1      111.5090  200.3790  304.5450 C.3   327  LEU327      0.0001
    167  CD2      113.2040  200.3550  302.7210 C.3   327  LEU327      0.0001
    168  N        122.0480  199.9030  303.0860 N.3   332  LEU332     -0.1231
    169  CA       121.2440  201.0780  302.7300 C.3   332  LEU332      0.1693
    170  C        121.4970  202.2550  303.6570 C.2   332  LEU332      0.2591
    171  O        121.5550  203.4020  303.2200 O.2   332  LEU332     -0.2718
    172  CB       119.7530  200.7440  302.7520 C.3   332  LEU332      0.0284
    173  CG       119.2700  199.7330  301.7180 C.3   332  LEU332      0.0019
    174  CD1      117.7640  199.4950  301.8670 C.3   332  LEU332      0.0001
    175  CD2      119.6200  200.2190  300.3190 C.3   332  LEU332      0.0001
    176  N        121.6100  201.9650  304.9450 N.am  333  ILE333     -0.1980
    177  CA       121.8590  202.9880  305.9490 C.3   333  ILE333      0.1595
    178  C        122.9770  202.5080  306.8590 C.2   333  ILE333      0.2287
    179  O        122.8180  201.4870  307.5350 O.2   333  ILE333     -0.2864
    180  CB       120.6060  203.2910  306.7810 C.3   333  ILE333      0.0276
    181  CG1      119.4340  203.6690  305.8700 C.3   333  ILE333      0.0022
    182  CG2      120.8860  204.3910  307.7830 C.3   333  ILE333      0.0022
    183  CD1      118.1690  203.9850  306.6110 C.3   333  ILE333      0.0001
@<TRIPOS>BOND
     1    30    29    2
     2    29    28    1
     3    28    31    1
     4    28    27    1
     5    24    23    2
     6    31    32    1
     7    34    35    1
     8    23    27   am
     9    23    22    1
    10    27    33    1
    11     8     9    2
    12     8     7    1
    13    37    36    2
    14    32    33    1
    15    17    18    1
    16    35    36    1
    17    35    38    1
    18    21    22    1
    19    21    19   am
    20    22    25    1
    21    36    45   am
    22    26    25    1
    23     7    10    1
    24     7     6    1
    25    52    50    1
    26    10    11    1
    27    13    11   ar
    28    13    15   ar
    29    38    39    1
    30    18    19    1
    31    45    46    1
    32    19    20    2
    33    11    12   ar
    34    46    47    1
    35    46    49    1
    36    15    16   ar
    37    50    49    1
    38    50    51    1
    39    57    58    1
    40    57    54    1
    41     4     3    2
    42     6     3   am
    43    53    47   am
    44    53    54    1
    45    47    48    2
    46    56    55    2
    47     3     2    1
    48    39    40    1
    49    54    55    1
    50    12    14   ar
    51    16    14   ar
    52    55    59   am
    53    41    40    1
    54    41    42    2
    55    44    42    1
    56    42    43    1
    57     2     1    1
    58     2     5    1
    59    67    69   ar
    60    67    65   ar
    61    59    60    1
    62    69    68   ar
    63    65    64   ar
    64    60    61    1
    65    60    63    1
    66    68    66   ar
    67    61    62    2
    68    64    66   ar
    69    64    63    1
    70   148   146    1
    71   157   159   ar
    72   157   155   ar
    73   146   145    1
    74   159   158   ar
    75   155   154   ar
    76   147   145    1
    77   145   142    1
    78    70    71    1
    79   175   173    1
    80   140   139   ar
    81   140   138   ar
    82    77    76   ar
    83    78    76   ar
    84   158   156   ar
    85   154   156   ar
    86   154   153    1
    87    76    75    1
    88   139   137   ar
    89   138   136   ar
    90   153   150    1
    91    75    74    1
    92    74    71    1
    93   142   141    1
    94   142   143    1
    95    71    72    1
    96    72    73    2
    97   120   119    1
    98   173   174    1
    99   173   172    1
   100   137   136   ar
   101   119   117   ar
   102   119   118   ar
   103   117   115   ar
   104   136   135    1
   105   118   116   ar
   106   150   149    1
   107   150   151    1
   108   115   114   ar
   109   143   144    2
   110   116   114   ar
   111   114   113    1
   112   167   165    1
   113   169   172    1
   114   169   168    1
   115   169   170    1
   116   113   110    1
   117   135   132    1
   118   171   170    2
   119    82    81    2
   120    86    84   ar
   121   151   152    2
   122    83    84    1
   123    83    80    1
   124   170   176   am
   125   108   107    1
   126   107   104    1
   127    84    85   ar
   128    90    89    2
   129   165   166    1
   130   165   164    1
   131    81    80    1
   132    81    87   am
   133   110   109    1
   134   110   111    1
   135    88    87    1
   136    88    89    1
   137    88    91    1
   138   132   133    1
   139   132   131    1
   140    80    79    1
   141   133   134    2
   142    89    92   am
   143   161   164    1
   144   161   160    1
   145   161   162    1
   146   176   177    1
   147    95    94    2
   148   130   129   ar
   149   130   128   ar
   150   104   105    1
   151   104   103    1
   152   129   127   ar
   153   111   112    2
   154   111   121   am
   155   163   162    2
   156   105   106    2
   157    94   103   am
   158    94    93    1
   159   181   183    1
   160   181   180    1
   161   128   126   ar
   162   177   180    1
   163   177   178    1
   164    92    93    1
   165   121   122    1
   166   127   126   ar
   167    93    96    1
   168   126   125    1
   169   180   182    1
   170   178   179    2
   171   122   125    1
   172   122   123    1
   173    96    97    1
   174   123   124    2
   175    97    98   ar
   176    97    99   ar
   177    98   100   ar
   178    99   101   ar
   179   100   102   ar
   180   101   102   ar
