@<TRIPOS>MOLECULE
tmp/5xzgA00.pdb
 206 200 0 0 0
SMALL
GASTEIGER

@<TRIPOS>ATOM
      1  N        198.2990  193.0460  168.8300 N.3    85  ALA85      -0.1231
      2  CA       197.6930  194.3120  168.4040 C.3    85  ALA85       0.1694
      3  C        198.0080  194.6750  166.9480 C.2    85  ALA85       0.2592
      4  O        197.1660  195.2710  166.2650 O.2    85  ALA85      -0.2718
      5  CB       198.1410  195.4500  169.3280 C.3    85  ALA85       0.0304
      6  N        199.2080  194.3240  166.4780 N.am   86  PHE86      -0.1976
      7  CA       199.6450  194.7520  165.1490 C.3    86  PHE86       0.1639
      8  C        199.5350  193.6250  164.1210 C.2    86  PHE86       0.2290
      9  O        199.7650  192.4610  164.4470 O.2    86  PHE86      -0.2864
     10  CB       201.0840  195.2920  165.2270 C.3    86  PHE86       0.0560
     11  CG       201.1960  196.5620  166.0270 C.ar   86  PHE86      -0.0200
     12  CD1      200.9520  197.7960  165.4310 C.ar   86  PHE86      -0.0042
     13  CD2      201.5100  196.5250  167.3780 C.ar   86  PHE86      -0.0042
     14  CE1      201.0340  198.9820  166.1620 C.ar   86  PHE86      -0.0003
     15  CE2      201.5920  197.6990  168.1180 C.ar   86  PHE86      -0.0003
     16  CZ       201.3510  198.9310  167.5080 C.ar   86  PHE86      -0.0000
     17  N        203.7900  212.8650  162.0470 N.3   140  LYS140     -0.1245
     18  CA       204.3960  212.2410  163.2100 C.3   140  LYS140      0.1561
     19  C        204.6280  210.7640  162.9250 C.2   140  LYS140      0.2260
     20  O        203.6690  210.0180  162.7140 O.2   140  LYS140     -0.2867
     21  CB       203.5040  212.4310  164.4380 C.3   140  LYS140      0.0271
     22  CG       204.0820  211.8910  165.7320 C.3   140  LYS140      0.0035
     23  CD       203.2960  212.4050  166.9290 C.3   140  LYS140      0.0206
     24  CE       203.3240  213.9280  166.9750 C.3   140  LYS140      0.1093
     25  NZ       202.5930  214.4810  168.1450 N.3   140  LYS140     -0.1314
     26  N        202.3670  207.4350  163.5760 N.3   143  SER143     -0.1203
     27  CA       201.0320  207.9060  163.9760 C.3   143  SER143      0.2005
     28  C        199.9950  207.5450  162.9110 C.2   143  SER143      0.2460
     29  O        200.2520  207.6990  161.7260 O.2   143  SER143     -0.2732
     30  CB       201.0530  209.4210  164.2210 C.3   143  SER143      0.2103
     31  OG       199.7500  209.9750  164.3010 O.3   143  SER143     -0.2182
     32  N        198.8190  207.0450  163.3220 N.am  144  PRO144     -0.2728
     33  CA       197.7920  206.7850  162.3070 C.3   144  PRO144      0.1401
     34  C        196.9880  208.0350  161.8790 C.2   144  PRO144      0.2269
     35  O        196.1820  207.9590  160.9520 O.2   144  PRO144     -0.2865
     36  CB       196.8670  205.7940  163.0090 C.3   144  PRO144      0.0296
     37  CG       196.9160  206.2200  164.4440 C.3   144  PRO144      0.0237
     38  CD       198.3620  206.6670  164.6730 C.3   144  PRO144      0.0939
     39  N        198.5710  202.7090  162.4110 N.3   202  LYS202     -0.1245
     40  CA       199.6810  202.9430  163.3070 C.3   202  LYS202      0.1561
     41  C        200.6530  201.8010  163.1260 C.2   202  LYS202      0.2260
     42  O        200.2830  200.6430  163.2860 O.2   202  LYS202     -0.2867
     43  CB       199.2410  203.0380  164.7660 C.3   202  LYS202      0.0271
     44  CG       200.4350  203.2690  165.6930 C.3   202  LYS202      0.0035
     45  CD       199.9970  203.6240  167.0860 C.3   202  LYS202      0.0206
     46  CE       201.1900  203.9060  167.9840 C.3   202  LYS202      0.1093
     47  NZ       200.7330  204.2690  169.3620 N.3   202  LYS202     -0.1314
     48  N        197.1970  198.5190  163.1620 N.3   216  ARG216     -0.1231
     49  CA       196.9120  198.2150  164.5550 C.3   216  ARG216      0.1694
     50  C        195.4080  198.1520  164.7950 C.2   216  ARG216      0.2592
     51  O        194.6360  198.9300  164.2270 O.2   216  ARG216     -0.2718
     52  CB       197.5470  199.2540  165.4860 C.3   216  ARG216      0.0321
     53  CG       197.6220  198.8180  166.9420 C.3   216  ARG216      0.0489
     54  CD       197.6100  200.0120  167.8700 C.3   216  ARG216      0.2205
     55  NE       196.3020  200.6490  167.8130 N.pl3 216  ARG216     -0.0865
     56  CZ       196.0480  201.9090  168.1410 C.cat 216  ARG216      0.5346
     57  NH1      197.0240  202.7080  168.5620 N.pl3 216  ARG216      0.1354
     58  NH2      194.8020  202.3590  168.0370 N.pl3 216  ARG216      0.1354
     59  N        194.9840  197.2180  165.6340 N.am  217  LEU217     -0.1966
     60  CA       193.5740  197.1590  166.0090 C.3   217  LEU217      0.1728
     61  C        193.1440  198.4350  166.7340 C.2   217  LEU217      0.2617
     62  O        193.9490  199.0880  167.4240 O.2   217  LEU217     -0.2715
     63  CB       193.2960  195.9380  166.8890 C.3   217  LEU217      0.0311
     64  CG       193.4050  194.5890  166.1730 C.3   217  LEU217      0.0022
     65  CD1      193.3620  193.4440  167.1840 C.3   217  LEU217      0.0001
     66  CD2      192.2650  194.4530  165.1930 C.3   217  LEU217      0.0001
     67  N        191.8730  198.7690  166.5680 N.am  218  SER218     -0.1936
     68  CA       191.2480  199.8770  167.2740 C.3   218  SER218      0.2055
     69  C        189.8640  199.4830  167.7590 C.2   218  SER218      0.2643
     70  O        189.0810  198.9370  167.0040 O.2   218  SER218     -0.2714
     71  CB       191.1460  201.1030  166.3620 C.3   218  SER218      0.2130
     72  OG       190.3200  202.0900  166.9510 O.3   218  SER218     -0.2179
     73  N        189.5460  199.7850  169.0090 N.am  219  PHE219     -0.1973
     74  CA       188.2030  199.5160  169.5250 C.3   219  PHE219      0.1639
     75  C        187.5520  200.8040  169.9980 C.2   219  PHE219      0.2290
     76  O        186.7640  200.8120  170.9480 O.2   219  PHE219     -0.2864
     77  CB       188.2800  198.4960  170.6600 C.3   219  PHE219      0.0560
     78  CG       189.0090  197.2400  170.2640 C.ar  219  PHE219     -0.0200
     79  CD1      188.3350  196.2120  169.6290 C.ar  219  PHE219     -0.0042
     80  CD2      190.3760  197.1200  170.4760 C.ar  219  PHE219     -0.0042
     81  CE1      188.9980  195.0720  169.2490 C.ar  219  PHE219     -0.0003
     82  CE2      191.0440  195.9690  170.0950 C.ar  219  PHE219     -0.0003
     83  CZ       190.3520  194.9540  169.4830 C.ar  219  PHE219     -0.0000
     84  N        184.6610  201.2520  172.8260 N.3   223  GLU223     -0.1245
     85  CA       184.9200  202.0270  174.0180 C.3   223  GLU223      0.1567
     86  C        183.8690  203.1250  174.1640 C.2   223  GLU223      0.2260
     87  O        183.4630  203.4550  175.2710 O.2   223  GLU223     -0.2867
     88  CB       186.3340  202.6220  173.9720 C.3   223  GLU223      0.0388
     89  CG       187.4220  201.5410  173.9480 C.3   223  GLU223      0.1160
     90  CD       188.7980  202.0630  173.5240 C.2   223  GLU223      0.3649
     91  OE1      189.7060  201.2180  173.3200 O.co2 223  GLU223     -0.2457
     92  OE2      188.9650  203.3060  173.4000 O.co2 223  GLU223     -0.2457
     93  N        202.1160  215.8040  182.9380 N.3   261  LYS261     -0.1245
     94  CA       202.8000  215.7060  181.6480 C.3   261  LYS261      0.1561
     95  C        203.2310  217.0840  181.1730 C.2   261  LYS261      0.2260
     96  O        204.2920  217.2410  180.5730 O.2   261  LYS261     -0.2867
     97  CB       201.9030  215.0420  180.5880 C.3   261  LYS261      0.0271
     98  CG       201.7780  213.5310  180.7170 C.3   261  LYS261      0.0035
     99  CD       200.7830  212.9130  179.7050 C.3   261  LYS261      0.0206
    100  CE       201.1710  213.2350  178.2720 C.3   261  LYS261      0.1093
    101  NZ       202.5930  212.8630  177.9960 N.3   261  LYS261     -0.1314
    102  N        206.6180  211.9450  178.7080 N.3   268  ASP268     -0.1225
    103  CA       206.1350  211.9650  177.3250 C.3   268  ASP268      0.1805
    104  C        205.6040  210.6180  176.8560 C.2   268  ASP268      0.2598
    105  O        204.8130  210.5530  175.9190 O.2   268  ASP268     -0.2718
    106  CB       207.2270  212.4120  176.3560 C.3   268  ASP268      0.1424
    107  CG       207.5480  213.8910  176.4680 C.2   268  ASP268      0.3668
    108  OD1      206.8030  214.6310  177.1440 O.co2 268  ASP268     -0.2456
    109  OD2      208.5390  214.3160  175.8450 O.co2 268  ASP268     -0.2456
    110  N        206.0430  209.5410  177.4960 N.am  269  ALA269     -0.1966
    111  CA       205.6190  208.2070  177.0810 C.3   269  ALA269      0.1728
    112  C        204.1950  207.8690  177.5360 C.2   269  ALA269      0.2616
    113  O        203.5910  206.9370  177.0220 O.2   269  ALA269     -0.2715
    114  CB       206.5970  207.1590  177.5950 C.3   269  ALA269      0.0334
    115  N        203.6570  208.6060  178.5040 N.am  270  PHE270     -0.1960
    116  CA       202.3080  208.3090  178.9780 C.3   270  PHE270      0.1771
    117  C        201.2620  209.0950  178.2290 C.2   270  PHE270      0.2619
    118  O        201.5470  210.1410  177.6510 O.2   270  PHE270     -0.2715
    119  CB       202.1810  208.5860  180.4730 C.3   270  PHE270      0.0574
    120  CG       203.0960  207.7440  181.3140 C.ar  270  PHE270     -0.0200
    121  CD1      202.7400  206.4540  181.6640 C.ar  270  PHE270     -0.0042
    122  CD2      204.3150  208.2350  181.7340 C.ar  270  PHE270     -0.0042
    123  CE1      203.5770  205.6750  182.4330 C.ar  270  PHE270     -0.0003
    124  CE2      205.1610  207.4610  182.5070 C.ar  270  PHE270     -0.0003
    125  CZ       204.7900  206.1760  182.8560 C.ar  270  PHE270     -0.0000
    126  N        200.0320  208.5930  178.2520 N.am  271  CYS271     -0.1968
    127  CA       198.9400  209.3200  177.6400 C.3   271  CYS271      0.1712
    128  C        197.6030  208.9190  178.2500 C.2   271  CYS271      0.2296
    129  O        197.5110  208.0050  179.1040 O.2   271  CYS271     -0.2864
    130  CB       198.9340  209.0790  176.1370 C.3   271  CYS271      0.0983
    131  SG       198.4140  207.3800  175.7700 S.3   271  CYS271     -0.0798
    132  N        195.1690  207.2710  177.1650 N.3   273  TYR273     -0.1227
    133  CA       194.7420  205.8830  176.9460 C.3   273  TYR273      0.1736
    134  C        195.1600  204.9590  178.0920 C.2   273  TYR273      0.2595
    135  O        194.4460  204.0230  178.4280 O.2   273  TYR273     -0.2718
    136  CB       195.2830  205.3280  175.6300 C.3   273  TYR273      0.0548
    137  CG       194.5100  204.0820  175.2210 C.ar  273  TYR273     -0.0200
    138  CD1      193.1800  204.1860  174.8270 C.ar  273  TYR273     -0.0009
    139  CD2      195.0830  202.8080  175.2690 C.ar  273  TYR273     -0.0009
    140  CE1      192.4330  203.0620  174.4730 C.ar  273  TYR273      0.0417
    141  CE2      194.3400  201.6630  174.9060 C.ar  273  TYR273      0.0417
    142  CZ       193.0060  201.8100  174.5100 C.ar  273  TYR273      0.1957
    143  OH       192.2080  200.7320  174.1430 O.3   273  TYR273     -0.2866
    144  N        196.3190  205.2160  178.6930 N.am  274  HIS274     -0.1975
    145  CA       196.7580  204.4240  179.8300 C.3   274  HIS274      0.1656
    146  C        195.7800  204.5880  180.9820 C.2   274  HIS274      0.2291
    147  O        195.4230  203.6310  181.6600 O.2   274  HIS274     -0.2864
    148  CB       198.1560  204.8460  180.2560 C.3   274  HIS274      0.0771
    149  CG       199.1890  204.6110  179.2030 C.ar  274  HIS274      0.0820
    150  ND1      200.1010  205.5690  178.8310 N.ar  274  HIS274     -0.2267
    151  CD2      199.4560  203.5170  178.4500 C.ar  274  HIS274      0.1154
    152  CE1      200.8920  205.0800  177.8890 C.ar  274  HIS274      0.1986
    153  NE2      200.5260  203.8340  177.6460 N.ar  274  HIS274     -0.2212
    154  N        196.1850  195.6360  178.0340 N.3   319  HIS319     -0.1241
    155  CA       195.1950  196.2250  177.1470 C.3   319  HIS319      0.1621
    156  C        193.8350  195.5710  177.4520 C.2   319  HIS319      0.2264
    157  O        193.7730  194.3700  177.6830 O.2   319  HIS319     -0.2867
    158  CB       195.5860  196.0350  175.6830 C.3   319  HIS319      0.0745
    159  CG       194.7340  196.8240  174.7340 C.ar  319  HIS319      0.0817
    160  ND1      193.4610  196.4470  174.3850 N.ar  319  HIS319     -0.2268
    161  CD2      194.9840  197.9760  174.0620 C.ar  319  HIS319      0.1154
    162  CE1      192.9510  197.3310  173.5400 C.ar  319  HIS319      0.1986
    163  NE2      193.8570  198.2750  173.3340 N.ar  319  HIS319     -0.2212
    164  N        192.8970  193.2520  174.5030 N.3   322  ILE322     -0.1245
    165  CA       193.9440  192.3430  174.0840 C.3   322  ILE322      0.1561
    166  C        194.8500  192.0940  175.2740 C.2   322  ILE322      0.2260
    167  O        195.8220  192.8180  175.4810 O.2   322  ILE322     -0.2867
    168  CB       194.7740  192.9210  172.9090 C.3   322  ILE322      0.0252
    169  CG1      193.8660  193.2920  171.7290 C.3   322  ILE322      0.0019
    170  CG2      195.8620  191.9260  172.4790 C.3   322  ILE322      0.0019
    171  CD1      194.5770  194.1790  170.6850 C.3   322  ILE322      0.0001
    172  N        198.7610  192.1090  175.3330 N.3   325  PHE325     -0.1241
    173  CA       199.4390  193.3660  175.0430 C.3   325  PHE325      0.1605
    174  C        199.5980  194.2010  176.3080 C.2   325  PHE325      0.2264
    175  O        198.6200  194.7260  176.8440 O.2   325  PHE325     -0.2867
    176  CB       198.6640  194.1610  173.9840 C.3   325  PHE325      0.0534
    177  CG       199.4460  195.2940  173.3950 C.ar  325  PHE325     -0.0203
    178  CD1      200.3790  195.0640  172.4130 C.ar  325  PHE325     -0.0042
    179  CD2      199.2460  196.5910  173.8310 C.ar  325  PHE325     -0.0042
    180  CE1      201.1140  196.1080  171.8780 C.ar  325  PHE325     -0.0003
    181  CE2      199.9810  197.6380  173.3010 C.ar  325  PHE325     -0.0003
    182  CZ       200.9040  197.3980  172.3200 C.ar  325  PHE325     -0.0000
    183  N        200.6710  197.4460  177.9330 N.3   327  LEU327     -0.1245
    184  CA       200.9240  198.8620  177.6540 C.3   327  LEU327      0.1561
    185  C        202.1150  199.4140  178.4480 C.2   327  LEU327      0.2260
    186  O        202.7010  200.4120  178.0550 O.2   327  LEU327     -0.2867
    187  CB       199.6490  199.6920  177.9510 C.3   327  LEU327      0.0270
    188  CG       198.4390  199.4650  177.0340 C.3   327  LEU327      0.0019
    189  CD1      197.1400  200.0540  177.6200 C.3   327  LEU327      0.0001
    190  CD2      198.7030  200.0510  175.6630 C.3   327  LEU327      0.0001
    191  N        207.9920  199.4750  175.7450 N.3   332  LEU332     -0.1231
    192  CA       207.1890  200.6290  175.4050 C.3   332  LEU332      0.1693
    193  C        207.4340  201.8130  176.2900 C.2   332  LEU332      0.2591
    194  O        207.3970  202.9240  175.8480 O.2   332  LEU332     -0.2718
    195  CB       205.7260  200.2720  175.4880 C.3   332  LEU332      0.0284
    196  CG       205.1540  199.4420  174.3720 C.3   332  LEU332      0.0019
    197  CD1      203.7000  199.1080  174.6350 C.3   332  LEU332      0.0001
    198  CD2      205.3210  200.2040  173.0840 C.3   332  LEU332      0.0001
    199  N        207.6430  201.5470  177.5600 N.am  333  ILE333     -0.1980
    200  CA       207.9070  202.5750  178.5560 C.3   333  ILE333      0.1595
    201  C        208.9970  202.1030  179.5020 C.2   333  ILE333      0.2287
    202  O        208.9150  201.0020  180.0500 O.2   333  ILE333     -0.2864
    203  CB       206.6550  202.9190  179.3700 C.3   333  ILE333      0.0276
    204  CG1      205.5310  203.4200  178.4610 C.3   333  ILE333      0.0022
    205  CG2      206.9850  203.9510  180.4280 C.3   333  ILE333      0.0022
    206  CD1      204.1970  203.4840  179.1500 C.3   333  ILE333      0.0001
@<TRIPOS>BOND
     1    35    34    2
     2    29    28    2
     3    34    33    1
     4    17    18    1
     5    33    36    1
     6    33    32    1
     7    39    40    1
     8    20    19    2
     9    28    32   am
    10    28    27    1
    11    19    18    1
    12    36    37    1
    13    41    42    2
    14    41    40    1
    15    48    49    1
    16    18    21    1
    17    40    43    1
    18    32    38    1
    19    26    27    1
    20    27    30    1
    21     8     9    2
    22     8     7    1
    23    30    31    1
    24    51    50    2
    25    21    22    1
    26    37    38    1
    27    49    50    1
    28    49    52    1
    29    43    44    1
    30    50    59   am
    31     7    10    1
    32     7     6    1
    33    66    64    1
    34    10    11    1
    35    12    11   ar
    36    12    14   ar
    37    52    53    1
    38    59    60    1
    39    44    45    1
    40    22    23    1
    41    60    61    1
    42    60    63    1
    43    11    13   ar
    44    14    16   ar
    45    64    63    1
    46    64    65    1
    47     4     3    2
    48    71    72    1
    49    71    68    1
    50     6     3   am
    51    67    61   am
    52    67    68    1
    53    61    62    2
    54    23    24    1
    55    53    54    1
    56     3     2    1
    57    24    25    1
    58    70    69    2
    59    45    46    1
    60    68    69    1
    61    13    15   ar
    62    16    15   ar
    63    69    73   am
    64    55    54    1
    65    55    56    2
    66    46    47    1
    67    58    56    1
    68    56    57    1
    69     2     1    1
    70     2     5    1
    71    73    74    1
    72    81    83   ar
    73    81    79   ar
    74    83    82   ar
    75    74    75    1
    76    74    77    1
    77    79    78   ar
    78    75    76    2
    79    82    80   ar
    80    78    80   ar
    81    78    77    1
    82   171   169    1
    83   169   168    1
    84   180   182   ar
    85   180   178   ar
    86   182   181   ar
    87   178   177   ar
    88   170   168    1
    89    84    85    1
    90   168   165    1
    91   198   196    1
    92   181   179   ar
    93    91    90   ar
    94   163   162   ar
    95   163   161   ar
    96   177   179   ar
    97   177   176    1
    98    92    90   ar
    99    90    89    1
   100   162   160   ar
   101    89    88    1
   102    88    85    1
   103   176   173    1
   104    85    86    1
   105   161   159   ar
   106   165   164    1
   107   165   166    1
   108   143   142    1
   109    86    87    2
   110   196   197    1
   111   196   195    1
   112   160   159   ar
   113   140   142   ar
   114   140   138   ar
   115   142   141   ar
   116   159   158    1
   117   138   137   ar
   118   141   139   ar
   119   173   172    1
   120   173   174    1
   121   137   139   ar
   122   137   136    1
   123   166   167    2
   124   192   195    1
   125   192   191    1
   126   192   193    1
   127   136   133    1
   128   190   188    1
   129   158   155    1
   130   131   130    1
   131   109   107   ar
   132   194   193    2
   133   105   104    2
   134   130   127    1
   135   193   199   am
   136   174   175    2
   137   106   107    1
   138   106   103    1
   139   107   108   ar
   140   104   103    1
   141   104   110   am
   142   133   132    1
   143   133   134    1
   144   113   112    2
   145   188   189    1
   146   188   187    1
   147   111   110    1
   148   111   112    1
   149   111   114    1
   150   155   156    1
   151   155   154    1
   152   103   102    1
   153   156   157    2
   154   112   115   am
   155   199   200    1
   156   127   128    1
   157   127   126    1
   158   153   152   ar
   159   153   151   ar
   160   118   117    2
   161   184   183    1
   162   184   187    1
   163   184   185    1
   164   152   150   ar
   165   101   100    1
   166   186   185    2
   167   134   135    2
   168   134   144   am
   169   117   126   am
   170   117   116    1
   171   128   129    2
   172   100    99    1
   173   151   149   ar
   174   204   206    1
   175   204   203    1
   176   115   116    1
   177   200   203    1
   178   200   201    1
   179   144   145    1
   180   150   149   ar
   181   116   119    1
   182   149   148    1
   183   203   205    1
   184   201   202    2
   185    99    98    1
   186   145   148    1
   187   145   146    1
   188   119   120    1
   189    96    95    2
   190    97    98    1
   191    97    94    1
   192   146   147    2
   193    95    94    1
   194   120   121   ar
   195   120   122   ar
   196    94    93    1
   197   121   123   ar
   198   122   124   ar
   199   123   125   ar
   200   124   125   ar
