@<TRIPOS>MOLECULE
tmp/5xzmD02.pdb
 72 69 0 0 0
SMALL
GASTEIGER

@<TRIPOS>ATOM
      1  N         24.4420   21.9700   64.4720 N.3   475  LYS475     -0.1245
      2  CA        24.7940   23.4200   64.4490 C.3   475  LYS475      0.1561
      3  C         23.5910   24.2570   64.0600 C.2   475  LYS475      0.2260
      4  O         23.2360   25.2810   64.6880 O.2   475  LYS475     -0.2867
      5  CB        25.9880   23.7150   63.4800 C.3   475  LYS475      0.0271
      6  CG        27.2610   23.2430   64.1030 C.3   475  LYS475      0.0035
      7  CD        28.4810   23.6010   63.2530 C.3   475  LYS475      0.0206
      8  CE        29.6140   22.6340   63.6000 C.3   475  LYS475      0.1093
      9  NZ        30.6450   22.8050   62.5340 N.3   475  LYS475     -0.1314
     10  N         21.4620   27.2270   66.1220 N.3   479  THR479     -0.1218
     11  CA        21.2040   28.5590   65.6090 C.3   479  THR479      0.1862
     12  C         19.7370   28.9610   65.7820 C.2   479  THR479      0.2287
     13  O         19.4130   30.0670   66.2090 O.2   479  THR479     -0.2866
     14  CB        21.6150   28.6620   64.0820 C.3   479  THR479      0.1770
     15  OG1       23.0210   28.4130   63.9910 O.3   479  THR479     -0.2211
     16  CG2       21.1910   29.9110   63.4080 C.3   479  THR479      0.0375
     17  N         18.7350   29.2300   69.6510 N.3   482  ASN482     -0.1225
     18  CA        19.3490   30.4470   70.1980 C.3   482  ASN482      0.1785
     19  C         18.4960   31.6770   69.8920 C.2   482  ASN482      0.2597
     20  O         18.5250   32.6920   70.6350 O.2   482  ASN482     -0.2718
     21  CB        20.7410   30.6030   69.6030 C.3   482  ASN482      0.1169
     22  CG        21.5240   31.8070   70.1910 C.2   482  ASN482      0.2627
     23  OD1       21.6950   31.9030   71.3750 O.2   482  ASN482     -0.2716
     24  ND2       21.9510   32.7290   69.3140 N.am  482  ASN482     -0.0877
     25  N         17.7430   31.6880   68.7870 N.am  483  ARG483     -0.1979
     26  CA        16.8560   32.8030   68.5030 C.3   483  ARG483      0.1597
     27  C         15.6930   32.8770   69.4460 C.2   483  ARG483      0.2287
     28  O         15.0840   33.9360   69.6070 O.2   483  ARG483     -0.2864
     29  CB        16.3810   32.7910   67.0570 C.3   483  ARG483      0.0334
     30  CG        17.5840   32.9990   66.1490 C.3   483  ARG483      0.0492
     31  CD        17.2510   32.7610   64.7110 C.3   483  ARG483      0.2205
     32  NE        18.3390   32.9750   63.7670 N.pl3 483  ARG483     -0.0865
     33  CZ        18.4480   32.4210   62.5670 C.cat 483  ARG483      0.5346
     34  NH1       17.5590   31.5280   62.1360 N.pl3 483  ARG483      0.1354
     35  NH2       19.4690   32.7930   61.7700 N.pl3 483  ARG483      0.1354
     36  N         29.6070   24.4040   70.7520 N.3   499  GLY499     -0.1210
     37  CA        29.4180   25.7380   71.3030 C.3   499  GLY499      0.1956
     38  C         28.1490   26.3970   70.7970 C.2   499  GLY499      0.2612
     39  O         27.8560   26.3490   69.6020 O.2   499  GLY499     -0.2717
     40  N         27.3330   26.9880   71.6650 N.am  500  ALA500     -0.1966
     41  CA        26.2070   27.6840   71.2370 C.3   500  ALA500      0.1713
     42  C         26.6060   29.0100   70.6140 C.2   500  ALA500      0.2458
     43  O         27.5770   29.6380   71.0700 O.2   500  ALA500     -0.2730
     44  CB        25.2720   27.8940   72.4110 C.3   500  ALA500      0.0333
     45  N         25.9000   29.4630   69.5950 N.am  501  PRO501     -0.2716
     46  CA        26.1210   30.7550   69.0210 C.3   501  PRO501      0.1536
     47  C         25.8840   31.8550   70.0450 C.2   501  PRO501      0.2599
     48  O         25.1960   31.6470   71.0320 O.2   501  PRO501     -0.2715
     49  CB        25.1610   30.8380   67.8510 C.3   501  PRO501      0.0310
     50  CG        24.2730   29.7070   67.9550 C.3   501  PRO501      0.0237
     51  CD        24.6480   28.8240   69.0820 C.3   501  PRO501      0.0939
     52  N         26.4930   33.0090   69.8040 N.am  502  ASP502     -0.1958
     53  CA        26.3580   34.1250   70.7510 C.3   502  ASP502      0.1840
     54  C         24.8880   34.5720   70.7560 C.2   502  ASP502      0.2622
     55  O         24.1960   34.4770   69.7310 O.2   502  ASP502     -0.2715
     56  CB        27.1510   35.3580   70.2740 C.3   502  ASP502      0.1450
     57  CG        28.6450   35.1940   70.2550 C.2   502  ASP502      0.3671
     58  OD1       29.2210   34.3190   70.8270 O.co2 502  ASP502     -0.2456
     59  OD2       29.2320   36.0750   69.6440 O.co2 502  ASP502     -0.2456
     60  N         24.4630   35.1530   71.8670 N.am  503  ALA503     -0.1963
     61  CA        23.1190   35.6110   72.0610 C.3   503  ALA503      0.1728
     62  C         22.6630   36.5170   70.9680 C.2   503  ALA503      0.2616
     63  O         23.4490   37.4000   70.5110 O.2   503  ALA503     -0.2715
     64  CB        23.0190   36.3070   73.4260 C.3   503  ALA503      0.0334
     65  N         21.4330   36.3240   70.4910 N.am  504  ASP504     -0.1971
     66  CA        20.8700   37.2190   69.5020 C.3   504  ASP504      0.1709
     67  C         19.5050   37.6140   70.0430 C.2   504  ASP504      0.2293
     68  O         18.5890   36.8180   70.0070 O.2   504  ASP504     -0.2864
     69  CB        20.7800   36.5630   68.1060 C.3   504  ASP504      0.1436
     70  CG        19.8510   37.3130   67.1370 C.2   504  ASP504      0.3671
     71  OD1       19.3680   38.4240   67.4490 O.co2 504  ASP504     -0.2456
     72  OD2       19.5600   36.7830   66.0370 O.co2 504  ASP504     -0.2456
@<TRIPOS>BOND
     1    35    33    1
     2    34    33    1
     3     9     8    1
     4    33    32    2
     5     7     8    1
     6     7     6    1
     7    16    14    1
     8     5     6    1
     9     5     2    1
    10    32    31    1
    11    15    14    1
    12     3     2    1
    13     3     4    2
    14    14    11    1
    15     2     1    1
    16    31    30    1
    17    11    12    1
    18    11    10    1
    19    12    13    2
    20    72    70   ar
    21    30    29    1
    22    29    26    1
    23    70    71   ar
    24    70    69    1
    25    49    50    1
    26    49    46    1
    27    50    51    1
    28    69    66    1
    29    26    25    1
    30    26    27    1
    31    25    19   am
    32    46    45    1
    33    46    47    1
    34    51    45    1
    35    24    22   am
    36    27    28    2
    37    66    67    1
    38    66    65    1
    39    45    42   am
    40    39    38    2
    41    21    22    1
    42    21    18    1
    43    59    57   ar
    44    17    18    1
    45    55    54    2
    46    52    47   am
    47    52    53    1
    48    19    18    1
    49    19    20    2
    50    68    67    2
    51    47    48    2
    52    22    23    2
    53    57    56    1
    54    57    58   ar
    55    56    53    1
    56    65    62   am
    57    63    62    2
    58    42    43    2
    59    42    41    1
    60    53    54    1
    61    36    37    1
    62    54    60   am
    63    38    37    1
    64    38    40   am
    65    62    61    1
    66    41    40    1
    67    41    44    1
    68    60    61    1
    69    61    64    1
