@<TRIPOS>MOLECULE
tmp/5xzrA00.pdb
 164 156 0 0 0
SMALL
GASTEIGER

@<TRIPOS>ATOM
      1  N        -11.8310   73.2590   15.5770 N.3   108  THR108     -0.1218
      2  CA       -12.0540   72.5610   16.8380 C.3   108  THR108      0.1862
      3  C        -13.1280   73.2040   17.7070 C.2   108  THR108      0.2287
      4  O        -13.5690   72.5750   18.6740 O.2   108  THR108     -0.2866
      5  CB       -10.7460   72.4720   17.6280 C.3   108  THR108      0.1770
      6  OG1      -10.0750   73.7380   17.5910 O.3   108  THR108     -0.2211
      7  CG2       -9.8410   71.3970   17.0420 C.3   108  THR108      0.0375
      8  N        -16.1560   73.9730   16.6090 N.3   110  GLU110     -0.1231
      9  CA       -17.3970   73.7720   15.8760 C.3   110  GLU110      0.1699
     10  C        -18.0710   72.4920   16.3460 C.2   110  GLU110      0.2592
     11  O        -17.4040   71.4850   16.6030 O.2   110  GLU110     -0.2718
     12  CB       -17.1370   73.7120   14.3690 C.3   110  GLU110      0.0402
     13  CG       -16.4760   74.9630   13.8100 C.3   110  GLU110      0.1161
     14  CD       -17.3970   76.1690   13.8260 C.2   110  GLU110      0.3649
     15  OE1      -18.6310   75.9780   13.8210 O.co2 110  GLU110     -0.2457
     16  OE2      -16.8850   77.3080   13.8440 O.co2 110  GLU110     -0.2457
     17  N        -19.4010   72.5360   16.4530 N.am  111  ARG111     -0.1980
     18  CA       -20.1410   71.3970   16.9840 C.3   111  ARG111      0.1597
     19  C        -20.0360   70.1740   16.0830 C.2   111  ARG111      0.2287
     20  O        -20.0750   69.0410   16.5760 O.2   111  ARG111     -0.2864
     21  CB       -21.6080   71.7720   17.1870 C.3   111  ARG111      0.0334
     22  CG       -21.8470   72.8410   18.2380 C.3   111  ARG111      0.0492
     23  CD       -23.3140   73.2230   18.2730 C.3   111  ARG111      0.2205
     24  NE       -24.1680   72.0540   18.4670 N.pl3 111  ARG111     -0.0865
     25  CZ       -25.4540   72.0050   18.1360 C.cat 111  ARG111      0.5346
     26  NH1      -26.0380   73.0600   17.5820 N.pl3 111  ARG111      0.1354
     27  NH2      -26.1550   70.8990   18.3500 N.pl3 111  ARG111      0.1354
     28  N        -17.4580   69.2900   14.1590 N.3   113  PHE113     -0.1227
     29  CA       -16.1290   68.6980   14.1340 C.3   113  PHE113      0.1736
     30  C        -16.0180   67.6160   15.2030 C.2   113  PHE113      0.2595
     31  O        -16.6730   67.6720   16.2460 O.2   113  PHE113     -0.2718
     32  CB       -15.0650   69.7740   14.3490 C.3   113  PHE113      0.0547
     33  CG       -13.6570   69.2760   14.1990 C.ar  113  PHE113     -0.0202
     34  CD1      -13.1470   68.9690   12.9490 C.ar  113  PHE113     -0.0042
     35  CD2      -12.8390   69.1300   15.3070 C.ar  113  PHE113     -0.0042
     36  CE1      -11.8510   68.5150   12.8060 C.ar  113  PHE113     -0.0003
     37  CE2      -11.5420   68.6780   15.1710 C.ar  113  PHE113     -0.0003
     38  CZ       -11.0470   68.3690   13.9190 C.ar  113  PHE113     -0.0000
     39  N        -15.1810   66.6150   14.9320 N.am  114  HIS114     -0.1975
     40  CA       -15.0650   65.4660   15.8180 C.3   114  HIS114      0.1656
     41  C        -13.6320   65.0340   16.0930 C.2   114  HIS114      0.2291
     42  O        -13.4250   64.1520   16.9340 O.2   114  HIS114     -0.2864
     43  CB       -15.8470   64.2730   15.2480 C.3   114  HIS114      0.0771
     44  CG       -17.2810   64.2350   15.6700 C.ar  114  HIS114      0.0820
     45  ND1      -17.7850   63.2540   16.4950 N.ar  114  HIS114     -0.2267
     46  CD2      -18.3160   65.0630   15.3920 C.ar  114  HIS114      0.1154
     47  CE1      -19.0710   63.4740   16.7020 C.ar  114  HIS114      0.1986
     48  NE2      -19.4180   64.5660   16.0440 N.ar  114  HIS114     -0.2212
     49  N        -24.1740   66.6980   15.1410 N.3   216  LEU216     -0.1231
     50  CA       -24.5030   65.5610   15.9910 C.3   216  LEU216      0.1693
     51  C        -24.7970   66.0450   17.4060 C.2   216  LEU216      0.2592
     52  O        -25.1520   67.2110   17.6050 O.2   216  LEU216     -0.2718
     53  CB       -23.3640   64.5380   15.9790 C.3   216  LEU216      0.0284
     54  CG       -23.7530   63.0680   16.1510 C.3   216  LEU216      0.0019
     55  CD1      -24.8860   62.7060   15.2080 C.3   216  LEU216      0.0001
     56  CD2      -22.5510   62.1700   15.9180 C.3   216  LEU216      0.0001
     57  N        -24.6560   65.1670   18.4000 N.am  217  ASN217     -0.1960
     58  CA       -24.9350   65.5620   19.7810 C.3   217  ASN217      0.1819
     59  C        -24.1280   64.6480   20.7090 C.2   217  ASN217      0.2622
     60  O        -24.6360   63.6350   21.1900 O.2   217  ASN217     -0.2715
     61  CB       -26.4150   65.5020   20.0930 C.3   217  ASN217      0.1195
     62  CG       -26.7480   66.1210   21.4330 C.2   217  ASN217      0.2630
     63  OD1      -26.6130   65.4820   22.4750 O.2   217  ASN217     -0.2716
     64  ND2      -27.1830   67.3750   21.4150 N.am  217  ASN217     -0.0877
     65  N        -22.8720   65.0250   20.9450 N.am  218  THR218     -0.1937
     66  CA       -22.0420   64.3570   21.9370 C.3   218  THR218      0.2028
     67  C        -22.3700   64.7970   23.3570 C.2   218  THR218      0.2642
     68  O        -21.8540   64.2080   24.3120 O.2   218  THR218     -0.2714
     69  CB       -20.5610   64.6350   21.6510 C.3   218  THR218      0.1808
     70  OG1      -20.3550   64.7150   20.2360 O.3   218  THR218     -0.2208
     71  CG2      -19.6810   63.5270   22.2180 C.3   218  THR218      0.0379
     72  N        -23.2330   65.7970   23.5140 N.am  219  THR219     -0.1950
     73  CA       -23.3580   66.5080   24.7770 C.3   219  THR219      0.1897
     74  C        -24.3890   65.8890   25.7160 C.2   219  THR219      0.2313
     75  O        -24.1010   65.6800   26.8990 O.2   219  THR219     -0.2863
     76  CB       -23.7120   67.9700   24.5100 C.3   219  THR219      0.1794
     77  OG1      -22.8220   68.5050   23.5230 O.3   219  THR219     -0.2208
     78  CG2      -23.5620   68.7540   25.7700 C.3   219  THR219      0.0378
     79  N        -18.4470   60.9730   32.3630 N.3   229  ARG229     -0.1245
     80  CA       -18.2610   62.0510   31.3950 C.3   229  ARG229      0.1563
     81  C        -17.2940   63.1100   31.9140 C.2   229  ARG229      0.2260
     82  O        -16.4530   63.6080   31.1570 O.2   229  ARG229     -0.2867
     83  CB       -19.6110   62.6830   31.0490 C.3   229  ARG229      0.0307
     84  CG       -19.5230   63.9390   30.1960 C.3   229  ARG229      0.0489
     85  CD       -18.8060   63.6750   28.8850 C.3   229  ARG229      0.2205
     86  NE       -18.8460   64.8370   28.0020 N.pl3 229  ARG229     -0.0865
     87  CZ       -19.7260   64.9970   27.0190 C.cat 229  ARG229      0.5346
     88  NH1      -20.6380   64.0640   26.7870 N.pl3 229  ARG229      0.1354
     89  NH2      -19.6920   66.0870   26.2640 N.pl3 229  ARG229      0.1354
     90  N        -12.0870   72.3530   25.4980 N.3   246  GLU246     -0.1231
     91  CA       -12.5310   72.1670   24.1190 C.3   246  GLU246      0.1699
     92  C        -14.0470   72.2640   24.0080 C.2   246  GLU246      0.2592
     93  O        -14.5700   72.7720   23.0090 O.2   246  GLU246     -0.2718
     94  CB       -12.0470   70.8220   23.5800 C.3   246  GLU246      0.0402
     95  CG       -10.8830   70.9160   22.6080 C.3   246  GLU246      0.1161
     96  CD       -10.7190   69.6560   21.7800 C.2   246  GLU246      0.3649
     97  OE1      -11.0510   69.6830   20.5750 O.co2 246  GLU246     -0.2457
     98  OE2      -10.2700   68.6330   22.3390 O.co2 246  GLU246     -0.2457
     99  N        -14.7690   71.7760   25.0180 N.am  247  GLU247     -0.1979
    100  CA       -16.2260   71.8410   24.9800 C.3   247  GLU247      0.1602
    101  C        -16.7200   73.2610   25.2230 C.2   247  GLU247      0.2287
    102  O        -17.6600   73.7180   24.5620 O.2   247  GLU247     -0.2864
    103  CB       -16.8240   70.8830   26.0110 C.3   247  GLU247      0.0415
    104  CG       -18.3410   70.7810   25.9550 C.3   247  GLU247      0.1163
    105  CD       -18.8990   69.7810   26.9490 C.2   247  GLU247      0.3649
    106  OE1      -19.5600   70.2060   27.9190 O.co2 247  GLU247     -0.2457
    107  OE2      -18.6710   68.5680   26.7630 O.co2 247  GLU247     -0.2457
    108  N        -16.2750   75.5510   22.2750 N.3   250  THR250     -0.1203
    109  CA       -17.3290   75.2990   21.2990 C.3   250  THR250      0.1994
    110  C        -18.5990   76.0530   21.6700 C.2   250  THR250      0.2617
    111  O        -19.2870   76.5930   20.7960 O.2   250  THR250     -0.2717
    112  CB       -17.6050   73.7980   21.1960 C.3   250  THR250      0.1784
    113  OG1      -16.4010   73.1140   20.8290 O.3   250  THR250     -0.2211
    114  CG2      -18.6780   73.5210   20.1530 C.3   250  THR250      0.0376
    115  N        -18.9170   76.1070   22.9650 N.am  251  LEU251     -0.1979
    116  CA       -20.0730   76.8710   23.4220 C.3   251  LEU251      0.1596
    117  C        -19.8650   78.3670   23.2130 C.2   251  LEU251      0.2287
    118  O        -20.8150   79.0930   22.8960 O.2   251  LEU251     -0.2864
    119  CB       -20.3440   76.5640   24.8940 C.3   251  LEU251      0.0297
    120  CG       -21.3850   77.4120   25.6220 C.3   251  LEU251      0.0022
    121  CD1      -22.7860   77.1210   25.1010 C.3   251  LEU251      0.0001
    122  CD2      -21.2950   77.1630   27.1150 C.3   251  LEU251      0.0001
    123  N        -20.6330   79.7880   19.7060 N.3   254  GLN254     -0.1245
    124  CA       -22.0380   79.9310   19.3590 C.3   254  GLN254      0.1566
    125  C        -22.6690   81.1700   19.9800 C.2   254  GLN254      0.2260
    126  O        -23.8890   81.3360   19.8970 O.2   254  GLN254     -0.2867
    127  CB       -22.8190   78.6870   19.7900 C.3   254  GLN254      0.0367
    128  CG       -23.2520   77.7830   18.6530 C.3   254  GLN254      0.0905
    129  CD       -22.0950   77.0470   18.0070 C.2   254  GLN254      0.2608
    130  OE1      -21.1070   76.7170   18.6620 O.2   254  GLN254     -0.2717
    131  NE2      -22.2150   76.7840   16.7110 N.am  254  GLN254     -0.0878
    132  N        -28.0330   68.1450   29.7050 N.3   474  ASP474     -0.1239
    133  CA       -27.2300   68.7040   28.6160 C.3   474  ASP474      0.1674
    134  C        -26.7950   70.0980   29.0600 C.2   474  ASP474      0.2266
    135  O        -27.5960   71.0370   29.0370 O.2   474  ASP474     -0.2867
    136  CB       -28.0300   68.7410   27.3180 C.3   474  ASP474      0.1410
    137  CG       -27.1690   69.0110   26.1000 C.2   474  ASP474      0.3668
    138  OD1      -26.3550   69.9550   26.1400 O.co2 474  ASP474     -0.2456
    139  OD2      -27.3110   68.2750   25.1000 O.co2 474  ASP474     -0.2456
    140  N        -24.0490   72.4020   28.0420 N.3   476  PRO476     -0.2102
    141  CA       -23.9600   73.4730   27.0310 C.3   476  PRO476      0.1504
    142  C        -25.3010   73.9130   26.4690 C.2   476  PRO476      0.2575
    143  O        -25.5200   75.1180   26.2970 O.2   476  PRO476     -0.2718
    144  CB       -23.0730   72.8490   25.9490 C.3   476  PRO476      0.0282
    145  CG       -22.1800   71.9620   26.6990 C.3   476  PRO476      0.0208
    146  CD       -23.0190   71.3740   27.8030 C.3   476  PRO476      0.0893
    147  N        -26.2070   72.9760   26.1710 N.am  477  LYS477     -0.1980
    148  CA       -27.5400   73.3770   25.7350 C.3   477  LYS477      0.1596
    149  C        -28.2670   74.1430   26.8290 C.2   477  LYS477      0.2287
    150  O        -29.0520   75.0500   26.5350 O.2   477  LYS477     -0.2864
    151  CB       -28.3570   72.1560   25.3090 C.3   477  LYS477      0.0298
    152  CG       -29.7170   72.4970   24.7210 C.3   477  LYS477      0.0038
    153  CD       -30.4390   71.2570   24.2200 C.3   477  LYS477      0.0206
    154  CE       -31.7300   71.6280   23.5080 C.3   477  LYS477      0.1093
    155  NZ       -32.3930   70.4410   22.8970 N.3   477  LYS477     -0.1314
    156  N        -26.4440   77.6100   26.8320 N.3   480  GLN480     -0.1245
    157  CA       -26.8470   78.3580   25.6450 C.3   480  GLN480      0.1566
    158  C        -28.2990   78.8060   25.7360 C.2   480  GLN480      0.2260
    159  O        -28.6440   79.9120   25.3020 O.2   480  GLN480     -0.2867
    160  CB       -26.6240   77.5030   24.3950 C.3   480  GLN480      0.0367
    161  CG       -27.1850   78.0870   23.1070 C.3   480  GLN480      0.0905
    162  CD       -26.3220   79.1940   22.5340 C.2   480  GLN480      0.2608
    163  OE1      -25.2920   79.5580   23.1050 O.2   480  GLN480     -0.2717
    164  NE2      -26.7380   79.7350   21.3930 N.am  480  GLN480     -0.0878
@<TRIPOS>BOND
     1    36    34   ar
     2    36    38   ar
     3    34    33   ar
     4    13    14    1
     5    13    12    1
     6    15    14   ar
     7    14    16   ar
     8    38    37   ar
     9    29    28    1
    10    29    32    1
    11    29    30    1
    12    33    32    1
    13    33    35   ar
    14    12     9    1
    15    39    30   am
    16    39    40    1
    17    49    50    1
    18    37    35   ar
    19    30    31    2
    20    55    54    1
    21    43    44    1
    22    43    40    1
    23    46    44   ar
    24    46    48   ar
    25     1     2    1
    26    44    45   ar
    27    40    41    1
    28     9    10    1
    29     9     8    1
    30    56    54    1
    31    53    50    1
    32    53    54    1
    33    50    51    1
    34    48    47   ar
    35    19    20    2
    36    19    18    1
    37    41    42    2
    38    10    17   am
    39    10    11    2
    40    17    18    1
    41    45    47   ar
    42   131   129   am
    43     2     5    1
    44     2     3    1
    45    18    21    1
    46     7     5    1
    47    21    22    1
    48    51    52    2
    49    51    57   am
    50    26    25    1
    51     6     5    1
    52     3     4    2
    53   129   128    1
    54   129   130    2
    55    25    27    1
    56    25    24    2
    57    22    23    1
    58    23    24    1
    59    57    58    1
    60   128   127    1
    61   124   123    1
    62   124   127    1
    63   124   125    1
    64    58    61    1
    65    58    59    1
    66   126   125    2
    67    61    62    1
    68   114   112    1
    69    70    69    1
    70    97    96   ar
    71    59    65   am
    72    59    60    2
    73   111   110    2
    74   113   112    1
    75    65    66    1
    76   112   109    1
    77   109   110    1
    78   109   108    1
    79   164   162   am
    80    64    62   am
    81    62    63    2
    82    69    66    1
    83    69    71    1
    84   110   115   am
    85    96    98   ar
    86    96    95    1
    87    66    67    1
    88   162   163    2
    89   162   161    1
    90    95    94    1
    91   118   117    2
    92   155   154    1
    93   115   116    1
    94    93    92    2
    95   161   160    1
    96   117   116    1
    97    67    72   am
    98    67    68    2
    99   116   119    1
   100   154   153    1
   101    72    73    1
   102    77    76    1
   103    94    91    1
   104    92    91    1
   105    92    99   am
   106    91    90    1
   107   153   152    1
   108   160   157    1
   109    76    73    1
   110    76    78    1
   111   102   101    2
   112   152   151    1
   113    73    74    1
   114   119   120    1
   115   100    99    1
   116   100   101    1
   117   100   103    1
   118   139   137   ar
   119   121   120    1
   120   159   158    2
   121   151   148    1
   122   120   122    1
   123   157   158    1
   124   157   156    1
   125    74    75    2
   126   148   147    1
   127   148   149    1
   128   144   145    1
   129   144   141    1
   130   104   103    1
   131   104   105    1
   132   137   138   ar
   133   137   136    1
   134   147   142   am
   135    89    87    1
   136   143   142    2
   137   142   141    1
   138   150   149    2
   139   145   146    1
   140   107   105   ar
   141    88    87    1
   142   105   106   ar
   143    87    86    2
   144   141   140    1
   145   136   133    1
   146   146   140    1
   147    86    85    1
   148   133   134    1
   149   133   132    1
   150    85    84    1
   151   135   134    2
   152    84    83    1
   153    83    80    1
   154    82    81    2
   155    80    81    1
   156    80    79    1
