@<TRIPOS>MOLECULE
tmp/5xzuA03.pdb
 175 170 0 0 0
SMALL
GASTEIGER

@<TRIPOS>ATOM
      1  N          4.6030   10.0770   11.8570 N.3    20  ASP20      -0.1239
      2  CA         3.2040   10.4140   11.7620 C.3    20  ASP20       0.1674
      3  C          2.3960    9.4440   12.6110 C.2    20  ASP20       0.2266
      4  O          1.6240    8.6210   12.0830 O.2    20  ASP20      -0.2867
      5  CB         2.7770   10.3650   10.2990 C.3    20  ASP20       0.1410
      6  CG         1.4870   11.1090   10.0480 C.2    20  ASP20       0.3668
      7  OD1        1.0060   11.8600   10.9390 O.co2  20  ASP20      -0.2456
      8  OD2        1.0830   11.1020    8.8830 O.co2  20  ASP20      -0.2456
      9  N          4.7460   14.3430   13.6480 N.3    47  ALA47      -0.1231
     10  CA         4.5570   15.0040   12.3640 C.3    47  ALA47       0.1694
     11  C          3.3110   15.8770   12.3490 C.2    47  ALA47       0.2592
     12  O          3.2510   16.8420   11.5950 O.2    47  ALA47      -0.2718
     13  CB         4.4900   13.9880   11.2310 C.3    47  ALA47       0.0304
     14  N          2.2840   15.4800   13.1110 N.am   48  ASN48      -0.1974
     15  CA         0.9890   16.1520   13.0370 C.3    48  ASN48       0.1688
     16  C          0.2240   16.3330   14.3410 C.2    48  ASN48       0.2292
     17  O         -0.4490   17.3400   14.5010 O.2    48  ASN48      -0.2864
     18  CB         0.0670   15.4020   12.1000 C.3    48  ASN48       0.1181
     19  CG         0.3730   15.6850   10.6490 C.2    48  ASN48       0.2629
     20  OD1        0.3940   16.8380   10.2080 O.2    48  ASN48      -0.2716
     21  ND2        0.7770   14.6440    9.9500 N.am   48  ASN48      -0.0877
     22  N         -0.1800   19.5980   16.4420 N.3    51  LYS51      -0.1245
     23  CA        -0.5750   20.8330   15.7680 C.3    51  LYS51       0.1561
     24  C         -1.9330   21.3340   16.2350 C.2    51  LYS51       0.2260
     25  O         -2.6400   20.6790   17.0020 O.2    51  LYS51      -0.2867
     26  CB        -0.5430   20.6580   14.2590 C.3    51  LYS51       0.0271
     27  CG         0.8900   20.4270   13.7860 C.3    51  LYS51       0.0035
     28  CD         0.9330   20.0460   12.3130 C.3    51  LYS51       0.0206
     29  CE         2.3580   19.9510   11.8170 C.3    51  LYS51       0.1093
     30  NZ         2.3750   19.3420   10.4520 N.3    51  LYS51      -0.1314
     31  N          6.0990   19.9370   18.5030 N.3    84  HIS84      -0.1241
     32  CA         5.8830   20.6920   17.2640 C.3    84  HIS84       0.1621
     33  C          4.3990   20.7280   16.9320 C.2    84  HIS84       0.2264
     34  O          3.8150   19.6640   16.7950 O.2    84  HIS84      -0.2867
     35  CB         6.6660   19.9690   16.1650 C.3    84  HIS84       0.0745
     36  CG         6.4920   20.5480   14.8000 C.ar   84  HIS84       0.0817
     37  ND1        7.2880   21.5640   14.3230 N.ar   84  HIS84      -0.2268
     38  CD2        5.6450   20.2340   13.7990 C.ar   84  HIS84       0.1154
     39  CE1        6.9400   21.8510   13.0840 C.ar   84  HIS84       0.1986
     40  NE2        5.9010   21.1030   12.7630 N.ar   84  HIS84      -0.2212
     41  N          1.3580   28.5360   13.9030 N.3    88  TRP88      -0.1241
     42  CA         1.7200   28.3280   12.4900 C.3    88  TRP88       0.1605
     43  C          0.5080   28.7400   11.6460 C.2    88  TRP88       0.2264
     44  O         -0.6320   28.7450   12.1410 O.2    88  TRP88      -0.2867
     45  CB         1.9910   26.8440   12.2730 C.3    88  TRP88       0.0550
     46  CG         2.4450   26.4080   10.9100 C.ar   88  TRP88       0.0003
     47  CD1        3.3200   27.0580   10.0820 C.ar   88  TRP88       0.0946
     48  CD2        2.2770   25.0970   10.3480 C.ar   88  TRP88       0.0152
     49  NE1        3.6130   26.2790    8.9850 N.ar   88  TRP88      -0.2442
     50  CE2        2.9990   25.0650    9.1310 C.ar   88  TRP88       0.0810
     51  CE3        1.5170   23.9790   10.7130 C.ar   88  TRP88       0.0012
     52  CZ2        3.0100   23.9610    8.2980 C.ar   88  TRP88       0.0191
     53  CZ3        1.5370   22.8670    9.8660 C.ar   88  TRP88       0.0001
     54  CH2        2.2730   22.8750    8.6770 C.ar   88  TRP88       0.0015
     55  N         -2.7350   24.0230    9.0180 N.3    91  GLU91      -0.1245
     56  CA        -3.4270   23.0500    9.8900 C.3    91  GLU91       0.1567
     57  C         -4.1290   23.6830   11.0830 C.2    91  GLU91       0.2260
     58  O         -3.9670   23.2770   12.2680 O.2    91  GLU91      -0.2867
     59  CB        -2.4680   21.9190   10.3160 C.3    91  GLU91       0.0388
     60  CG        -2.1720   20.9670    9.1640 C.3    91  GLU91       0.1160
     61  CD        -1.1540   19.8980    9.5430 C.2    91  GLU91       0.3649
     62  OE1       -1.5160   18.9180   10.2410 O.co2  91  GLU91      -0.2457
     63  OE2       -0.0040   20.0150    9.1050 O.co2  91  GLU91      -0.2457
     64  N          6.2660   28.6940   14.0690 N.3   134  ASN134     -0.1225
     65  CA         6.7230   27.9460   12.8840 C.3   134  ASN134      0.1785
     66  C          6.4570   28.8310   11.6710 C.2   134  ASN134      0.2597
     67  O          5.3190   29.2390   11.4260 O.2   134  ASN134     -0.2718
     68  CB         5.9330   26.6810   12.7370 C.3   134  ASN134      0.1169
     69  CG         6.6710   25.6230   11.9620 C.2   134  ASN134      0.2627
     70  OD1        7.7420   25.2250   12.3780 O.2   134  ASN134     -0.2716
     71  ND2        5.9950   24.9990   11.0030 N.am  134  ASN134     -0.0877
     72  N          7.5210   29.1790   10.9640 N.am  135  GLU135     -0.1979
     73  CA         7.4020   29.7250    9.6160 C.3   135  GLU135      0.1602
     74  C          6.6620   31.0570    9.6100 C.2   135  GLU135      0.2287
     75  O          5.7240   31.2610    8.8370 O.2   135  GLU135     -0.2864
     76  CB         6.7920   28.7130    8.6300 C.3   135  GLU135      0.0415
     77  CG         7.5880   27.3950    8.5530 C.3   135  GLU135      0.1163
     78  CD         6.9410   26.2990    7.7250 C.2   135  GLU135      0.3649
     79  OE1        5.8220   26.5010    7.2110 O.co2 135  GLU135     -0.2457
     80  OE2        7.4940   25.1630    7.6960 O.co2 135  GLU135     -0.2457
     81  N         11.9900   27.2550    7.2750 N.3   184  TYR184     -0.1241
     82  CA        12.6860   26.7550    6.0790 C.3   184  TYR184      0.1605
     83  C         13.2040   27.9040    5.2220 C.2   184  TYR184      0.2264
     84  O         12.7960   29.0550    5.3790 O.2   184  TYR184     -0.2867
     85  CB        11.8040   25.8280    5.2320 C.3   184  TYR184      0.0534
     86  CG        10.6670   26.5400    4.5520 C.ar  184  TYR184     -0.0201
     87  CD1       10.8580   27.1670    3.3190 C.ar  184  TYR184     -0.0009
     88  CD2        9.4800   26.7780    5.2320 C.ar  184  TYR184     -0.0009
     89  CE1        9.8750   27.9760    2.7590 C.ar  184  TYR184      0.0417
     90  CE2        8.4670   27.5590    4.6770 C.ar  184  TYR184      0.0417
     91  CZ         8.6760   28.1570    3.4380 C.ar  184  TYR184      0.1957
     92  OH         7.7080   28.9640    2.9100 O.3   184  TYR184     -0.2866
     93  N         14.8440   23.8090    9.0400 N.3   216  GLU216     -0.1245
     94  CA        14.0520   22.6740    8.5950 C.3   216  GLU216      0.1567
     95  C         14.8050   21.7290    7.6720 C.2   216  GLU216      0.2260
     96  O         14.7640   20.5060    7.8500 O.2   216  GLU216     -0.2867
     97  CB        12.7380   23.1230    7.9550 C.3   216  GLU216      0.0388
     98  CG        11.6890   23.5950    8.9580 C.3   216  GLU216      0.1160
     99  CD        10.4060   24.0290    8.2830 C.2   216  GLU216      0.3649
    100  OE1       10.1410   23.5530    7.1590 O.co2 216  GLU216     -0.2457
    101  OE2        9.6300   24.8020    8.9000 O.co2 216  GLU216     -0.2457
    102  N         14.3810   21.0110    4.4160 N.3   218  HIS218     -0.1241
    103  CA        13.6920   20.3310    3.3160 C.3   218  HIS218      0.1621
    104  C         14.3520   20.6960    1.9990 C.2   218  HIS218      0.2264
    105  O         14.0480   21.7210    1.4110 O.2   218  HIS218     -0.2867
    106  CB        12.1970   20.7160    3.2640 C.3   218  HIS218      0.0745
    107  CG        11.3960   20.1620    4.3980 C.ar  218  HIS218      0.0817
    108  ND1       11.2750   18.8040    4.6330 N.ar  218  HIS218     -0.2268
    109  CD2       10.7180   20.7830    5.3970 C.ar  218  HIS218      0.1154
    110  CE1       10.5280   18.6140    5.7110 C.ar  218  HIS218      0.1986
    111  NE2       10.1730   19.7980    6.1870 N.ar  218  HIS218     -0.2212
    112  N         13.9770   19.0330   10.1300 N.3   248  GLU248     -0.1245
    113  CA        13.0660   18.3350    9.2320 C.3   248  GLU248      0.1567
    114  C         13.7390   17.8220    7.9730 C.2   248  GLU248      0.2260
    115  O         13.2320   17.9840    6.8790 O.2   248  GLU248     -0.2867
    116  CB        11.8550   19.2310    8.8710 C.3   248  GLU248      0.0388
    117  CG        11.1980   19.8950   10.0750 C.3   248  GLU248      0.1160
    118  CD         9.8580   20.5420    9.7930 C.2   248  GLU248      0.3649
    119  OE1        9.3030   20.3330    8.6830 O.co2 248  GLU248     -0.2457
    120  OE2        9.3720   21.3090   10.6870 O.co2 248  GLU248     -0.2457
    121  N         12.7540   14.2430    8.4650 N.3   288  TRP288     -0.1227
    122  CA        11.2890   14.3370    8.4220 C.3   288  TRP288      0.1737
    123  C         10.6920   13.0110    7.9540 C.2   288  TRP288      0.2595
    124  O         10.0720   12.9070    6.8940 O.2   288  TRP288     -0.2718
    125  CB        10.8090   15.5190    7.6000 C.3   288  TRP288      0.0564
    126  CG         9.4410   15.9580    8.0240 C.ar  288  TRP288      0.0003
    127  CD1        8.2740   15.8610    7.3030 C.ar  288  TRP288      0.0946
    128  CD2        9.0830   16.4810    9.3000 C.ar  288  TRP288      0.0152
    129  NE1        7.2310   16.3500    8.0470 N.ar  288  TRP288     -0.2442
    130  CE2        7.6870   16.6820    9.2970 C.ar  288  TRP288      0.0810
    131  CE3        9.8060   16.7850   10.4580 C.ar  288  TRP288      0.0012
    132  CZ2        7.0160   17.2530   10.3830 C.ar  288  TRP288      0.0191
    133  CZ3        9.1310   17.3610   11.5240 C.ar  288  TRP288      0.0001
    134  CH2        7.7390   17.4740   11.5160 C.ar  288  TRP288      0.0015
    135  N         10.8000   12.0480    8.8730 N.am  289  ASP289     -0.1974
    136  CA        10.5100   10.6390    8.6450 C.3   289  ASP289      0.1709
    137  C         11.6010    9.9730    7.8270 C.2   289  ASP289      0.2293
    138  O         12.4270   10.6440    7.2230 O.2   289  ASP289     -0.2864
    139  CB         9.1130   10.4060    8.0510 C.3   289  ASP289      0.1436
    140  CG         8.3750    9.2650    8.7680 C.2   289  ASP289      0.3671
    141  OD1        9.0620    8.2710    9.1490 O.co2 289  ASP289     -0.2456
    142  OD2        7.1420    9.3760    9.0230 O.co2 289  ASP289     -0.2456
    143  N          5.9470    6.5810    3.7890 N.3   294  TYR294     -0.1241
    144  CA         5.1530    7.4420    4.6200 C.3   294  TYR294      0.1605
    145  C          5.5880    8.9010    4.5410 C.2   294  TYR294      0.2264
    146  O          4.9630    9.7670    5.1540 O.2   294  TYR294     -0.2867
    147  CB         5.1690    6.9690    6.0540 C.3   294  TYR294      0.0534
    148  CG         4.7530    5.5380    6.2130 C.ar  294  TYR294     -0.0201
    149  CD1        3.4090    5.1650    6.0470 C.ar  294  TYR294     -0.0009
    150  CD2        5.6670    4.5580    6.5340 C.ar  294  TYR294     -0.0009
    151  CE1        3.0150    3.8590    6.2000 C.ar  294  TYR294      0.0417
    152  CE2        5.2850    3.2220    6.6320 C.ar  294  TYR294      0.0417
    153  CZ         3.9550    2.8850    6.4530 C.ar  294  TYR294      0.1957
    154  OH         3.5430    1.5850    6.6030 O.3   294  TYR294     -0.2866
    155  N          5.9360   12.6800    3.4750 N.3   296  TRP296     -0.1241
    156  CA         5.0690   13.7350    2.9690 C.3   296  TRP296      0.1605
    157  C          5.3720   14.1950    1.5640 C.2   296  TRP296      0.2264
    158  O          4.6140   14.9590    0.9870 O.2   296  TRP296     -0.2867
    159  CB         5.1050   14.9320    3.9050 C.3   296  TRP296      0.0550
    160  CG         6.2850   15.8070    3.7660 C.ar  296  TRP296      0.0003
    161  CD1        7.6020   15.4200    3.7960 C.ar  296  TRP296      0.0946
    162  CD2        6.2850   17.2150    3.5980 C.ar  296  TRP296      0.0152
    163  NE1        8.4270   16.5280    3.7540 N.ar  296  TRP296     -0.2442
    164  CE2        7.6400   17.6410    3.5940 C.ar  296  TRP296      0.0810
    165  CE3        5.2840   18.1740    3.4740 C.ar  296  TRP296      0.0012
    166  CZ2        7.9970   18.9540    3.4070 C.ar  296  TRP296      0.0191
    167  CZ3        5.6490   19.4740    3.2220 C.ar  296  TRP296      0.0001
    168  CH2        6.9930   19.8610    3.2270 C.ar  296  TRP296      0.0015
    169  N          3.1620   16.4790   -1.9410 N.3   300  THR300     -0.1218
    170  CA         3.2870   17.9010   -1.7390 C.3   300  THR300      0.1862
    171  C          4.1140   18.5300   -2.8640 C.2   300  THR300      0.2287
    172  O          3.9040   19.6850   -3.2360 O.2   300  THR300     -0.2866
    173  CB         3.8770   18.1430   -0.3370 C.3   300  THR300      0.1770
    174  OG1        3.1440   17.3550    0.6280 O.3   300  THR300     -0.2211
    175  CG2        3.8080   19.5960    0.0440 C.3   300  THR300      0.0375
@<TRIPOS>BOND
     1   172   171    2
     2   171   170    1
     3   169   170    1
     4   170   173    1
     5   173   175    1
     6   173   174    1
     7   158   157    2
     8   105   104    2
     9   157   156    1
    10   104   103    1
    11    89    87   ar
    12    89    91   ar
    13    92    91    1
    14   156   155    1
    15   156   159    1
    16   167   168   ar
    17   167   165   ar
    18   168   166   ar
    19   106   103    1
    20   106   107    1
    21   103   102    1
    22    87    86   ar
    23   166   164   ar
    24    91    90   ar
    25   165   162   ar
    26   164   162   ar
    27   164   163   ar
    28   162   160   ar
    29   163   161   ar
    30   160   161   ar
    31   160   159    1
    32   143   144    1
    33   107   108   ar
    34   107   109   ar
    35   145   144    1
    36   145   146    2
    37    86    88   ar
    38    86    85    1
    39   144   147    1
    40   108   110   ar
    41    90    88   ar
    42    83    84    2
    43    83    82    1
    44    85    82    1
    45   109   111   ar
    46   110   111   ar
    47   149   151   ar
    48   149   148   ar
    49   147   148    1
    50    82    81    1
    51   151   153   ar
    52   148   150   ar
    53   153   154    1
    54   153   152   ar
    55   150   152   ar
    56   115   114    2
    57   124   123    2
    58   100    99   ar
    59    79    78   ar
    60   138   137    2
    61   127   126   ar
    62   127   129   ar
    63   125   126    1
    64   125   122    1
    65    95    96    2
    66    95    94    1
    67    80    78   ar
    68    78    77    1
    69   137   136    1
    70   123   122    1
    71   123   135   am
    72    97    94    1
    73    97    98    1
    74   114   113    1
    75   126   128   ar
    76   129   130   ar
    77   139   136    1
    78   139   140    1
    79    99   101   ar
    80    99    98    1
    81    52    54   ar
    82    52    50   ar
    83   122   121    1
    84    77    76    1
    85    94    93    1
    86    76    73    1
    87   136   135    1
    88    54    53   ar
    89   119   118   ar
    90   140   142   ar
    91   140   141   ar
    92    75    74    2
    93   116   113    1
    94   116   117    1
    95     8     6   ar
    96    49    50   ar
    97    49    47   ar
    98    55    56    1
    99    63    61   ar
   100    50    48   ar
   101    60    61    1
   102    60    59    1
   103   113   112    1
   104   130   128   ar
   105   130   132   ar
   106   128   131   ar
   107    61    62   ar
   108    74    73    1
   109    73    72    1
   110   118   117    1
   111   118   120   ar
   112    53    51   ar
   113    56    59    1
   114    56    57    1
   115    21    19   am
   116     6     5    1
   117     6     7   ar
   118    47    46   ar
   119    20    19    2
   120     5     2    1
   121    48    51   ar
   122    48    46   ar
   123   132   134   ar
   124    30    29    1
   125   131   133   ar
   126    19    18    1
   127    46    45    1
   128    72    66   am
   129    71    69   am
   130    57    58    2
   131    13    10    1
   132    67    66    2
   133   134   133   ar
   134    12    11    2
   135    43    44    2
   136    43    42    1
   137    66    65    1
   138     2     1    1
   139     2     3    1
   140    29    28    1
   141    69    70    2
   142    69    68    1
   143     4     3    2
   144    18    15    1
   145    45    42    1
   146    28    27    1
   147    11    10    1
   148    11    14   am
   149    10     9    1
   150    42    41    1
   151    68    65    1
   152    40    39   ar
   153    40    38   ar
   154    65    64    1
   155    15    14    1
   156    15    16    1
   157    39    37   ar
   158    27    26    1
   159    38    36   ar
   160    26    23    1
   161    37    36   ar
   162    16    17    2
   163    36    35    1
   164    23    24    1
   165    23    22    1
   166    35    32    1
   167    24    25    2
   168    34    33    2
   169    33    32    1
   170    32    31    1
