@<TRIPOS>MOLECULE
tmp/5y02D00.pdb
 120 118 0 0 0
SMALL
GASTEIGER

@<TRIPOS>ATOM
      1  N         44.1380   29.7810  -16.6420 N.3     7  HIS7       -0.1241
      2  CA        43.3910   31.0000  -16.5620 C.3     7  HIS7        0.1621
      3  C         43.3080   31.3470  -15.0860 C.2     7  HIS7        0.2264
      4  O         42.6670   30.6240  -14.3330 O.2     7  HIS7       -0.2867
      5  CB        42.0050   30.7400  -17.1520 C.3     7  HIS7        0.0745
      6  CG        41.0440   31.8740  -17.0170 C.ar    7  HIS7        0.0817
      7  ND1       41.0540   32.9630  -17.8570 N.ar    7  HIS7       -0.2268
      8  CD2       39.9730   32.0360  -16.2060 C.ar    7  HIS7        0.1154
      9  CE1       40.0590   33.7710  -17.5360 C.ar    7  HIS7        0.1986
     10  NE2       39.3870   33.2310  -16.5390 N.ar    7  HIS7       -0.2212
     11  N         42.3830   34.2270  -12.1680 N.3     9  VAL9       -0.1245
     12  CA        41.6810   35.4420  -11.8110 C.3     9  VAL9        0.1561
     13  C         41.9650   35.7660  -10.3470 C.2     9  VAL9        0.2260
     14  O         41.8150   34.9020   -9.4880 O.2     9  VAL9       -0.2867
     15  CB        40.1630   35.2320  -11.9690 C.3     9  VAL9        0.0252
     16  CG1       39.3930   36.4580  -11.4940 C.3     9  VAL9        0.0019
     17  CG2       39.8300   34.8850  -13.4150 C.3     9  VAL9        0.0019
     18  N         30.1420   30.2770  -10.3690 N.3    29  TYR29      -0.1241
     19  CA        31.3960   30.1730  -11.1400 C.3    29  TYR29       0.1605
     20  C         31.7700   28.6950  -11.2700 C.2    29  TYR29       0.2264
     21  O         31.9760   28.1830  -12.3830 O.2    29  TYR29      -0.2867
     22  CB        32.5340   30.9620  -10.4440 C.3    29  TYR29       0.0534
     23  CG        33.7780   31.3070  -11.2810 C.ar   29  TYR29      -0.0201
     24  CD1       33.9950   30.7650  -12.5610 C.ar   29  TYR29      -0.0009
     25  CD2       34.7530   32.1670  -10.7680 C.ar   29  TYR29      -0.0009
     26  CE1       35.1300   31.0750  -13.2980 C.ar   29  TYR29       0.0417
     27  CE2       35.8980   32.4820  -11.5050 C.ar   29  TYR29       0.0417
     28  CZ        36.0840   31.9290  -12.7690 C.ar   29  TYR29       0.1957
     29  OH        37.2120   32.2270  -13.5250 O.3    29  TYR29      -0.2866
     30  N         29.7190   26.5100  -13.6970 N.3    32  LEU32      -0.1245
     31  CA        30.0140   26.6100  -15.1370 C.3    32  LEU32       0.1561
     32  C         30.6860   25.3460  -15.6930 C.2    32  LEU32       0.2260
     33  O         30.3870   24.9420  -16.8130 O.2    32  LEU32      -0.2867
     34  CB        30.8790   27.8330  -15.4750 C.3    32  LEU32       0.0270
     35  CG        30.2820   29.2290  -15.3480 C.3    32  LEU32       0.0019
     36  CD1       31.3570   30.2640  -15.6500 C.3    32  LEU32       0.0001
     37  CD2       29.0900   29.4160  -16.2820 C.3    32  LEU32       0.0001
     38  N         39.5800   27.5610  -24.5520 N.3    73  PHE73      -0.1241
     39  CA        39.2760   28.7030  -23.7000 C.3    73  PHE73       0.1605
     40  C         38.3680   29.7070  -24.4000 C.2    73  PHE73       0.2264
     41  O         37.4260   30.2130  -23.7900 O.2    73  PHE73      -0.2867
     42  CB        40.5520   29.4070  -23.1800 C.3    73  PHE73       0.0534
     43  CG        40.2710   30.7490  -22.5580 C.ar   73  PHE73      -0.0203
     44  CD1       39.6470   30.8350  -21.3130 C.ar   73  PHE73      -0.0042
     45  CD2       40.5630   31.9160  -23.2260 C.ar   73  PHE73      -0.0042
     46  CE1       39.3430   32.0650  -20.7500 C.ar   73  PHE73      -0.0003
     47  CE2       40.2800   33.1500  -22.6670 C.ar   73  PHE73      -0.0003
     48  CZ        39.6570   33.2250  -21.4290 C.ar   73  PHE73      -0.0000
     49  N         34.7990   28.3280  -24.7930 N.3    76  PHE76      -0.1227
     50  CA        34.1930   28.5540  -23.4570 C.3    76  PHE76       0.1736
     51  C         33.8280   30.0160  -23.1980 C.2    76  PHE76       0.2595
     52  O         32.7070   30.3170  -22.7900 O.2    76  PHE76      -0.2718
     53  CB        35.1250   28.0670  -22.3350 C.3    76  PHE76       0.0547
     54  CG        34.7420   28.5610  -20.9640 C.ar   76  PHE76      -0.0202
     55  CD1       33.6860   27.9720  -20.2660 C.ar   76  PHE76      -0.0042
     56  CD2       35.4440   29.6100  -20.3580 C.ar   76  PHE76      -0.0042
     57  CE1       33.3280   28.4310  -18.9950 C.ar   76  PHE76      -0.0003
     58  CE2       35.0900   30.0680  -19.0980 C.ar   76  PHE76      -0.0003
     59  CZ        34.0330   29.4770  -18.4160 C.ar   76  PHE76      -0.0000
     60  N         34.7800   30.9150  -23.4280 N.am   77  PHE77      -0.1976
     61  CA        34.6140   32.3280  -23.1090 C.3    77  PHE77       0.1639
     62  C         33.4240   32.9560  -23.8100 C.2    77  PHE77       0.2290
     63  O         32.7090   33.7320  -23.1970 O.2    77  PHE77      -0.2864
     64  CB        35.8720   33.1280  -23.4630 C.3    77  PHE77       0.0560
     65  CG        35.7950   34.5730  -23.0520 C.ar   77  PHE77      -0.0200
     66  CD1       36.2160   34.9730  -21.7890 C.ar   77  PHE77      -0.0042
     67  CD2       35.2810   35.5350  -23.9240 C.ar   77  PHE77      -0.0042
     68  CE1       36.1330   36.3050  -21.3990 C.ar   77  PHE77      -0.0003
     69  CE2       35.1920   36.8690  -23.5410 C.ar   77  PHE77      -0.0003
     70  CZ        35.6120   37.2480  -22.2760 C.ar   77  PHE77      -0.0000
     71  N         28.9370   31.1890  -20.1890 N.3    82  ALA82      -0.1245
     72  CA        30.0760   31.9840  -19.7200 C.3    82  ALA82       0.1562
     73  C         29.8410   33.4800  -19.8670 C.2    82  ALA82       0.2260
     74  O         30.1360   34.2300  -18.9560 O.2    82  ALA82      -0.2867
     75  CB        31.3560   31.5800  -20.4360 C.3    82  ALA82       0.0290
     76  N         27.4180   34.5120  -17.0590 N.3    85  PHE85      -0.1227
     77  CA        28.1050   34.5910  -15.7790 C.3    85  PHE85       0.1736
     78  C         29.0340   35.8010  -15.7010 C.2    85  PHE85       0.2595
     79  O         29.0430   36.5050  -14.6850 O.2    85  PHE85      -0.2718
     80  CB        28.8620   33.3150  -15.4390 C.3    85  PHE85       0.0547
     81  CG        29.5510   33.4030  -14.1200 C.ar   85  PHE85      -0.0202
     82  CD1       28.8070   33.4290  -12.9540 C.ar   85  PHE85      -0.0042
     83  CD2       30.9220   33.5680  -14.0430 C.ar   85  PHE85      -0.0042
     84  CE1       29.4240   33.5660  -11.7290 C.ar   85  PHE85      -0.0003
     85  CE2       31.5490   33.6990  -12.8170 C.ar   85  PHE85      -0.0003
     86  CZ        30.7990   33.7030  -11.6600 C.ar   85  PHE85      -0.0000
     87  N         29.7920   36.0610  -16.7740 N.am   86  ALA86      -0.1980
     88  CA        30.6470   37.2560  -16.8630 C.3    86  ALA86       0.1597
     89  C         29.8940   38.5450  -16.5250 C.2    86  ALA86       0.2287
     90  O         30.4420   39.4410  -15.8730 O.2    86  ALA86      -0.2864
     91  CB        31.2790   37.3680  -18.2520 C.3    86  ALA86       0.0319
     92  N         29.6370   38.4630  -12.7660 N.3    89  PHE89      -0.1227
     93  CA        30.9420   38.5000  -12.0670 C.3    89  PHE89       0.1736
     94  C         31.6410   39.8540  -12.1100 C.2    89  PHE89       0.2595
     95  O         31.9710   40.3970  -11.0580 O.2    89  PHE89      -0.2718
     96  CB        31.8750   37.3980  -12.5820 C.3    89  PHE89       0.0547
     97  CG        33.1540   37.2580  -11.7830 C.ar   89  PHE89      -0.0202
     98  CD1       33.1560   36.5910  -10.5610 C.ar   89  PHE89      -0.0042
     99  CD2       34.3500   37.8010  -12.2510 C.ar   89  PHE89      -0.0042
    100  CE1       34.3270   36.4550   -9.8280 C.ar   89  PHE89      -0.0003
    101  CE2       35.5240   37.6740  -11.5210 C.ar   89  PHE89      -0.0003
    102  CZ        35.5160   37.0020  -10.3120 C.ar   89  PHE89      -0.0000
    103  N         31.8470   40.4270  -13.3000 N.am   90  PHE90      -0.1976
    104  CA        32.6330   41.6730  -13.4100 C.3    90  PHE90       0.1639
    105  C         32.0720   42.8770  -12.6410 C.2    90  PHE90       0.2290
    106  O         32.8360   43.5670  -11.9530 O.2    90  PHE90      -0.2864
    107  CB        32.9210   42.0530  -14.8780 C.3    90  PHE90       0.0560
    108  CG        33.7520   41.0390  -15.6230 C.ar   90  PHE90      -0.0200
    109  CD1       34.9890   40.6220  -15.1320 C.ar   90  PHE90      -0.0042
    110  CD2       33.3060   40.5080  -16.8370 C.ar   90  PHE90      -0.0042
    111  CE1       35.7510   39.6880  -15.8220 C.ar   90  PHE90      -0.0003
    112  CE2       34.0760   39.5780  -17.5310 C.ar   90  PHE90      -0.0003
    113  CZ        35.2930   39.1650  -17.0190 C.ar   90  PHE90      -0.0000
    114  N         43.3560   39.3240  -14.4950 N.3    98  VAL98      -0.1245
    115  CA        43.2410   38.0240  -15.1100 C.3    98  VAL98       0.1561
    116  C         44.4280   37.7990  -16.0220 C.2    98  VAL98       0.2260
    117  O         44.7460   38.6600  -16.8490 O.2    98  VAL98      -0.2867
    118  CB        41.9680   37.9010  -15.9670 C.3    98  VAL98       0.0252
    119  CG1       41.8310   36.4860  -16.4900 C.3    98  VAL98       0.0019
    120  CG2       40.7210   38.2760  -15.1710 C.3    98  VAL98       0.0019
@<TRIPOS>BOND
     1    49    50    1
     2    38    39    1
     3    40    41    2
     4    40    39    1
     5    67    69   ar
     6    67    65   ar
     7    62    63    2
     8    62    61    1
     9    39    42    1
    10    69    70   ar
    11    64    61    1
    12    64    65    1
    13    50    51    1
    14    50    53    1
    15    60    51   am
    16    60    61    1
    17    45    47   ar
    18    45    43   ar
    19    51    52    2
    20    42    43    1
    21    65    66   ar
    22    47    48   ar
    23    43    44   ar
    24    53    54    1
    25    70    68   ar
    26    66    68   ar
    27    48    46   ar
    28    44    46   ar
    29    54    56   ar
    30    54    55   ar
    31    75    72    1
    32    56    58   ar
    33    55    57   ar
    34    71    72    1
    35    73    72    1
    36    73    74    2
    37    58    59   ar
    38    57    59   ar
    39    91    88    1
    40     7     9   ar
    41     7     6   ar
    42     9    10   ar
    43   112   113   ar
    44   112   110   ar
    45     5     6    1
    46     5     2    1
    47    76    77    1
    48   113   111   ar
    49     6     8   ar
    50    88    87    1
    51    88    89    1
    52   117   116    2
    53   110   108   ar
    54    33    32    2
    55    87    78   am
    56     1     2    1
    57     2     3    1
    58    10     8   ar
    59    89    90    2
    60   119   118    1
    61    37    35    1
    62   116   115    1
    63   118   120    1
    64   118   115    1
    65   111   109   ar
    66    77    78    1
    67    77    80    1
    68    78    79    2
    69    32    31    1
    70    36    35    1
    71   108   109   ar
    72   108   107    1
    73    34    35    1
    74    34    31    1
    75    80    81    1
    76    31    30    1
    77   115   114    1
    78     3     4    2
    79   107   104    1
    80    81    83   ar
    81    81    82   ar
    82    83    85   ar
    83    29    28    1
    84    17    15    1
    85   104   103    1
    86   104   105    1
    87   103    94   am
    88    26    28   ar
    89    26    24   ar
    90    82    84   ar
    91    85    86   ar
    92    28    27   ar
    93    92    93    1
    94   105   106    2
    95    96    93    1
    96    96    97    1
    97    24    23   ar
    98    21    20    2
    99    99    97   ar
   100    99   101   ar
   101    11    12    1
   102    94    93    1
   103    94    95    2
   104    15    12    1
   105    15    16    1
   106    12    13    1
   107    97    98   ar
   108    84    86   ar
   109   101   102   ar
   110    27    25   ar
   111    23    25   ar
   112    23    22    1
   113    20    19    1
   114    19    22    1
   115    19    18    1
   116    98   100   ar
   117    13    14    2
   118   102   100   ar
