@<TRIPOS>MOLECULE
tmp/5y02L00.pdb
 109 107 0 0 0
SMALL
GASTEIGER

@<TRIPOS>ATOM
      1  N         -1.0830   -2.6520   -7.0260 N.3     6  HIS6       -0.1241
      2  CA        -2.4190   -2.0880   -7.0440 C.3     6  HIS6        0.1621
      3  C         -2.7030   -1.6460   -5.6120 C.2     6  HIS6        0.2264
      4  O         -2.8710   -2.4780   -4.7280 O.2     6  HIS6       -0.2867
      5  CB        -3.4070   -3.1630   -7.5250 C.3     6  HIS6        0.0745
      6  CG        -4.8490   -2.7630   -7.4730 C.ar    6  HIS6        0.0817
      7  ND1       -5.4240   -1.9070   -8.3890 N.ar    6  HIS6       -0.2268
      8  CD2       -5.8510   -3.1490   -6.6440 C.ar    6  HIS6        0.1154
      9  CE1       -6.7070   -1.7550   -8.1060 C.ar    6  HIS6        0.1986
     10  NE2       -6.9940   -2.5040   -7.0570 N.ar    6  HIS6       -0.2212
     11  N         -5.1300    0.6230   -3.0860 N.3     8  VAL8       -0.1245
     12  CA        -6.4130    1.2820   -2.8990 C.3     8  VAL8        0.1561
     13  C         -6.4360    1.9000   -1.5120 C.2     8  VAL8        0.2260
     14  O         -6.1650    1.2100   -0.5370 O.2     8  VAL8       -0.2867
     15  CB        -7.5560    0.2660   -2.9890 C.3     8  VAL8        0.0252
     16  CG1       -8.9030    0.9320   -2.7530 C.3     8  VAL8        0.0019
     17  CG2       -7.5290   -0.4590   -4.3350 C.3     8  VAL8        0.0019
     18  N        -13.1180   -9.4210   -0.5570 N.3    28  TYR28      -0.1241
     19  CA       -11.9670   -8.8900   -1.3170 C.3    28  TYR28       0.1605
     20  C        -10.8110   -9.9020   -1.2550 C.2    28  TYR28       0.2264
     21  O        -10.3300  -10.3610   -2.2940 O.2    28  TYR28      -0.2867
     22  CB       -11.5320   -7.5300   -0.7500 C.3    28  TYR28       0.0534
     23  CG       -10.6320   -6.6540   -1.6150 C.ar   28  TYR28      -0.0201
     24  CD1       -9.9150   -7.1640   -2.7090 C.ar   28  TYR28      -0.0009
     25  CD2      -10.4460   -5.3090   -1.2910 C.ar   28  TYR28      -0.0009
     26  CE1       -9.0900   -6.3610   -3.4650 C.ar   28  TYR28       0.0417
     27  CE2       -9.6060   -4.5010   -2.0440 C.ar   28  TYR28       0.0417
     28  CZ        -8.9290   -5.0360   -3.1270 C.ar   28  TYR28       0.1957
     29  OH        -8.0860   -4.2730   -3.9090 O.3    28  TYR28      -0.2866
     30  N        -11.0360  -13.2440   -3.2820 N.3    31  LEU31      -0.1245
     31  CA       -10.7660  -13.2260   -4.7270 C.3    31  LEU31       0.1561
     32  C         -9.4620  -13.9050   -5.1180 C.2    31  LEU31       0.2260
     33  O         -9.3690  -14.4410   -6.2150 O.2    31  LEU31      -0.2867
     34  CB       -10.7670  -11.8010   -5.2830 C.3    31  LEU31       0.0270
     35  CG       -12.1110  -11.0870   -5.2650 C.3    31  LEU31       0.0019
     36  CD1      -11.9260   -9.6380   -5.6660 C.3    31  LEU31       0.0001
     37  CD2      -13.1070  -11.7810   -6.1800 C.3    31  LEU31       0.0001
     38  N         -6.9310  -10.1540  -14.5570 N.3    75  PHE75      -0.1227
     39  CA        -7.6400  -10.1360  -13.2800 C.3    75  PHE75       0.1736
     40  C         -8.7760   -9.1320  -13.2440 C.2    75  PHE75       0.2595
     41  O         -9.8900   -9.4980  -12.8790 O.2    75  PHE75      -0.2718
     42  CB        -6.7000   -9.8730  -12.0920 C.3    75  PHE75       0.0547
     43  CG        -7.4300   -9.6480  -10.7990 C.ar   75  PHE75      -0.0202
     44  CD1       -7.9110  -10.7310  -10.0670 C.ar   75  PHE75      -0.0042
     45  CD2       -7.6690   -8.3600  -10.3240 C.ar   75  PHE75      -0.0042
     46  CE1       -8.5990  -10.5330   -8.8810 C.ar   75  PHE75      -0.0003
     47  CE2       -8.3660   -8.1580   -9.1340 C.ar   75  PHE75      -0.0003
     48  CZ        -8.8310   -9.2460   -8.4210 C.ar   75  PHE75      -0.0000
     49  N         -8.5060   -7.8750  -13.5990 N.am   76  PHE76      -0.1976
     50  CA        -9.4990   -6.8160  -13.4330 C.3    76  PHE76       0.1639
     51  C        -10.6960   -6.8920  -14.3680 C.2    76  PHE76       0.2290
     52  O        -11.7630   -6.3720  -14.0300 O.2    76  PHE76      -0.2864
     53  CB        -8.8550   -5.4210  -13.4170 C.3    76  PHE76       0.0560
     54  CG        -8.2650   -5.0920  -12.0790 C.ar   76  PHE76      -0.0200
     55  CD1       -9.1050   -4.8580  -10.9930 C.ar   76  PHE76      -0.0042
     56  CD2       -6.8890   -5.1030  -11.8720 C.ar   76  PHE76      -0.0042
     57  CE1       -8.5870   -4.6060   -9.7360 C.ar   76  PHE76      -0.0003
     58  CE2       -6.3630   -4.8500  -10.6110 C.ar   76  PHE76      -0.0003
     59  CZ        -7.2130   -4.6050   -9.5460 C.ar   76  PHE76      -0.0000
     60  N        -13.9190  -10.3740  -10.3740 N.3    81  ALA81      -0.1245
     61  CA       -13.4490   -9.0050  -10.0960 C.3    81  ALA81       0.1562
     62  C        -14.4620   -7.9370  -10.4870 C.2    81  ALA81       0.2260
     63  O        -14.6600   -6.9740   -9.7550 O.2    81  ALA81      -0.2867
     64  CB       -12.1300   -8.7410  -10.8100 C.3    81  ALA81       0.0290
     65  N        -17.1920   -8.2950   -7.7920 N.3    84  PHE84      -0.1227
     66  CA       -16.7680   -7.6710   -6.5330 C.3    84  PHE84       0.1736
     67  C        -16.7350   -6.1370   -6.6150 C.2    84  PHE84       0.2595
     68  O        -17.0850   -5.4660   -5.6440 O.2    84  PHE84      -0.2718
     69  CB       -15.4190   -8.1990   -6.0370 C.3    84  PHE84       0.0547
     70  CG       -14.9840   -7.5640   -4.7410 C.ar   84  PHE84      -0.0202
     71  CD1      -15.6690   -7.8410   -3.5620 C.ar   84  PHE84      -0.0042
     72  CD2      -13.9600   -6.6220   -4.7130 C.ar   84  PHE84      -0.0042
     73  CE1      -15.3020   -7.2290   -2.3660 C.ar   84  PHE84      -0.0003
     74  CE2      -13.5830   -6.0140   -3.5230 C.ar   84  PHE84      -0.0003
     75  CZ       -14.2570   -6.3180   -2.3500 C.ar   84  PHE84      -0.0000
     76  N        -16.3500   -5.5740   -7.7640 N.am   85  ALA85      -0.1980
     77  CA       -16.3210   -4.1060   -7.9270 C.3    85  ALA85       0.1597
     78  C        -17.6960   -3.4730   -7.6900 C.2    85  ALA85       0.2287
     79  O        -17.7910   -2.4030   -7.0910 O.2    85  ALA85      -0.2864
     80  CB       -15.8040   -3.7120   -9.3020 C.3    85  ALA85       0.0319
     81  N        -17.9390   -3.4050   -3.9880 N.3    88  PHE88      -0.1227
     82  CA       -16.9670   -2.5290   -3.3220 C.3    88  PHE88       0.1736
     83  C        -17.1780   -1.0310   -3.5460 C.2    88  PHE88       0.2595
     84  O        -17.2260   -0.2690   -2.5840 O.2    88  PHE88      -0.2718
     85  CB       -15.5330   -2.9220   -3.6880 C.3    88  PHE88       0.0547
     86  CG       -14.5030   -2.2020   -2.8870 C.ar   88  PHE88      -0.0202
     87  CD1      -14.2250   -2.5970   -1.5810 C.ar   88  PHE88      -0.0042
     88  CD2      -13.8330   -1.1040   -3.4140 C.ar   88  PHE88      -0.0042
     89  CE1      -13.2720   -1.9250   -0.8280 C.ar   88  PHE88      -0.0003
     90  CE2      -12.8860   -0.4230   -2.6590 C.ar   88  PHE88      -0.0003
     91  CZ       -12.6100   -0.8320   -1.3640 C.ar   88  PHE88      -0.0000
     92  N        -17.3140   -0.5890   -4.7930 N.am   89  PHE89      -0.1976
     93  CA       -17.3430    0.8640   -5.0540 C.3    89  PHE89       0.1639
     94  C        -18.5390    1.6270   -4.4500 C.2    89  PHE89       0.2290
     95  O        -18.3390    2.6950   -3.8690 O.2    89  PHE89      -0.2864
     96  CB       -17.1360    1.1630   -6.5440 C.3    89  PHE89       0.0560
     97  CG       -15.7450    0.8090   -7.0310 C.ar   89  PHE89      -0.0200
     98  CD1      -14.6120    1.2790   -6.3540 C.ar   89  PHE89      -0.0042
     99  CD2      -15.5590   -0.0020   -8.1430 C.ar   89  PHE89      -0.0042
    100  CE1      -13.3330    0.9500   -6.7770 C.ar   89  PHE89      -0.0003
    101  CE2      -14.2780   -0.3310   -8.5720 C.ar   89  PHE89      -0.0003
    102  CZ       -13.1660    0.1460   -7.8890 C.ar   89  PHE89      -0.0000
    103  N         -7.2140    5.0100   -6.1120 N.3    97  VAL97      -0.1245
    104  CA        -6.5340    3.8130   -6.5790 C.3    97  VAL97       0.1561
    105  C         -5.3770    4.2290   -7.4690 C.2    97  VAL97       0.2260
    106  O         -5.5580    5.0180   -8.4020 O.2    97  VAL97      -0.2867
    107  CB        -7.4670    2.8990   -7.4010 C.3    97  VAL97       0.0252
    108  CG1       -6.7320    1.6350   -7.8250 C.3    97  VAL97       0.0019
    109  CG2       -8.7110    2.5330   -6.6030 C.3    97  VAL97       0.0019
@<TRIPOS>BOND
     1    38    39    1
     2    51    52    2
     3    51    50    1
     4    49    50    1
     5    49    40   am
     6    50    53    1
     7    53    54    1
     8    39    40    1
     9    39    42    1
    10    40    41    2
    11    42    43    1
    12    54    56   ar
    13    54    55   ar
    14    56    58   ar
    15    55    57   ar
    16    64    61    1
    17    43    45   ar
    18    43    44   ar
    19    58    59   ar
    20    62    61    1
    21    62    63    2
    22    60    61    1
    23    45    47   ar
    24    44    46   ar
    25    57    59   ar
    26    80    77    1
    27    47    48   ar
    28    46    48   ar
    29   101    99   ar
    30   101   102   ar
    31   106   105    2
    32     7     9   ar
    33     7     6   ar
    34    99    97   ar
    35     9    10   ar
    36    77    76    1
    37    77    78    1
    38   102   100   ar
    39   108   107    1
    40    65    66    1
    41    76    67   am
    42    78    79    2
    43     5     6    1
    44     5     2    1
    45     6     8   ar
    46   105   104    1
    47   107   109    1
    48   107   104    1
    49    10     8   ar
    50     2     1    1
    51     2     3    1
    52    97    96    1
    53    97    98   ar
    54   100    98   ar
    55    67    66    1
    56    67    68    2
    57   104   103    1
    58    96    93    1
    59    66    69    1
    60    33    32    2
    61    37    35    1
    62    69    70    1
    63    36    35    1
    64     3     4    2
    65    34    35    1
    66    34    31    1
    67    32    31    1
    68    93    92    1
    69    93    94    1
    70    92    83   am
    71    70    72   ar
    72    70    71   ar
    73    31    30    1
    74    72    74   ar
    75    94    95    2
    76    17    15    1
    77    81    82    1
    78    29    28    1
    79    85    82    1
    80    85    86    1
    81    71    73   ar
    82    83    82    1
    83    83    84    2
    84    74    75   ar
    85    26    28   ar
    86    26    24   ar
    87    88    86   ar
    88    88    90   ar
    89    28    27   ar
    90    11    12    1
    91    15    12    1
    92    15    16    1
    93    12    13    1
    94    86    87   ar
    95    24    23   ar
    96    90    91   ar
    97    73    75   ar
    98    21    20    2
    99    27    25   ar
   100    23    25   ar
   101    23    22    1
   102    87    89   ar
   103    13    14    2
   104    91    89   ar
   105    19    20    1
   106    19    22    1
   107    19    18    1
