@<TRIPOS>MOLECULE
tmp/5y02C00.pdb
 109 107 0 0 0
SMALL
GASTEIGER

@<TRIPOS>ATOM
      1  N         50.4190   29.1400   -4.1630 N.3     9  HIS9       -0.1241
      2  CA        51.2190   30.3560   -4.1180 C.3     9  HIS9        0.1621
      3  C         51.2890   30.8840   -5.5650 C.2     9  HIS9        0.2264
      4  O         51.9730   30.2960   -6.4000 O.2     9  HIS9       -0.2867
      5  CB        52.6130   29.9860   -3.5680 C.3     9  HIS9        0.0745
      6  CG        53.6170   31.0950   -3.5720 C.ar    9  HIS9        0.0817
      7  ND1       53.4590   32.2610   -2.8570 N.ar    9  HIS9       -0.2268
      8  CD2       54.8350   31.1770   -4.1520 C.ar    9  HIS9        0.1154
      9  CE1       54.5190   33.0320   -3.0270 C.ar    9  HIS9        0.1986
     10  NE2       55.3720   32.3950   -3.8050 N.ar    9  HIS9       -0.2212
     11  N         51.9590   34.1120   -8.1860 N.3    11  VAL11      -0.1245
     12  CA        52.6920   35.3570   -8.3030 C.3    11  VAL11       0.1561
     13  C         52.4620   35.8850   -9.7100 C.2    11  VAL11       0.2260
     14  O         52.6490   35.1520  -10.6700 O.2    11  VAL11      -0.2867
     15  CB        54.2040   35.1210   -8.1160 C.3    11  VAL11       0.0252
     16  CG1       55.0110   36.3990   -8.3550 C.3    11  VAL11       0.0019
     17  CG2       54.4980   34.5280   -6.7350 C.3    11  VAL11       0.0019
     18  N         64.3370   30.7960  -10.2440 N.3    31  TYR31      -0.1241
     19  CA        63.0360   30.5210   -9.6310 C.3    31  TYR31       0.1605
     20  C         62.6860   29.0480   -9.7880 C.2    31  TYR31       0.2264
     21  O         62.3060   28.3980   -8.8180 O.2    31  TYR31      -0.2867
     22  CB        61.9240   31.3830  -10.2700 C.3    31  TYR31       0.0534
     23  CG        60.6590   31.5890   -9.4480 C.ar   31  TYR31      -0.0201
     24  CD1       60.3730   30.8410   -8.2960 C.ar   31  TYR31      -0.0009
     25  CD2       59.7220   32.5360   -9.8490 C.ar   31  TYR31      -0.0009
     26  CE1       59.2010   31.0410   -7.5780 C.ar   31  TYR31       0.0417
     27  CE2       58.5530   32.7390   -9.1320 C.ar   31  TYR31       0.0417
     28  CZ        58.2950   31.9860   -8.0100 C.ar   31  TYR31       0.1957
     29  OH        57.1140   32.1660   -7.3090 O.3    31  TYR31      -0.2866
     30  N         64.4740   26.5320   -7.3920 N.3    34  LEU34      -0.1245
     31  CA        64.1270   26.4970   -5.9560 C.3    34  LEU34       0.1561
     32  C         63.4530   25.2070   -5.5260 C.2    34  LEU34       0.2260
     33  O         63.7210   24.7150   -4.4290 O.2    34  LEU34      -0.2867
     34  CB        63.2300   27.6630   -5.5580 C.3    34  LEU34       0.0270
     35  CG        63.9210   29.0030   -5.3780 C.3    34  LEU34       0.0019
     36  CD1       62.8590   30.0650   -5.1250 C.3    34  LEU34       0.0001
     37  CD2       64.9450   28.9610   -4.2390 C.3    34  LEU34       0.0001
     38  N         59.4000   27.2510    3.9100 N.3    78  PHE78      -0.1227
     39  CA        60.0050   27.5250    2.5960 C.3    78  PHE78       0.1736
     40  C         60.3690   28.9950    2.4370 C.2    78  PHE78       0.2595
     41  O         61.4950   29.3230    2.0390 O.2    78  PHE78      -0.2718
     42  CB        59.0660   27.1550    1.4450 C.3    78  PHE78       0.0547
     43  CG        59.4490   27.7980    0.1320 C.ar   78  PHE78      -0.0202
     44  CD1       60.5570   27.3410   -0.5710 C.ar   78  PHE78      -0.0042
     45  CD2       58.7130   28.8640   -0.3900 C.ar   78  PHE78      -0.0042
     46  CE1       60.9190   27.9230   -1.7820 C.ar   78  PHE78      -0.0003
     47  CE2       59.0760   29.4530   -1.5990 C.ar   78  PHE78      -0.0003
     48  CZ        60.1760   28.9840   -2.2880 C.ar   78  PHE78      -0.0000
     49  N         59.4050   29.8600    2.7380 N.am   79  PHE79      -0.1976
     50  CA        59.4980   31.2820    2.4270 C.3    79  PHE79       0.1639
     51  C         60.6390   31.9870    3.1590 C.2    79  PHE79       0.2290
     52  O         61.2250   32.9390    2.6210 O.2    79  PHE79      -0.2864
     53  CB        58.1600   31.9880    2.7270 C.3    79  PHE79       0.0560
     54  CG        58.0250   33.3410    2.0800 C.ar   79  PHE79      -0.0200
     55  CD1       58.1930   33.4860    0.7030 C.ar   79  PHE79      -0.0042
     56  CD2       57.7060   34.4670    2.8360 C.ar   79  PHE79      -0.0042
     57  CE1       58.0690   34.7320    0.0970 C.ar   79  PHE79      -0.0003
     58  CE2       57.5810   35.7150    2.2380 C.ar   79  PHE79      -0.0003
     59  CZ        57.7570   35.8420    0.8650 C.ar   79  PHE79      -0.0000
     60  N         65.1860   30.6750   -0.4370 N.3    84  ALA84      -0.1245
     61  CA        64.1020   31.5770   -0.7810 C.3    84  ALA84       0.1562
     62  C         64.5160   33.0170   -0.5470 C.2    84  ALA84       0.2260
     63  O         64.3810   33.8600   -1.4350 O.2    84  ALA84      -0.2867
     64  CB        62.8560   31.2560    0.0180 C.3    84  ALA84       0.0290
     65  N         66.7930   34.1230   -3.2800 N.3    87  PHE87      -0.1227
     66  CA        66.0330   34.3950   -4.5100 C.3    87  PHE87       0.1736
     67  C         65.2340   35.6920   -4.4260 C.2    87  PHE87       0.2595
     68  O         65.1410   36.4340   -5.4000 O.2    87  PHE87      -0.2718
     69  CB        65.1050   33.2450   -4.8790 C.3    87  PHE87       0.0547
     70  CG        64.3390   33.4970   -6.1490 C.ar   87  PHE87      -0.0202
     71  CD1       65.0220   33.6660   -7.3470 C.ar   87  PHE87      -0.0042
     72  CD2       62.9500   33.6160   -6.1460 C.ar   87  PHE87      -0.0042
     73  CE1       64.3330   33.9180   -8.5290 C.ar   87  PHE87      -0.0003
     74  CE2       62.2570   33.8740   -7.3240 C.ar   87  PHE87      -0.0003
     75  CZ        62.9460   34.0270   -8.5120 C.ar   87  PHE87      -0.0000
     76  N         64.6840   35.9780   -3.2530 N.am   88  ALA88      -0.1980
     77  CA        63.9040   37.1910   -3.0390 C.3    88  ALA88       0.1597
     78  C         64.6660   38.4640   -3.4020 C.2    88  ALA88       0.2287
     79  O         64.0770   39.4060   -3.9250 O.2    88  ALA88      -0.2864
     80  CB        63.4300   37.2670   -1.5950 C.3    88  ALA88       0.0319
     81  N         64.6810   38.6500   -7.2390 N.3    91  PHE91      -0.1227
     82  CA        63.3670   38.7370   -7.8940 C.3    91  PHE91       0.1736
     83  C         62.6480   40.0590   -7.6420 C.2    91  PHE91       0.2595
     84  O         62.2410   40.7420   -8.5900 O.2    91  PHE91      -0.2718
     85  CB        62.5020   37.5750   -7.4330 C.3    91  PHE91       0.0547
     86  CG        61.1930   37.4780   -8.1520 C.ar   91  PHE91      -0.0202
     87  CD1       61.1600   37.1720   -9.5030 C.ar   91  PHE91      -0.0042
     88  CD2       59.9920   37.6850   -7.4800 C.ar   91  PHE91      -0.0042
     89  CE1       59.9530   37.0820  -10.1790 C.ar   91  PHE91      -0.0003
     90  CE2       58.7770   37.5910   -8.1560 C.ar   91  PHE91      -0.0003
     91  CZ        58.7620   37.2860   -9.5020 C.ar   91  PHE91      -0.0000
     92  N         62.4700   40.4370   -6.3760 N.am   92  PHE92      -0.1976
     93  CA        61.6140   41.5910   -6.0880 C.3    92  PHE92       0.1639
     94  C         62.1320   42.9060   -6.6860 C.2    92  PHE92       0.2290
     95  O         61.3370   43.6890   -7.2450 O.2    92  PHE92      -0.2864
     96  CB        61.2590   41.7000   -4.5860 C.3    92  PHE92       0.0560
     97  CG        60.4170   40.5390   -4.0700 C.ar   92  PHE92      -0.0200
     98  CD1       59.1590   40.2570   -4.6230 C.ar   92  PHE92      -0.0042
     99  CD2       60.8620   39.7490   -3.0140 C.ar   92  PHE92      -0.0042
    100  CE1       58.3940   39.1920   -4.1600 C.ar   92  PHE92      -0.0003
    101  CE2       60.0910   38.6880   -2.5370 C.ar   92  PHE92      -0.0003
    102  CZ        58.8550   38.4140   -3.1100 C.ar   92  PHE92      -0.0000
    103  N         51.0050   38.9770   -5.2640 N.3   100  VAL100     -0.1245
    104  CA        51.0960   37.6030   -4.7970 C.3   100  VAL100      0.1561
    105  C         49.8870   37.2550   -3.9520 C.2   100  VAL100      0.2260
    106  O         49.5620   37.9870   -3.0170 O.2   100  VAL100     -0.2867
    107  CB        52.3580   37.3890   -3.9390 C.3   100  VAL100      0.0252
    108  CG1       52.5360   35.9180   -3.5810 C.3   100  VAL100      0.0019
    109  CG2       53.5700   37.9260   -4.6710 C.3   100  VAL100      0.0019
@<TRIPOS>BOND
     1    14    13    2
     2    22    19    1
     3    22    23    1
     4    18    19    1
     5    89    87   ar
     6    89    91   ar
     7    25    23   ar
     8    25    27   ar
     9    20    19    1
    10    20    21    2
    11    13    12    1
    12    87    86   ar
    13    91    90   ar
    14    23    24   ar
    15    27    28   ar
    16    84    83    2
    17    73    75   ar
    18    73    71   ar
    19    75    74   ar
    20    16    15    1
    21    12    11    1
    22    12    15    1
    23    24    26   ar
    24    90    88   ar
    25    86    88   ar
    26    86    85    1
    27    15    17    1
    28    28    26   ar
    29    28    29    1
    30    82    83    1
    31    82    85    1
    32    82    81    1
    33    83    92   am
    34    30    31    1
    35    71    70   ar
    36    74    72   ar
    37    95    94    2
    38    94    93    1
    39     4     3    2
    40    92    93    1
    41    70    72   ar
    42    70    69    1
    43    93    96    1
    44    31    34    1
    45    31    32    1
    46     3     2    1
    47    34    35    1
    48    32    33    2
    49    68    67    2
    50    35    36    1
    51    35    37    1
    52   103   104    1
    53    69    66    1
    54   104   105    1
    55   104   107    1
    56   109   107    1
    57    98   100   ar
    58    98    97   ar
    59    96    97    1
    60    66    67    1
    61    66    65    1
    62    67    76   am
    63     1     2    1
    64   100   102   ar
    65     8    10   ar
    66     8     6   ar
    67     2     5    1
    68    97    99   ar
    69   105   106    2
    70   107   108    1
    71    79    78    2
    72    10     9   ar
    73     6     5    1
    74     6     7   ar
    75    78    77    1
    76    76    77    1
    77   102   101   ar
    78    77    80    1
    79     9     7   ar
    80    99   101   ar
    81    48    46   ar
    82    48    47   ar
    83    46    44   ar
    84    47    45   ar
    85    63    62    2
    86    61    62    1
    87    61    60    1
    88    61    64    1
    89    44    43   ar
    90    45    43   ar
    91    57    55   ar
    92    57    59   ar
    93    43    42    1
    94    55    54   ar
    95    59    58   ar
    96    42    39    1
    97    41    40    2
    98    54    53    1
    99    54    56   ar
   100    58    56   ar
   101    50    53    1
   102    50    49    1
   103    50    51    1
   104    40    39    1
   105    40    49   am
   106    39    38    1
   107    52    51    2
