@<TRIPOS>MOLECULE
tmp/5y07A00.pdb
 132 128 0 0 0
SMALL
GASTEIGER

@<TRIPOS>ATOM
      1  N          4.2570  -16.0640   22.2910 N.3    60  THR60      -0.1203
      2  CA         3.0540  -15.9450   23.0750 C.3    60  THR60       0.1994
      3  C          2.7310  -14.4600   23.2820 C.2    60  THR60       0.2618
      4  O          3.5790  -13.6740   23.5660 O.2    60  THR60      -0.2717
      5  CB         3.1640  -16.7320   24.3910 C.3    60  THR60       0.1784
      6  OG1        3.4720  -18.1290   24.1080 O.3    60  THR60      -0.2211
      7  CG2        1.8500  -16.7250   25.0580 C.3    60  THR60       0.0376
      8  N          1.4820  -14.1140   23.0780 N.am   61  GLU61      -0.1965
      9  CA         0.9990  -12.7700   23.2520 C.3    61  GLU61       0.1733
     10  C          1.2040  -12.2740   24.6980 C.2    61  GLU61       0.2616
     11  O          0.9990  -13.0790   25.6340 O.2    61  GLU61      -0.2715
     12  CB        -0.4870  -12.7180   22.9010 C.3    61  GLU61       0.0429
     13  CG        -1.1050  -11.3160   22.9930 C.3    61  GLU61       0.1163
     14  CD        -2.5730  -11.2960   22.5560 C.2    61  GLU61       0.3649
     15  OE1       -3.1160  -12.3470   22.0840 O.co2  61  GLU61      -0.2457
     16  OE2       -3.1240  -10.2070   22.5860 O.co2  61  GLU61      -0.2457
     17  N          1.5980  -11.0070   24.9030 N.am   62  ALA62      -0.1963
     18  CA         2.0280  -10.0790   23.8260 C.3    62  ALA62       0.1728
     19  C          3.5440   -9.7780   23.7400 C.2    62  ALA62       0.2616
     20  O          4.0460   -9.4800   22.6530 O.2    62  ALA62      -0.2715
     21  CB         1.3000   -8.7620   23.9690 C.3    62  ALA62       0.0334
     22  N          4.2550   -9.7420   24.8820 N.am   63  ARG63      -0.1963
     23  CA         5.6850   -9.3540   24.8210 C.3    63  ARG63       0.1729
     24  C          6.4990  -10.3750   24.0660 C.2    63  ARG63       0.2616
     25  O          7.4930  -10.0320   23.4820 O.2    63  ARG63      -0.2715
     26  CB         6.2900   -9.1290   26.2070 C.3    63  ARG63       0.0348
     27  CG         5.9330   -7.7740   26.8320 C.3    63  ARG63       0.0492
     28  CD         6.7110   -7.5340   28.1670 C.3    63  ARG63       0.2205
     29  NE         5.9700   -8.0600   29.2930 N.pl3  63  ARG63      -0.0865
     30  CZ         6.4560   -8.6690   30.3710 C.cat  63  ARG63       0.5346
     31  NH1        7.7410   -8.9280   30.5490 N.pl3  63  ARG63       0.1354
     32  NH2        5.6070   -9.0220   31.3040 N.pl3  63  ARG63       0.1354
     33  N          6.0330  -11.6120   24.0400 N.am   64  GLY64      -0.1955
     34  CA         6.7260  -12.6830   23.3320 C.3    64  GLY64       0.1869
     35  C          6.6730  -12.4220   21.8380 C.2    64  GLY64       0.2309
     36  O          7.5830  -12.8340   21.1110 O.2    64  GLY64      -0.2863
     37  N         -4.2810  -14.6440   23.4680 N.3    84  LYS84      -0.1245
     38  CA        -5.3740  -14.5510   24.4080 C.3    84  LYS84       0.1561
     39  C         -6.6850  -14.8270   23.6820 C.2    84  LYS84       0.2260
     40  O         -6.7920  -14.6860   22.4400 O.2    84  LYS84      -0.2867
     41  CB        -5.3980  -13.1450   25.0630 C.3    84  LYS84       0.0271
     42  CG        -4.1290  -12.7660   25.8610 C.3    84  LYS84       0.0035
     43  CD        -3.5530  -13.8530   26.8060 C.3    84  LYS84       0.0206
     44  CE        -2.1700  -13.5020   27.4280 C.3    84  LYS84       0.1093
     45  NZ        -2.2000  -12.2010   28.2290 N.3    84  LYS84      -0.1314
     46  N         -4.4800  -21.7820   31.9510 N.3    97  TYR97      -0.1241
     47  CA        -3.3560  -21.7060   32.8720 C.3    97  TYR97       0.1605
     48  C         -3.7590  -20.7840   34.0450 C.2    97  TYR97       0.2264
     49  O         -4.7580  -20.0610   33.9720 O.2    97  TYR97      -0.2867
     50  CB        -2.0230  -21.2410   32.1600 C.3    97  TYR97       0.0534
     51  CG        -1.9680  -19.7880   31.6250 C.ar   97  TYR97      -0.0201
     52  CD1       -2.9340  -19.2970   30.7250 C.ar   97  TYR97      -0.0009
     53  CD2       -0.9820  -18.8890   32.0590 C.ar   97  TYR97      -0.0009
     54  CE1       -2.9230  -17.9870   30.2690 C.ar   97  TYR97       0.0417
     55  CE2       -0.9770  -17.5460   31.6200 C.ar   97  TYR97       0.0417
     56  CZ        -1.9250  -17.1300   30.7030 C.ar   97  TYR97       0.1957
     57  OH        -1.9200  -15.8860   30.2960 O.3    97  TYR97      -0.2866
     58  N         -3.2540  -17.7110   36.6090 N.3    99  LEU99      -0.1245
     59  CA        -2.7030  -16.4340   36.9320 C.3    99  LEU99       0.1561
     60  C         -2.6490  -16.3590   38.4610 C.2    99  LEU99       0.2260
     61  O         -3.0430  -17.2940   39.1870 O.2    99  LEU99      -0.2867
     62  CB        -3.5110  -15.3100   36.2730 C.3    99  LEU99       0.0270
     63  CG        -3.4700  -15.4430   34.7370 C.3    99  LEU99       0.0019
     64  CD1       -4.5340  -14.5750   34.1320 C.3    99  LEU99       0.0001
     65  CD2       -2.1020  -15.0930   34.1960 C.3    99  LEU99       0.0001
     66  N          9.8790  -16.3740   24.2900 N.3   123  ASP123     -0.1225
     67  CA         9.1540  -15.4090   25.1480 C.3   123  ASP123      0.1805
     68  C         10.1640  -14.4210   25.6610 C.2   123  ASP123      0.2598
     69  O         11.4200  -14.6510   25.5870 O.2   123  ASP123     -0.2718
     70  CB         8.2860  -16.0370   26.2290 C.3   123  ASP123      0.1424
     71  CG         6.9750  -15.2290   26.5180 C.2   123  ASP123      0.3668
     72  OD1        6.8500  -14.0540   26.0640 O.co2 123  ASP123     -0.2456
     73  OD2        6.0970  -15.7850   27.2540 O.co2 123  ASP123     -0.2456
     74  N          9.6840  -13.2540   26.0870 N.am  124  ASP124     -0.1960
     75  CA        10.6250  -12.3290   26.6700 C.3   124  ASP124      0.1840
     76  C         11.2090  -12.8190   27.9550 C.2   124  ASP124      0.2622
     77  O         12.3860  -12.6140   28.2480 O.2   124  ASP124     -0.2715
     78  CB         9.9890  -10.9590   26.8780 C.3   124  ASP124      0.1450
     79  CG         8.8210  -10.9650   27.8740 C.2   124  ASP124      0.3671
     80  OD1        7.9590  -11.8500   27.9030 O.co2 124  ASP124     -0.2456
     81  OD2        8.7320   -9.9800   28.5720 O.co2 124  ASP124     -0.2456
     82  N         10.3630  -13.4370   28.7360 N.am  125  LEU125     -0.1963
     83  CA        10.6810  -13.6780   30.0920 C.3   125  LEU125      0.1728
     84  C         10.1370  -15.0080   30.6040 C.2   125  LEU125      0.2616
     85  O          8.9740  -15.4240   30.3050 O.2   125  LEU125     -0.2715
     86  CB        10.2490  -12.4810   30.9820 C.3   125  LEU125      0.0311
     87  CG        10.7210  -12.6060   32.4980 C.3   125  LEU125      0.0022
     88  CD1       11.2570  -11.2530   32.9500 C.3   125  LEU125      0.0001
     89  CD2        9.5930  -12.9940   33.3630 C.3   125  LEU125      0.0001
     90  N         11.0270  -15.7320   31.3150 N.am  126  LEU126     -0.1963
     91  CA        10.6660  -16.9430   31.9620 C.3   126  LEU126      0.1728
     92  C         10.6370  -16.7160   33.4820 C.2   126  LEU126      0.2616
     93  O         11.6600  -16.2820   34.0450 O.2   126  LEU126     -0.2715
     94  CB        11.6940  -18.0470   31.6320 C.3   126  LEU126      0.0311
     95  CG        11.4330  -19.3540   32.3950 C.3   126  LEU126      0.0022
     96  CD1       10.0360  -19.8880   32.0100 C.3   126  LEU126      0.0001
     97  CD2       12.5480  -20.2950   32.0270 C.3   126  LEU126      0.0001
     98  N          9.4830  -16.9520   34.1250 N.am  127  ALA127     -0.1963
     99  CA         9.3400  -16.7330   35.5810 C.3   127  ALA127      0.1728
    100  C          8.9000  -18.0340   36.2050 C.2   127  ALA127      0.2617
    101  O          9.7630  -18.8550   36.4800 O.2   127  ALA127     -0.2715
    102  CB         8.3760  -15.5500   35.8910 C.3   127  ALA127      0.0334
    103  N          7.6030  -18.2430   36.3690 N.am  128  THR128     -0.1937
    104  CA         7.0630  -19.4790   36.9370 C.3   128  THR128      0.2028
    105  C          6.9260  -20.5810   35.9330 C.2   128  THR128      0.2643
    106  O          6.8120  -21.7740   36.3380 O.2   128  THR128     -0.2714
    107  CB         5.6460  -19.3770   37.5040 C.3   128  THR128      0.1808
    108  OG1        4.7150  -19.2680   36.3930 O.3   128  THR128     -0.2208
    109  CG2        5.5330  -18.2150   38.5260 C.3   128  THR128      0.0379
    110  N          6.9700  -20.2110   34.6360 N.am  129  GLY129     -0.1939
    111  CA         6.7960  -21.1410   33.5560 C.3   129  GLY129      0.2014
    112  C          5.3560  -21.5220   33.1870 C.2   129  GLY129      0.2639
    113  O          5.1710  -22.3170   32.3060 O.2   129  GLY129     -0.2714
    114  N          4.3280  -20.9160   33.7750 N.am  130  GLY130     -0.1939
    115  CA         2.9000  -21.3250   33.5300 C.3   130  GLY130      0.2014
    116  C          2.5260  -21.0370   32.0590 C.2   130  GLY130      0.2640
    117  O          1.9070  -21.8100   31.3920 O.2   130  GLY130     -0.2714
    118  N          2.9870  -19.9120   31.5610 N.am  131  THR131     -0.1936
    119  CA         2.6780  -19.4720   30.1900 C.3   131  THR131      0.2028
    120  C          3.1980  -20.4430   29.1380 C.2   131  THR131      0.2642
    121  O          2.4650  -20.9480   28.2740 O.2   131  THR131     -0.2714
    122  CB         3.2300  -17.9910   30.0340 C.3   131  THR131      0.1808
    123  OG1        2.5790  -17.1200   31.0060 O.3   131  THR131     -0.2208
    124  CG2        2.9050  -17.5120   28.6990 C.3   131  THR131      0.0379
    125  N          4.4840  -20.7470   29.2300 N.am  132  ILE132     -0.1977
    126  CA         5.0780  -21.6470   28.2560 C.3   132  ILE132      0.1596
    127  C          4.5830  -23.0690   28.4350 C.2   132  ILE132      0.2287
    128  O          4.4140  -23.7500   27.4720 O.2   132  ILE132     -0.2864
    129  CB         6.5940  -21.6030   28.3000 C.3   132  ILE132      0.0276
    130  CG1        7.0520  -20.1650   27.9310 C.3   132  ILE132      0.0022
    131  CG2        7.2460  -22.6090   27.3300 C.3   132  ILE132      0.0022
    132  CD1        6.6000  -19.6870   26.5560 C.3   132  ILE132      0.0001
@<TRIPOS>BOND
     1    36    35    2
     2    35    34    1
     3    15    14   ar
     4     1     2    1
     5    40    39    2
     6    14    16   ar
     7    14    13    1
     8    20    19    2
     9    12    13    1
    10    12     9    1
    11     2     3    1
    12     2     5    1
    13     8     9    1
    14     8     3   am
    15     9    10    1
    16     3     4    2
    17    34    33    1
    18    37    38    1
    19    25    24    2
    20    39    38    1
    21    19    18    1
    22    19    22   am
    23    18    21    1
    24    18    17    1
    25    33    24   am
    26    24    23    1
    27     6     5    1
    28    66    67    1
    29     5     7    1
    30    38    41    1
    31    10    17   am
    32    10    11    2
    33    23    22    1
    34    23    26    1
    35    41    42    1
    36    67    68    1
    37    67    70    1
    38    69    68    2
    39    68    74   am
    40    42    43    1
    41    72    71   ar
    42    74    75    1
    43    26    27    1
    44    70    71    1
    45    71    73   ar
    46   132   130    1
    47    75    78    1
    48    75    76    1
    49    43    44    1
    50    27    28    1
    51    78    79    1
    52   131   129    1
    53    44    45    1
    54   128   127    2
    55    79    80   ar
    56    79    81   ar
    57   130   129    1
    58    76    77    2
    59    76    82   am
    60    28    29    1
    61   126   129    1
    62   126   127    1
    63   126   125    1
    64   121   120    2
    65   124   122    1
    66    82    83    1
    67   120   125   am
    68   120   119    1
    69    29    30    2
    70   122   119    1
    71   122   123    1
    72    83    84    1
    73    83    86    1
    74   119   118    1
    75    54    56   ar
    76    54    52   ar
    77    57    56    1
    78    85    84    2
    79    30    31    1
    80    30    32    1
    81    84    90   am
    82    56    55   ar
    83    52    51   ar
    84    86    87    1
    85    90    91    1
    86   117   116    2
    87   118   116   am
    88    55    53   ar
    89    51    53   ar
    90    51    50    1
    91    94    91    1
    92    94    95    1
    93    46    47    1
    94    91    92    1
    95    96    95    1
    96    97    95    1
    97   116   115    1
    98    50    47    1
    99   113   112    2
   100    87    88    1
   101    87    89    1
   102    47    48    1
   103   112   111    1
   104   112   114   am
   105    92    93    2
   106    92    98   am
   107   115   114    1
   108   111   110    1
   109    49    48    2
   110    98    99    1
   111    64    63    1
   112    65    63    1
   113   110   105   am
   114    63    62    1
   115    99   102    1
   116    99   100    1
   117   105   106    2
   118   105   104    1
   119   100   103   am
   120   100   101    2
   121    62    59    1
   122   103   104    1
   123   108   107    1
   124    58    59    1
   125    59    60    1
   126   104   107    1
   127   107   109    1
   128    60    61    2
