@<TRIPOS>MOLECULE
tmp/5y0nB00.pdb
 229 225 0 0 0
SMALL
GASTEIGER

@<TRIPOS>ATOM
      1  N         25.2340   -2.9990    6.8370 N.3     6  VAL6       -0.1231
      2  CA        25.0220   -3.7050    5.5820 C.3     6  VAL6        0.1692
      3  C         23.6700   -3.3170    4.9850 C.2     6  VAL6        0.2592
      4  O         22.6230   -3.7050    5.4830 O.2     6  VAL6       -0.2718
      5  CB        25.0780   -5.2330    5.7780 C.3     6  VAL6        0.0266
      6  CG1       24.7100   -5.9590    4.4760 C.3     6  VAL6        0.0020
      7  CG2       26.4410   -5.6620    6.2880 C.3     6  VAL6        0.0020
      8  N         23.6990   -2.5650    3.8920 N.am    7  VAL7       -0.1966
      9  CA        22.4960   -1.9070    3.3860 C.3     7  VAL7        0.1727
     10  C         22.4010   -1.8520    1.8580 C.2     7  VAL7        0.2616
     11  O         23.3790   -2.0310    1.1660 O.2     7  VAL7       -0.2715
     12  CB        22.4240   -0.4660    3.8940 C.3     7  VAL7        0.0290
     13  CG1       22.4810   -0.4190    5.4110 C.3     7  VAL7        0.0023
     14  CG2       23.5580    0.3500    3.3030 C.3     7  VAL7        0.0023
     15  N         21.1930   -1.6660    1.3440 N.am    8  GLU8       -0.1963
     16  CA        20.9690   -1.1700   -0.0120 C.3     8  GLU8        0.1733
     17  C         19.8350   -0.1810    0.0860 C.2     8  GLU8        0.2616
     18  O         18.7140   -0.5590    0.4220 O.2     8  GLU8       -0.2715
     19  CB        20.5960   -2.2820   -0.9720 C.3     8  GLU8        0.0429
     20  CG        21.1580   -3.6100   -0.5950 C.3     8  GLU8        0.1163
     21  CD        20.8060   -4.6740   -1.5850 C.2     8  GLU8        0.3649
     22  OE1       19.6690   -5.1800   -1.5380 O.co2   8  GLU8       -0.2457
     23  OE2       21.6700   -5.0050   -2.4110 O.co2   8  GLU8       -0.2457
     24  N         20.0720    1.0800   -0.2270 N.am    9  TYR9       -0.1974
     25  CA        19.0260    2.0340    0.0770 C.3     9  TYR9        0.1639
     26  C         18.2430    2.3520   -1.1780 C.2     9  TYR9        0.2290
     27  O         18.6280    3.2270   -1.9400 O.2     9  TYR9       -0.2864
     28  CB        19.6510    3.2910    0.6660 C.3     9  TYR9        0.0560
     29  CG        20.2460    3.0970    2.0490 C.ar    9  TYR9       -0.0198
     30  CD1       19.5550    2.3950    3.0370 C.ar    9  TYR9       -0.0009
     31  CD2       21.4900    3.6260    2.3760 C.ar    9  TYR9       -0.0009
     32  CE1       20.0880    2.2300    4.3160 C.ar    9  TYR9        0.0417
     33  CE2       22.0330    3.4650    3.6550 C.ar    9  TYR9        0.0417
     34  CZ        21.3270    2.7640    4.6190 C.ar    9  TYR9        0.1957
     35  OH        21.8520    2.5970    5.8850 O.3     9  TYR9       -0.2866
     36  N         14.6280    4.9890    3.3050 N.3    13  HIS13      -0.1241
     37  CA        13.3660    5.4520    3.8910 C.3    13  HIS13       0.1621
     38  C         13.3840    5.5320    5.4120 C.2    13  HIS13       0.2264
     39  O         14.4030    5.2570    6.0530 O.2    13  HIS13      -0.2867
     40  CB        12.2020    4.5660    3.4410 C.3    13  HIS13       0.0745
     41  CG        12.3420    3.1190    3.8140 C.ar   13  HIS13       0.0817
     42  ND1       12.0920    2.6490    5.0880 N.ar   13  HIS13      -0.2268
     43  CD2       12.6630    2.0360    3.0690 C.ar   13  HIS13       0.1154
     44  CE1       12.2770    1.3410    5.1120 C.ar   13  HIS13       0.1986
     45  NE2       12.6200    0.9410    3.9010 N.ar   13  HIS13      -0.2212
     46  N         12.5880    3.7750    7.6940 N.3    15  GLY15      -0.1210
     47  CA        13.1250    2.6070    8.3700 C.3    15  GLY15       0.1956
     48  C         14.6460    2.6070    8.3910 C.2    15  GLY15       0.2611
     49  O         15.2780    2.0460    9.2900 O.2    15  GLY15      -0.2717
     50  N         15.2380    3.2260    7.3800 N.am   16  HIS16      -0.1975
     51  CA        16.6820    3.3450    7.3150 C.3    16  HIS16       0.1656
     52  C         17.2060    4.5130    8.1460 C.2    16  HIS16       0.2291
     53  O         18.3040    4.4590    8.6550 O.2    16  HIS16      -0.2864
     54  CB        17.1360    3.4910    5.8600 C.3    16  HIS16       0.0771
     55  CG        16.7610    2.3390    4.9790 C.ar   16  HIS16       0.0820
     56  ND1       15.8730    2.4630    3.9310 N.ar   16  HIS16      -0.2267
     57  CD2       17.1700    1.0500    4.9750 C.ar   16  HIS16       0.1154
     58  CE1       15.7470    1.2970    3.3240 C.ar   16  HIS16       0.1986
     59  NE2       16.5250    0.4230    3.9350 N.ar   16  HIS16      -0.2212
     60  N         15.9040    5.7830   10.9590 N.3    18  TYR18      -0.1227
     61  CA        15.8080    5.3210   12.3310 C.3    18  TYR18       0.1736
     62  C         16.9010    4.2900   12.5800 C.2    18  TYR18       0.2595
     63  O         17.5300    4.2760   13.6360 O.2    18  TYR18      -0.2718
     64  CB        14.3990    4.7560   12.5850 C.3    18  TYR18       0.0548
     65  CG        14.2330    3.8260   13.7680 C.ar   18  TYR18      -0.0200
     66  CD1       14.2520    4.3070   15.0810 C.ar   18  TYR18      -0.0009
     67  CD2       14.0080    2.4690   13.5690 C.ar   18  TYR18      -0.0009
     68  CE1       14.0830    3.4450   16.1700 C.ar   18  TYR18       0.0417
     69  CE2       13.8360    1.6040   14.6420 C.ar   18  TYR18       0.0417
     70  CZ        13.8740    2.0930   15.9390 C.ar   18  TYR18       0.1957
     71  OH        13.7080    1.2200   16.9900 O.3    18  TYR18      -0.2866
     72  N         17.1570    3.4570   11.5790 N.am   19  HIS19      -0.1975
     73  CA        18.1460    2.3900   11.7030 C.3    19  HIS19       0.1656
     74  C         19.5860    2.9260   11.8350 C.2    19  HIS19       0.2291
     75  O         20.4320    2.2840   12.4630 O.2    19  HIS19      -0.2864
     76  CB        17.9910    1.4280   10.5120 C.3    19  HIS19       0.0771
     77  CG        19.2800    0.9500    9.9180 C.ar   19  HIS19       0.0820
     78  ND1       19.6970    1.3290    8.6600 N.ar   19  HIS19      -0.2267
     79  CD2       20.2140    0.0890   10.3840 C.ar   19  HIS19       0.1154
     80  CE1       20.8490    0.7410    8.3870 C.ar   19  HIS19       0.1986
     81  NE2       21.1830   -0.0170    9.4150 N.ar   19  HIS19      -0.2212
     82  N         18.2810   -8.5810   -4.3910 N.3    42  ARG42      -0.1245
     83  CA        16.9960   -9.0690   -4.8780 C.3    42  ARG42       0.1563
     84  C         17.0560   -9.1850   -6.3950 C.2    42  ARG42       0.2260
     85  O         16.1580   -9.7370   -7.0200 O.2    42  ARG42      -0.2867
     86  CB        15.8440   -8.1530   -4.4410 C.3    42  ARG42       0.0307
     87  CG        15.5680   -8.1510   -2.9370 C.3    42  ARG42       0.0489
     88  CD        16.3250   -7.0290   -2.2190 C.3    42  ARG42       0.2205
     89  NE        16.5550   -7.3300   -0.8040 N.pl3  42  ARG42      -0.0865
     90  CZ        16.9840   -6.4530    0.1010 C.cat  42  ARG42       0.5346
     91  NH1       17.2130   -5.1940   -0.2410 N.pl3  42  ARG42       0.1354
     92  NH2       17.1620   -6.8300    1.3610 N.pl3  42  ARG42       0.1354
     93  N         26.2950  -12.9740   -0.2490 N.3    79  PHE79      -0.1241
     94  CA        26.0610  -11.5510   -0.0370 C.3    79  PHE79       0.1605
     95  C         26.5180  -11.0840    1.3470 C.2    79  PHE79       0.2264
     96  O         27.2270  -10.0780    1.4820 O.2    79  PHE79      -0.2867
     97  CB        24.5710  -11.2770   -0.2410 C.3    79  PHE79       0.0534
     98  CG        24.1230   -9.8670    0.0910 C.ar   79  PHE79      -0.0203
     99  CD1       23.7070   -9.5300    1.3790 C.ar   79  PHE79      -0.0042
    100  CD2       24.0350   -8.8970   -0.9010 C.ar   79  PHE79      -0.0042
    101  CE1       23.2680   -8.2390    1.6830 C.ar   79  PHE79      -0.0003
    102  CE2       23.5900   -7.6110   -0.5970 C.ar   79  PHE79      -0.0003
    103  CZ        23.2080   -7.2880    0.7000 C.ar   79  PHE79      -0.0000
    104  N         25.1630   -3.8090   12.8900 N.3    96  PHE96      -0.1227
    105  CA        23.7820   -3.5050   13.2410 C.3    96  PHE96       0.1736
    106  C         22.8090   -3.7880   12.0840 C.2    96  PHE96       0.2595
    107  O         22.9130   -3.1920   11.0020 O.2    96  PHE96      -0.2718
    108  CB        23.6840   -2.0450   13.6830 C.3    96  PHE96       0.0547
    109  CG        22.3930   -1.6970   14.3630 C.ar   96  PHE96      -0.0202
    110  CD1       21.9210   -2.4540   15.4140 C.ar   96  PHE96      -0.0042
    111  CD2       21.6620   -0.6000   13.9600 C.ar   96  PHE96      -0.0042
    112  CE1       20.7390   -2.1290   16.0450 C.ar   96  PHE96      -0.0003
    113  CE2       20.4910   -0.2650   14.5960 C.ar   96  PHE96      -0.0003
    114  CZ        20.0280   -1.0360   15.6400 C.ar   96  PHE96      -0.0000
    115  N         21.8610   -4.6940   12.3200 N.am   97  PHE97      -0.1962
    116  CA        20.8430   -5.0170   11.3220 C.3    97  PHE97       0.1771
    117  C         19.4490   -5.1370   11.9370 C.2    97  PHE97       0.2620
    118  O         19.2770   -5.7440   12.9890 O.2    97  PHE97      -0.2715
    119  CB        21.1830   -6.3230   10.6030 C.3    97  PHE97       0.0574
    120  CG        21.0120   -7.5410   11.4570 C.ar   97  PHE97      -0.0200
    121  CD1       22.0120   -7.9380   12.3280 C.ar   97  PHE97      -0.0042
    122  CD2       19.8580   -8.2910   11.3910 C.ar   97  PHE97      -0.0042
    123  CE1       21.8640   -9.0520   13.1080 C.ar   97  PHE97      -0.0003
    124  CE2       19.7000   -9.4050   12.1850 C.ar   97  PHE97      -0.0003
    125  CZ        20.7080   -9.7880   13.0370 C.ar   97  PHE97      -0.0000
    126  N         18.4490   -4.5740   11.2700 N.am   98  GLY98      -0.1940
    127  CA        17.0740   -4.7730   11.6850 C.3    98  GLY98       0.2014
    128  C         16.6170   -6.1610   11.2970 C.2    98  GLY98       0.2639
    129  O         17.2290   -6.7960   10.4350 O.2    98  GLY98      -0.2714
    130  N         15.5100   -6.6150   11.8700 N.am   99  SER99      -0.1949
    131  CA        15.0920   -7.9880   11.6590 C.3    99  SER99       0.1924
    132  C         13.7070   -8.2870   12.2040 C.2    99  SER99       0.2314
    133  O         13.1680   -7.5530   13.0280 O.2    99  SER99      -0.2863
    134  CB        16.0980   -8.9480   12.2990 C.3    99  SER99       0.2116
    135  OG        16.2430   -8.6800   13.6790 O.3    99  SER99      -0.2180
    136  N         14.6200  -11.1030    6.8150 N.3   159  ASN159     -0.1240
    137  CA        15.5300  -10.4200    7.7180 C.3   159  ASN159      0.1653
    138  C         16.2600  -11.3850    8.6090 C.2   159  ASN159      0.2266
    139  O         17.4420  -11.2090    8.8970 O.2   159  ASN159     -0.2867
    140  CB        14.7740   -9.4230    8.5600 C.3   159  ASN159      0.1155
    141  CG        14.0890   -8.4000    7.7320 C.2   159  ASN159      0.2627
    142  OD1       12.8970   -8.1750    7.8770 O.2   159  ASN159     -0.2716
    143  ND2       14.8340   -7.7720    6.8360 N.am  159  ASN159     -0.0877
    144  N         18.9520  -13.0690    6.2090 N.3   162  LEU162     -0.1245
    145  CA        20.1450  -12.2590    6.0460 C.3   162  LEU162      0.1561
    146  C         20.8160  -12.0640    7.3920 C.2   162  LEU162      0.2260
    147  O         22.0380  -12.0970    7.4910 O.2   162  LEU162     -0.2867
    148  CB        19.8190  -10.9060    5.4030 C.3   162  LEU162      0.0270
    149  CG        18.7130   -9.9800    5.9220 C.3   162  LEU162      0.0019
    150  CD1       19.0810   -9.1670    7.1740 C.3   162  LEU162      0.0001
    151  CD2       18.3230   -9.0400    4.8020 C.3   162  LEU162      0.0001
    152  N         24.6970  -12.7330    8.3960 N.3   166  TYR166     -0.1241
    153  CA        25.7500  -11.8320    8.8570 C.3   166  TYR166      0.1605
    154  C         26.4420  -12.4230   10.0700 C.2   166  TYR166      0.2264
    155  O         27.6680  -12.4190   10.1840 O.2   166  TYR166     -0.2867
    156  CB        25.1780  -10.4700    9.2380 C.3   166  TYR166      0.0534
    157  CG        24.3490   -9.7790    8.1770 C.ar  166  TYR166     -0.0201
    158  CD1       24.6990   -9.8390    6.8330 C.ar  166  TYR166     -0.0009
    159  CD2       23.2210   -9.0440    8.5320 C.ar  166  TYR166     -0.0009
    160  CE1       23.9430   -9.1970    5.8770 C.ar  166  TYR166      0.0417
    161  CE2       22.4730   -8.3990    7.5830 C.ar  166  TYR166      0.0417
    162  CZ        22.8350   -8.4790    6.2600 C.ar  166  TYR166      0.1957
    163  OH        22.0710   -7.8330    5.3250 O.3   166  TYR166     -0.2866
    164  N         13.6670   -5.2130   16.0850 N.3   182  ALA182     -0.1231
    165  CA        12.4900   -5.5640   15.2850 C.3   182  ALA182      0.1694
    166  C         12.1720   -4.5660   14.1660 C.2   182  ALA182      0.2592
    167  O         12.7350   -3.4740   14.1170 O.2   182  ALA182     -0.2718
    168  CB        11.2850   -5.7280   16.1910 C.3   182  ALA182      0.0304
    169  N         11.2670   -4.9540   13.2730 N.am  183  ARG183     -0.1966
    170  CA        10.8750   -4.0990   12.1590 C.3   183  ARG183      0.1729
    171  C          9.5390   -3.4160   12.4310 C.2   183  ARG183      0.2616
    172  O          8.5490   -4.0720   12.7530 O.2   183  ARG183     -0.2715
    173  CB        10.7970   -4.9100   10.8640 C.3   183  ARG183      0.0348
    174  CG         9.4980   -5.6790   10.6900 C.3   183  ARG183      0.0492
    175  CD         9.1060   -5.7760    9.2240 C.3   183  ARG183      0.2205
    176  NE        10.2710   -5.9000    8.3530 N.pl3 183  ARG183     -0.0865
    177  CZ        10.8730   -4.8750    7.7600 C.cat 183  ARG183      0.5346
    178  NH1       10.4220   -3.6420    7.9430 N.pl3 183  ARG183      0.1354
    179  NH2       11.9280   -5.0820    6.9840 N.pl3 183  ARG183      0.1354
    180  N          9.5190   -2.0930   12.2980 N.am  184  ILE184     -0.1977
    181  CA         8.3060   -1.3190   12.5280 C.3   184  ILE184      0.1596
    182  C          8.0190   -0.3820   11.3600 C.2   184  ILE184      0.2287
    183  O          8.7530    0.5780   11.1270 O.2   184  ILE184     -0.2864
    184  CB         8.4010   -0.4920   13.8240 C.3   184  ILE184      0.0276
    185  CG1        9.8280    0.0220   14.0250 C.3   184  ILE184      0.0022
    186  CG2        7.9560   -1.3220   15.0190 C.3   184  ILE184      0.0022
    187  CD1        9.9990    0.8860   15.2550 C.3   184  ILE184      0.0001
    188  N          6.2320    5.0710    8.5050 N.3   187  ILE187     -0.1231
    189  CA         7.1680    4.0510    8.0080 C.3   187  ILE187      0.1692
    190  C          6.4900    2.9770    7.1610 C.2   187  ILE187      0.2592
    191  O          5.5690    2.3100    7.6320 O.2   187  ILE187     -0.2718
    192  CB         7.8770    3.3120    9.1590 C.3   187  ILE187      0.0266
    193  CG1        8.9140    4.1980    9.8400 C.3   187  ILE187      0.0019
    194  CG2        8.5440    2.0260    8.6580 C.3   187  ILE187      0.0020
    195  CD1        9.6140    3.4970   10.9950 C.3   187  ILE187      0.0001
    196  N          6.9600    2.7890    5.9270 N.am  188  ALA188     -0.1966
    197  CA         6.4650    1.6960    5.0820 C.3   188  ALA188      0.1728
    198  C          7.6060    0.8370    4.5710 C.2   188  ALA188      0.2617
    199  O          8.7740    1.1380    4.8210 O.2   188  ALA188     -0.2715
    200  CB         5.6590    2.2370    3.9120 C.3   188  ALA188      0.0334
    201  N          7.2620   -0.2300    3.8510 N.am  189  SER189     -0.1936
    202  CA         8.2710   -1.1050    3.2660 C.3   189  SER189      0.2055
    203  C          8.7510   -0.4600    1.9850 C.2   189  SER189      0.2643
    204  O          7.9410    0.0740    1.2300 O.2   189  SER189     -0.2714
    205  CB         7.7200   -2.5130    2.9950 C.3   189  SER189      0.2130
    206  OG         6.8100   -2.5310    1.9070 O.3   189  SER189     -0.2179
    207  N         10.0620   -0.5000    1.7540 N.am  190  ALA190     -0.1963
    208  CA        10.6620    0.1100    0.5730 C.3   190  ALA190      0.1728
    209  C          9.9570   -0.3720   -0.6730 C.2   190  ALA190      0.2616
    210  O          9.7150    0.3980   -1.5990 O.2   190  ALA190     -0.2715
    211  CB        12.1240   -0.2050    0.4930 C.3   190  ALA190      0.0334
    212  N          9.6110   -1.6540   -0.6720 N.am  191  THR191     -0.1951
    213  CA         8.9080   -2.2630   -1.7900 C.3   191  THR191      0.1897
    214  C          7.5080   -1.6830   -1.9960 C.2   191  THR191      0.2313
    215  O          7.1560   -1.3260   -3.1180 O.2   191  THR191     -0.2863
    216  CB         8.8160   -3.7860   -1.6110 C.3   191  THR191      0.1794
    217  OG1       10.0430   -4.3900   -2.0510 O.3   191  THR191     -0.2208
    218  CG2        7.6650   -4.3480   -2.4230 C.3   191  THR191      0.0378
    219  N          8.1970    1.4210   -3.3330 N.3   194  ARG194     -0.1245
    220  CA         8.6570    1.3250   -4.7260 C.3   194  ARG194      0.1563
    221  C          7.4790    1.1810   -5.6720 C.2   194  ARG194      0.2260
    222  O          7.3410    1.9380   -6.6250 O.2   194  ARG194     -0.2867
    223  CB         9.6330    0.1490   -4.9280 C.3   194  ARG194      0.0307
    224  CG        11.1150    0.5380   -4.9080 C.3   194  ARG194      0.0489
    225  CD        12.0140   -0.6160   -5.3140 C.3   194  ARG194      0.2205
    226  NE        11.8210   -1.8060   -4.4890 N.pl3 194  ARG194     -0.0865
    227  CZ        12.3760   -1.9780   -3.2940 C.cat 194  ARG194      0.5346
    228  NH1       13.1450   -1.0280   -2.7880 N.pl3 194  ARG194      0.1354
    229  NH2       12.1610   -3.0900   -2.5990 N.pl3 194  ARG194      0.1354
@<TRIPOS>BOND
     1    85    84    2
     2   222   221    2
     3    84    83    1
     4   221   220    1
     5   225   224    1
     6   225   226    1
     7   223   224    1
     8   223   220    1
     9    83    86    1
    10    83    82    1
    11   220   219    1
    12   226   227    2
    13    86    87    1
    14   227   228    1
    15   227   229    1
    16   215   214    2
    17    87    88    1
    18   218   216    1
    19    23    21   ar
    20    88    89    1
    21   217   216    1
    22   214   213    1
    23    27    26    2
    24   213   216    1
    25   213   212    1
    26   210   209    2
    27    21    22   ar
    28    21    20    1
    29    26    25    1
    30    19    20    1
    31    19    16    1
    32   100   102   ar
    33   100    98   ar
    34    89    90    2
    35   209   212   am
    36   209   208    1
    37   102   103   ar
    38    93    94    1
    39    91    90    1
    40    97    94    1
    41    97    98    1
    42    24    25    1
    43    24    17   am
    44    94    95    1
    45    16    17    1
    46    16    15    1
    47    25    28    1
    48    17    18    2
    49    98    99   ar
    50    90    92    1
    51   211   208    1
    52   208   207    1
    53    28    29    1
    54   103   101   ar
    55    11    10    2
    56   204   203    2
    57    15    10   am
    58    95    96    2
    59    99   101   ar
    60   207   203   am
    61    10     9    1
    62   206   205    1
    63   203   202    1
    64    29    31   ar
    65    29    30   ar
    66    31    33   ar
    67   205   202    1
    68    30    32   ar
    69    43    41   ar
    70    43    45   ar
    71   202   201    1
    72    14    12    1
    73    36    37    1
    74    58    56   ar
    75    58    59   ar
    76     9     8    1
    77     9    12    1
    78    40    41    1
    79    40    37    1
    80    33    34   ar
    81    41    42   ar
    82   201   198   am
    83    37    38    1
    84     8     3   am
    85    12    13    1
    86    45    44   ar
    87   200   197    1
    88    56    55   ar
    89    59    57   ar
    90    32    34   ar
    91     6     5    1
    92   198   199    2
    93   198   197    1
    94    34    35    1
    95   151   149    1
    96    57    55   ar
    97    55    54    1
    98     3     4    2
    99     3     2    1
   100   197   196    1
   101    42    44   ar
   102   163   162    1
   103   148   149    1
   104   148   145    1
   105    38    39    2
   106     2     5    1
   107     2     1    1
   108     5     7    1
   109    54    51    1
   110   160   162   ar
   111   160   158   ar
   112   149   150    1
   113   196   190   am
   114   145   144    1
   115   145   146    1
   116   162   161   ar
   117   136   137    1
   118   158   157   ar
   119   143   141   am
   120   179   177    1
   121   190   191    2
   122   190   189    1
   123    51    50    1
   124    51    52    1
   125    50    48   am
   126   146   147    2
   127   161   159   ar
   128    46    47    1
   129   137   140    1
   130   137   138    1
   131   141   142    2
   132   141   140    1
   133   177   178    1
   134   177   176    2
   135   189   188    1
   136   189   192    1
   137    52    53    2
   138   157   159   ar
   139   157   156    1
   140   176   175    1
   141    47    48    1
   142    80    78   ar
   143    80    81   ar
   144    48    49    2
   145   152   153    1
   146   138   139    2
   147   194   192    1
   148    78    77   ar
   149   153   156    1
   150   153   154    1
   151   192   193    1
   152   175   174    1
   153    81    79   ar
   154   193   195    1
   155    77    79   ar
   156    77    76    1
   157   154   155    2
   158   129   128    2
   159    76    73    1
   160   119   116    1
   161   119   120    1
   162   174   173    1
   163   173   170    1
   164    60    61    1
   165   107   106    2
   166   183   182    2
   167   126   127    1
   168   126   117   am
   169   128   127    1
   170   128   130   am
   171   116   117    1
   172   116   115    1
   173   182   181    1
   174   122   120   ar
   175   122   124   ar
   176   120   121   ar
   177    72    73    1
   178    72    62   am
   179   131   130    1
   180   131   132    1
   181   131   134    1
   182    73    74    1
   183    74    75    2
   184   117   118    2
   185   106   115   am
   186   106   105    1
   187   170   171    1
   188   170   169    1
   189   124   125   ar
   190   132   133    2
   191   180   171   am
   192   180   181    1
   193   134   135    1
   194   121   123   ar
   195    61    62    1
   196    61    64    1
   197   171   172    2
   198   181   184    1
   199    62    63    2
   200    64    65    1
   201   104   105    1
   202   125   123   ar
   203   105   108    1
   204   169   166   am
   205    67    65   ar
   206    67    69   ar
   207   108   109    1
   208    65    66   ar
   209   184   185    1
   210   184   186    1
   211   111   109   ar
   212   111   113   ar
   213   185   187    1
   214   167   166    2
   215   166   165    1
   216   109   110   ar
   217   113   114   ar
   218    69    70   ar
   219    66    68   ar
   220   165   164    1
   221   165   168    1
   222   110   112   ar
   223   114   112   ar
   224    70    68   ar
   225    70    71    1
