@<TRIPOS>MOLECULE
tmp/5y0qB00.pdb
 222 217 0 0 0
SMALL
GASTEIGER

@<TRIPOS>ATOM
      1  N         24.9970   -3.3170    6.4570 N.3     7  VAL7       -0.1231
      2  CA        24.8440   -3.9670    5.1660 C.3     7  VAL7        0.1692
      3  C         23.4890   -3.5520    4.6160 C.2     7  VAL7        0.2592
      4  O         22.4560   -3.9390    5.1630 O.2     7  VAL7       -0.2718
      5  CB        24.9420   -5.5090    5.2810 C.3     7  VAL7        0.0266
      6  CG1       24.7530   -6.1780    3.9200 C.3     7  VAL7        0.0020
      7  CG2       26.2730   -5.9120    5.8820 C.3     7  VAL7        0.0020
      8  N         23.4930   -2.7500    3.5500 N.am    8  VAL8       -0.1966
      9  CA        22.2610   -2.1330    3.0450 C.3     8  VAL8        0.1727
     10  C         22.1900   -1.9950    1.5280 C.2     8  VAL8        0.2616
     11  O         23.1970   -2.0160    0.8430 O.2     8  VAL8       -0.2715
     12  CB        22.0650   -0.7140    3.6090 C.3     8  VAL8        0.0290
     13  CG1       22.0360   -0.7270    5.1250 C.3     8  VAL8        0.0023
     14  CG2       23.1650    0.2010    3.1010 C.3     8  VAL8        0.0023
     15  N         20.9750   -1.8950    1.0070 N.am    9  GLU9       -0.1963
     16  CA        20.7400   -1.3540   -0.3220 C.3     9  GLU9        0.1733
     17  C         19.6220   -0.3510   -0.1730 C.2     9  GLU9        0.2616
     18  O         18.4700   -0.7290    0.0650 O.2     9  GLU9       -0.2715
     19  CB        20.3480   -2.4480   -1.3090 C.3     9  GLU9        0.0429
     20  CG        21.1160   -3.7260   -1.1160 C.3     9  GLU9        0.1163
     21  CD        20.6420   -4.8420   -2.0070 C.2     9  GLU9        0.3649
     22  OE1       19.4250   -5.1250   -2.0270 O.co2   9  GLU9       -0.2457
     23  OE2       21.4950   -5.4430   -2.6860 O.co2   9  GLU9       -0.2457
     24  N         19.9050    0.9290   -0.3330 N.am   10  TYR10      -0.1960
     25  CA        18.8280    1.8480   -0.0520 C.3    10  TYR10       0.1771
     26  C         18.0910    2.1110   -1.3430 C.2    10  TYR10       0.2619
     27  O         18.4890    2.9560   -2.1420 O.2    10  TYR10      -0.2715
     28  CB        19.3800    3.1250    0.5470 C.3    10  TYR10       0.0574
     29  CG        19.9690    2.9310    1.9260 C.ar   10  TYR10      -0.0198
     30  CD1       19.3450    2.1190    2.8630 C.ar   10  TYR10      -0.0009
     31  CD2       21.1530    3.5590    2.2910 C.ar   10  TYR10      -0.0009
     32  CE1       19.8800    1.9490    4.1360 C.ar   10  TYR10       0.0417
     33  CE2       21.6950    3.3950    3.5570 C.ar   10  TYR10       0.0417
     34  CZ        21.0580    2.5890    4.4770 C.ar   10  TYR10       0.1957
     35  OH        21.6060    2.4290    5.7370 O.3    10  TYR10      -0.2866
     36  N         16.9470    1.4480   -1.4800 N.am   11  ASN11      -0.1972
     37  CA        16.2360    1.4020   -2.7500 C.3    11  ASN11       0.1688
     38  C         14.7230    1.6290   -2.6060 C.2    11  ASN11       0.2292
     39  O         13.9230    0.7220   -2.8500 O.2    11  ASN11      -0.2864
     40  CB        16.4950    0.0570   -3.4420 C.3    11  ASN11       0.1181
     41  CG        16.1560    0.0790   -4.9320 C.2    11  ASN11       0.2629
     42  OD1       16.3400    1.0920   -5.6130 O.2    11  ASN11      -0.2716
     43  ND2       15.6670   -1.0480   -5.4440 N.am   11  ASN11      -0.0877
     44  N         14.4780    4.7520    3.2340 N.3    14  HIS14      -0.1241
     45  CA        13.1940    5.1820    3.7680 C.3    14  HIS14       0.1621
     46  C         13.2110    5.4140    5.2660 C.2    14  HIS14       0.2264
     47  O         14.2530    5.3110    5.9080 O.2    14  HIS14      -0.2867
     48  CB        12.0970    4.1740    3.4120 C.3    14  HIS14       0.0745
     49  CG        12.4780    2.7390    3.6250 C.ar   14  HIS14       0.0817
     50  ND1       12.5740    2.1690    4.8760 N.ar   14  HIS14      -0.2268
     51  CD2       12.7510    1.7510    2.7400 C.ar   14  HIS14       0.1154
     52  CE1       12.9030    0.8950    4.7520 C.ar   14  HIS14       0.1986
     53  NE2       13.0130    0.6150    3.4660 N.ar   14  HIS14      -0.2212
     54  N         12.4260    3.6290    7.4740 N.3    16  GLY16      -0.1210
     55  CA        12.9320    2.4450    8.1460 C.3    16  GLY16       0.1956
     56  C         14.4460    2.4070    8.1930 C.2    16  GLY16       0.2611
     57  O         15.0390    1.8630    9.1220 O.2    16  GLY16      -0.2717
     58  N         15.0740    2.9770    7.1730 N.am   17  HIS17      -0.1975
     59  CA        16.5210    3.1000    7.1310 C.3    17  HIS17       0.1656
     60  C         17.0160    4.3190    7.9300 C.2    17  HIS17       0.2291
     61  O         18.1290    4.3230    8.4360 O.2    17  HIS17      -0.2864
     62  CB        17.0000    3.1740    5.6750 C.3    17  HIS17       0.0771
     63  CG        16.6180    1.9870    4.8370 C.ar   17  HIS17       0.0820
     64  ND1       16.1760    2.1080    3.5350 N.ar   17  HIS17      -0.2267
     65  CD2       16.6280    0.6590    5.1040 C.ar   17  HIS17       0.1154
     66  CE1       15.9290    0.9090    3.0380 C.ar   17  HIS17       0.1986
     67  NE2       16.1890    0.0120    3.9710 N.ar   17  HIS17      -0.2212
     68  N         15.6700    5.4740   10.7360 N.3    19  TYR19      -0.1227
     69  CA        15.5650    5.0350   12.1240 C.3    19  TYR19       0.1736
     70  C         16.6120    3.9660   12.4400 C.2    19  TYR19       0.2595
     71  O         17.0980    3.8770   13.5690 O.2    19  TYR19      -0.2718
     72  CB        14.1370    4.5230   12.3950 C.3    19  TYR19       0.0548
     73  CG        13.9780    3.4550   13.4650 C.ar   19  TYR19      -0.0200
     74  CD1       13.9000    3.7930   14.8150 C.ar   19  TYR19      -0.0009
     75  CD2       13.8620    2.1100   13.1200 C.ar   19  TYR19      -0.0009
     76  CE1       13.7400    2.8130   15.7980 C.ar   19  TYR19       0.0417
     77  CE2       13.7010    1.1250   14.0880 C.ar   19  TYR19       0.0417
     78  CZ        13.6410    1.4790   15.4270 C.ar   19  TYR19       0.1957
     79  OH        13.4840    0.5000   16.3920 O.3    19  TYR19      -0.2866
     80  N         16.9790    3.1740   11.4360 N.am   20  HIS20      -0.1975
     81  CA        17.9130    2.0770   11.6560 C.3    20  HIS20       0.1656
     82  C         19.3630    2.5780   11.7390 C.2    20  HIS20       0.2291
     83  O         20.1980    1.9610   12.4010 O.2    20  HIS20      -0.2864
     84  CB        17.7330    1.0120   10.5630 C.3    20  HIS20       0.0771
     85  CG        18.9260    0.8220    9.6770 C.ar   20  HIS20       0.0820
     86  ND1       19.0990    1.5210    8.5020 N.ar   20  HIS20      -0.2267
     87  CD2       19.9830   -0.0200    9.7730 C.ar   20  HIS20       0.1154
     88  CE1       20.2230    1.1350    7.9230 C.ar   20  HIS20       0.1986
     89  NE2       20.7770    0.2000    8.6740 N.ar   20  HIS20      -0.2212
     90  N         18.3010   -8.7480   -4.6490 N.3    44  ARG44      -0.1245
     91  CA        17.0160   -9.2310   -5.1300 C.3    44  ARG44       0.1563
     92  C         17.0910   -9.4250   -6.6420 C.2    44  ARG44       0.2260
     93  O         16.2550  -10.1020   -7.2360 O.2    44  ARG44      -0.2867
     94  CB        15.8860   -8.2610   -4.7440 C.3    44  ARG44       0.0307
     95  CG        15.4790   -8.3070   -3.2570 C.3    44  ARG44       0.0489
     96  CD        16.2000   -7.2560   -2.3960 C.3    44  ARG44       0.2205
     97  NE        16.0300   -7.5150   -0.9620 N.pl3  44  ARG44      -0.0865
     98  CZ        16.3930   -6.6840    0.0150 C.cat  44  ARG44       0.5346
     99  NH1       16.9400   -5.5100   -0.2710 N.pl3  44  ARG44       0.1354
    100  NH2       16.1990   -7.0230    1.2850 N.pl3  44  ARG44       0.1354
    101  N         24.8900   -4.2450   12.7450 N.3    99  PHE99      -0.1227
    102  CA        23.5080   -3.9290   13.0830 C.3    99  PHE99       0.1736
    103  C         22.5620   -4.2170   11.9080 C.2    99  PHE99       0.2595
    104  O         22.7300   -3.6570   10.8220 O.2    99  PHE99      -0.2718
    105  CB        23.4250   -2.4610   13.5070 C.3    99  PHE99       0.0547
    106  CG        22.1390   -2.0840   14.1800 C.ar   99  PHE99      -0.0202
    107  CD1       21.6730   -2.7960   15.2720 C.ar   99  PHE99      -0.0042
    108  CD2       21.4100   -0.9940   13.7380 C.ar   99  PHE99      -0.0042
    109  CE1       20.4920   -2.4410   15.8980 C.ar   99  PHE99      -0.0003
    110  CE2       20.2350   -0.6300   14.3650 C.ar   99  PHE99      -0.0003
    111  CZ        19.7740   -1.3570   15.4470 C.ar   99  PHE99      -0.0000
    112  N         21.5680   -5.0790   12.1260 N.am  100  PHE100     -0.1962
    113  CA        20.6130   -5.4300   11.0710 C.3   100  PHE100      0.1771
    114  C         19.1860   -5.5460   11.5880 C.2   100  PHE100      0.2620
    115  O         18.9440   -6.1270   12.6400 O.2   100  PHE100     -0.2715
    116  CB        21.0170   -6.7440   10.3880 C.3   100  PHE100      0.0574
    117  CG        20.8920   -7.9590   11.2630 C.ar  100  PHE100     -0.0200
    118  CD1       21.9690   -8.3990   12.0120 C.ar  100  PHE100     -0.0042
    119  CD2       19.7070   -8.6720   11.3230 C.ar  100  PHE100     -0.0042
    120  CE1       21.8630   -9.5180   12.8150 C.ar  100  PHE100     -0.0003
    121  CE2       19.5890   -9.7850   12.1290 C.ar  100  PHE100     -0.0003
    122  CZ        20.6680  -10.2140   12.8710 C.ar  100  PHE100     -0.0000
    123  N         18.2370   -4.9920   10.8420 N.am  101  GLY101     -0.1954
    124  CA        16.8400   -5.1470   11.1860 C.3   101  GLY101      0.1869
    125  C         16.4420   -6.5750   10.9070 C.2   101  GLY101      0.2309
    126  O         17.1550   -7.2830   10.2050 O.2   101  GLY101     -0.2863
    127  N         14.6480  -11.6060    6.3060 N.3   162  ASN162     -0.1240
    128  CA        15.4340  -10.8120    7.2320 C.3   162  ASN162      0.1653
    129  C         16.2000  -11.7030    8.1690 C.2   162  ASN162      0.2266
    130  O         17.3550  -11.4410    8.4910 O.2   162  ASN162     -0.2867
    131  CB        14.5390   -9.8760    8.0270 C.3   162  ASN162      0.1155
    132  CG        14.0370   -8.7310    7.2040 C.2   162  ASN162      0.2627
    133  OD1       12.8310   -8.5150    7.0930 O.2   162  ASN162     -0.2716
    134  ND2       14.9610   -7.9850    6.6080 N.am  162  ASN162     -0.0877
    135  N         19.1300  -13.3220    6.0360 N.3   165  LEU165     -0.1245
    136  CA        20.3170  -12.4770    5.9580 C.3   165  LEU165      0.1561
    137  C         20.9680  -12.3320    7.3260 C.2   165  LEU165      0.2260
    138  O         22.1840  -12.4320    7.4580 O.2   165  LEU165     -0.2867
    139  CB        19.9720  -11.0950    5.3740 C.3   165  LEU165      0.0270
    140  CG        18.7880  -10.2590    5.8860 C.3   165  LEU165      0.0019
    141  CD1       19.1390   -9.3140    7.0510 C.3   165  LEU165      0.0001
    142  CD2       18.1720   -9.4780    4.7300 C.3   165  LEU165      0.0001
    143  N         24.7280  -13.0790    8.1850 N.3   169  TYR169     -0.1241
    144  CA        25.7980  -12.1940    8.6430 C.3   169  TYR169      0.1605
    145  C         26.4760  -12.7970    9.8640 C.2   169  TYR169      0.2264
    146  O         27.6980  -12.8820    9.9380 O.2   169  TYR169     -0.2867
    147  CB        25.2800  -10.8080    9.0140 C.3   169  TYR169      0.0534
    148  CG        24.4780  -10.1000    7.9590 C.ar  169  TYR169     -0.0201
    149  CD1       24.7800  -10.2370    6.6180 C.ar  169  TYR169     -0.0009
    150  CD2       23.4180   -9.2730    8.3150 C.ar  169  TYR169     -0.0009
    151  CE1       24.0480   -9.5820    5.6610 C.ar  169  TYR169      0.0417
    152  CE2       22.6820   -8.6170    7.3660 C.ar  169  TYR169      0.0417
    153  CZ        23.0000   -8.7760    6.0400 C.ar  169  TYR169      0.1957
    154  OH        22.2600   -8.1240    5.0860 O.3   169  TYR169     -0.2866
    155  N         17.2800   -5.6140   15.6620 N.3   185  THR185     -0.1203
    156  CA        15.9760   -5.2530   16.2050 C.3   185  THR185      0.1994
    157  C         14.8740   -5.5520   15.1950 C.2   185  THR185      0.2618
    158  O         15.1350   -5.7920   14.0110 O.2   185  THR185     -0.2717
    159  CB        15.8960   -3.7730   16.6060 C.3   185  THR185      0.1784
    160  OG1       16.8990   -3.0320   15.9030 O.3   185  THR185     -0.2211
    161  CG2       16.1060   -3.6200   18.1060 C.3   185  THR185      0.0376
    162  N         13.6400   -5.5440   15.6810 N.am  186  ALA186     -0.1965
    163  CA        12.4810   -5.8690   14.8670 C.3   186  ALA186      0.1728
    164  C         12.1570   -4.7490   13.8880 C.2   186  ALA186      0.2616
    165  O         12.6790   -3.6420   14.0100 O.2   186  ALA186     -0.2715
    166  CB        11.2880   -6.1680   15.7530 C.3   186  ALA186      0.0334
    167  N         11.3300   -5.0520   12.8930 N.am  187  ARG187     -0.1963
    168  CA        10.8900   -4.0300   11.9550 C.3   187  ARG187      0.1729
    169  C          9.4750   -3.5150   12.2110 C.2   187  ARG187      0.2616
    170  O          8.5260   -4.2920   12.2610 O.2   187  ARG187     -0.2715
    171  CB        10.9970   -4.5540   10.5200 C.3   187  ARG187      0.0348
    172  CG        10.2620   -5.8500   10.2520 C.3   187  ARG187      0.0492
    173  CD        10.2740   -6.1660    8.7690 C.3   187  ARG187      0.2205
    174  NE        11.6340   -6.1950    8.2270 N.pl3 187  ARG187     -0.0865
    175  CZ        12.1400   -5.2720    7.4120 C.cat 187  ARG187      0.5346
    176  NH1       11.4010   -4.2380    7.0320 N.pl3 187  ARG187      0.1354
    177  NH2       13.3840   -5.3850    6.9700 N.pl3 187  ARG187      0.1354
    178  N          9.3390   -2.1980   12.3640 N.am  188  ILE188     -0.1977
    179  CA         8.0150   -1.5810   12.4770 C.3   188  ILE188      0.1596
    180  C          7.7520   -0.5460   11.3830 C.2   188  ILE188      0.2287
    181  O          8.5010    0.4160   11.2240 O.2   188  ILE188     -0.2864
    182  CB         7.8040   -0.9040   13.8530 C.3   188  ILE188      0.0276
    183  CG1        9.0230   -0.0700   14.2570 C.3   188  ILE188      0.0022
    184  CG2        7.4930   -1.9470   14.9170 C.3   188  ILE188      0.0022
    185  CD1        8.8040    0.7280   15.5350 C.3   188  ILE188      0.0001
    186  N          5.8400    4.5760    8.3800 N.3   191  ILE191     -0.1245
    187  CA         6.8050    3.6240    7.8410 C.3   191  ILE191      0.1561
    188  C          6.1630    2.4880    7.0540 C.2   191  ILE191      0.2260
    189  O          5.2460    1.8220    7.5360 O.2   191  ILE191     -0.2867
    190  CB         7.6560    2.9890    8.9640 C.3   191  ILE191      0.0252
    191  CG1        8.5290    4.0310    9.6550 C.3   191  ILE191      0.0019
    192  CG2        8.5300    1.8900    8.4060 C.3   191  ILE191      0.0019
    193  CD1        9.2180    3.5030   10.9070 C.3   191  ILE191      0.0001
    194  N          7.3760   -0.5430    3.6260 N.3   193  SER193     -0.1202
    195  CA         8.4910   -1.2470    3.0080 C.3   193  SER193      0.2020
    196  C          8.9400   -0.5440    1.7460 C.2   193  SER193      0.2619
    197  O          8.1200    0.0100    1.0190 O.2   193  SER193     -0.2717
    198  CB         8.1070   -2.6880    2.6770 C.3   193  SER193      0.2103
    199  OG         7.1830   -2.7230    1.6060 O.3   193  SER193     -0.2182
    200  N         10.2450   -0.5880    1.4840 N.am  194  ALA194     -0.1965
    201  CA        10.8140   -0.0090    0.2730 C.3   194  ALA194      0.1728
    202  C         10.0770   -0.5370   -0.9410 C.2   194  ALA194      0.2616
    203  O          9.8130    0.1950   -1.8940 O.2   194  ALA194     -0.2715
    204  CB        12.2880   -0.3300    0.1750 C.3   194  ALA194      0.0334
    205  N          9.7250   -1.8140   -0.8760 N.am  195  THR195     -0.1951
    206  CA         8.9730   -2.4690   -1.9320 C.3   195  THR195      0.1897
    207  C          7.6000   -1.8500   -2.1200 C.2   195  THR195      0.2313
    208  O          7.2200   -1.5140   -3.2380 O.2   195  THR195     -0.2863
    209  CB         8.8200   -3.9600   -1.6440 C.3   195  THR195      0.1794
    210  OG1       10.0660   -4.6110   -1.9090 O.3   195  THR195     -0.2208
    211  CG2        7.7510   -4.5670   -2.5230 C.3   195  THR195      0.0378
    212  N          8.3270    1.3920   -3.6090 N.3   198  ARG198     -0.1245
    213  CA         8.6790    1.2450   -5.0190 C.3   198  ARG198      0.1563
    214  C          7.4340    1.0860   -5.8590 C.2   198  ARG198      0.2260
    215  O          7.1640    1.8810   -6.7490 O.2   198  ARG198     -0.2867
    216  CB         9.5890    0.0350   -5.2390 C.3   198  ARG198      0.0307
    217  CG        11.0670    0.3360   -5.2200 C.3   198  ARG198      0.0489
    218  CD        11.8710   -0.8860   -5.6520 C.3   198  ARG198      0.2205
    219  NE        11.6610   -2.0470   -4.7920 N.pl3 198  ARG198     -0.0865
    220  CZ        12.3320   -2.2640   -3.6670 C.cat 198  ARG198      0.5346
    221  NH1       13.2440   -1.3930   -3.2670 N.pl3 198  ARG198      0.1354
    222  NH2       12.0910   -3.3420   -2.9330 N.pl3 198  ARG198      0.1354
@<TRIPOS>BOND
     1    93    92    2
     2   215   214    2
     3    92    91    1
     4   214   213    1
     5   218   217    1
     6   218   219    1
     7    42    41    2
     8    43    41   am
     9   216   217    1
    10   216   213    1
    11    91    94    1
    12    91    90    1
    13   213   212    1
    14    41    40    1
    15   219   220    2
    16    94    95    1
    17   220   221    1
    18   220   222    1
    19    40    37    1
    20    95    96    1
    21   208   207    2
    22    39    38    2
    23    37    38    1
    24    37    36    1
    25    23    21   ar
    26   211   209    1
    27    96    97    1
    28    27    26    2
    29   207   206    1
    30    22    21   ar
    31    21    20    1
    32   206   209    1
    33   206   205    1
    34   210   209    1
    35   203   202    2
    36    36    26   am
    37    26    25    1
    38    19    20    1
    39    19    16    1
    40    97    98    2
    41   202   205   am
    42   202   201    1
    43    24    17   am
    44    24    25    1
    45    16    17    1
    46    16    15    1
    47    99    98    1
    48    17    18    2
    49    25    28    1
    50    98   100    1
    51   204   201    1
    52   201   200    1
    53    28    29    1
    54    11    10    2
    55    15    10   am
    56   197   196    2
    57   200   196   am
    58    10     9    1
    59   199   198    1
    60   196   195    1
    61    29    31   ar
    62    29    30   ar
    63    31    33   ar
    64   198   195    1
    65    51    53   ar
    66    51    49   ar
    67    30    32   ar
    68   195   194    1
    69    66    64   ar
    70    66    67   ar
    71     9     8    1
    72     9    12    1
    73    14    12    1
    74    44    45    1
    75    48    49    1
    76    48    45    1
    77    53    52   ar
    78    64    63   ar
    79     8     3   am
    80    33    34   ar
    81    12    13    1
    82    49    50   ar
    83    45    46    1
    84     6     5    1
    85    67    65   ar
    86    32    34   ar
    87    34    35    1
    88     3     4    2
    89     3     2    1
    90   142   140    1
    91    52    50   ar
    92    63    65   ar
    93    63    62    1
    94   154   153    1
    95     2     5    1
    96     2     1    1
    97    46    47    2
    98     5     7    1
    99   139   140    1
   100   139   136    1
   101   151   153   ar
   102   151   149   ar
   103    62    59    1
   104   140   141    1
   105   136   135    1
   106   136   137    1
   107   153   152   ar
   108   127   128    1
   109   134   132   am
   110   149   148   ar
   111   177   175    1
   112   176   175    1
   113   188   189    2
   114   188   187    1
   115   133   132    2
   116    59    58    1
   117    59    60    1
   118    58    56   am
   119   132   131    1
   120   128   131    1
   121   128   129    1
   122   137   138    2
   123   152   150   ar
   124   175   174    2
   125    54    55    1
   126   187   186    1
   127   187   190    1
   128    88    86   ar
   129    88    89   ar
   130    60    61    2
   131   148   150   ar
   132   148   147    1
   133    55    56    1
   134   129   130    2
   135   143   144    1
   136    56    57    2
   137   174   173    1
   138   192   190    1
   139    86    85   ar
   140   144   147    1
   141   144   145    1
   142    89    87   ar
   143   173   172    1
   144   190   191    1
   145   191   193    1
   146    85    87   ar
   147    85    84    1
   148   145   146    2
   149   126   125    2
   150   172   171    1
   151   116   113    1
   152   116   117    1
   153   171   168    1
   154    84    81    1
   155    68    69    1
   156   104   103    2
   157   123   124    1
   158   123   114   am
   159   125   124    1
   160   113   114    1
   161   113   112    1
   162   181   180    2
   163   117   119   ar
   164   117   118   ar
   165   119   121   ar
   166   180   179    1
   167    80    81    1
   168    80    70   am
   169   114   115    2
   170    81    82    1
   171    82    83    2
   172   103   112   am
   173   103   102    1
   174   168   169    1
   175   168   167    1
   176   118   120   ar
   177    69    72    1
   178    69    70    1
   179   121   122   ar
   180   169   170    2
   181   169   178   am
   182   178   179    1
   183    72    73    1
   184    70    71    2
   185   179   182    1
   186   101   102    1
   187   120   122   ar
   188   167   164   am
   189   102   105    1
   190    75    73   ar
   191    75    77   ar
   192    73    74   ar
   193   105   106    1
   194   108   106   ar
   195   108   110   ar
   196   182   183    1
   197   182   184    1
   198   164   165    2
   199   164   163    1
   200   158   157    2
   201    77    78   ar
   202   106   107   ar
   203   183   185    1
   204   110   111   ar
   205    74    76   ar
   206   163   162    1
   207   163   166    1
   208   157   162   am
   209   157   156    1
   210   107   109   ar
   211    78    76   ar
   212    78    79    1
   213   111   109   ar
   214   155   156    1
   215   160   159    1
   216   156   159    1
   217   159   161    1
