@<TRIPOS>MOLECULE
tmp/5y0tD01.pdb
 99 92 0 0 0
SMALL
GASTEIGER

@<TRIPOS>ATOM
      1  N         61.7330   40.7640  104.6140 N.3     9  GLU9       -0.1245
      2  CA        60.9400   40.8630  105.8380 C.3     9  GLU9        0.1567
      3  C         61.5440   41.9400  106.7170 C.2     9  GLU9        0.2260
      4  O         60.8140   42.6990  107.3540 O.2     9  GLU9       -0.2867
      5  CB        60.8170   39.5120  106.5440 C.3     9  GLU9        0.0388
      6  CG        60.0430   38.5280  105.6530 C.3     9  GLU9        0.1160
      7  CD        59.3480   37.4020  106.4280 C.2     9  GLU9        0.3649
      8  OE1       60.0540   36.5550  107.0090 O.co2   9  GLU9       -0.2457
      9  OE2       58.0930   37.3630  106.4380 O.co2   9  GLU9       -0.2457
     10  N         56.7420   35.4430  108.0060 N.3    42  GLN42      -0.1231
     11  CA        56.5100   34.1000  107.4800 C.3    42  GLN42       0.1698
     12  C         56.6010   32.9800  108.5230 C.2    42  GLN42       0.2592
     13  O         56.0840   31.8890  108.2990 O.2    42  GLN42      -0.2718
     14  CB        57.4980   33.8370  106.3370 C.3    42  GLN42       0.0381
     15  CG        57.0770   32.7440  105.4010 C.3    42  GLN42       0.0905
     16  CD        57.7860   31.4310  105.6850 C.2    42  GLN42       0.2608
     17  OE1       58.8310   31.4030  106.3410 O.2    42  GLN42      -0.2717
     18  NE2       57.2230   30.3370  105.1890 N.am   42  GLN42      -0.0878
     19  N         57.2370   33.2500  109.6640 N.am   43  ARG43      -0.1980
     20  CA        57.4120   32.2310  110.6980 C.3    43  ARG43       0.1597
     21  C         56.2980   32.2560  111.7430 C.2    43  ARG43       0.2287
     22  O         56.3620   31.5330  112.7300 O.2    43  ARG43      -0.2864
     23  CB        58.7590   32.4020  111.4040 C.3    43  ARG43       0.0334
     24  CG        59.9890   32.0860  110.5620 C.3    43  ARG43       0.0492
     25  CD        61.2150   32.7280  111.2050 C.3    43  ARG43       0.2205
     26  NE        62.4900   32.2640  110.6620 N.pl3  43  ARG43      -0.0865
     27  CZ        63.1730   32.8880  109.7070 C.cat  43  ARG43       0.5346
     28  NH1       62.6970   34.0020  109.1620 N.pl3  43  ARG43       0.1354
     29  NH2       64.3320   32.3950  109.2910 N.pl3  43  ARG43       0.1354
     30  N         54.2190   32.1280  100.3310 N.3    81  PHE81      -0.1241
     31  CA        54.9830   33.3490  100.5260 C.3    81  PHE81       0.1605
     32  C         55.6210   33.7840   99.2050 C.2    81  PHE81       0.2264
     33  O         55.4200   34.9060   98.7390 O.2    81  PHE81      -0.2867
     34  CB        56.0400   33.1260  101.6100 C.3    81  PHE81       0.0534
     35  CG        56.9570   34.2900  101.8190 C.ar   81  PHE81      -0.0203
     36  CD1       58.1550   34.3810  101.1240 C.ar   81  PHE81      -0.0042
     37  CD2       56.6350   35.2820  102.7280 C.ar   81  PHE81      -0.0042
     38  CE1       59.0020   35.4500  101.3180 C.ar   81  PHE81      -0.0003
     39  CE2       57.4810   36.3500  102.9410 C.ar   81  PHE81      -0.0003
     40  CZ        58.6660   36.4440  102.2310 C.ar   81  PHE81      -0.0000
     41  N         72.4300   29.8270  100.0860 N.3   103  GLU103     -0.1245
     42  CA        73.4870   29.0390  100.7110 C.3   103  GLU103      0.1567
     43  C         74.4110   28.4390   99.6610 C.2   103  GLU103      0.2260
     44  O         75.6290   28.4730   99.8090 O.2   103  GLU103     -0.2867
     45  CB        72.9020   27.9330  101.5860 C.3   103  GLU103      0.0388
     46  CG        72.1380   28.4390  102.8020 C.3   103  GLU103      0.1160
     47  CD        70.6430   28.5620  102.5550 C.2   103  GLU103      0.3649
     48  OE1       70.2130   28.3880  101.3890 O.co2 103  GLU103     -0.2457
     49  OE2       69.9000   28.8320  103.5290 O.co2 103  GLU103     -0.2457
     50  N         67.2770   26.4960  104.0140 N.3   166  SER166     -0.1202
     51  CA        66.0880   27.3510  103.9590 C.3   166  SER166      0.2020
     52  C         66.0360   28.3760  102.8330 C.2   166  SER166      0.2618
     53  O         65.0210   28.4980  102.1460 O.2   166  SER166     -0.2717
     54  CB        65.9340   28.0970  105.2880 C.3   166  SER166      0.2103
     55  OG        65.8060   27.1910  106.3680 O.3   166  SER166     -0.2182
     56  N         67.1130   29.1300  102.6550 N.am  167  ASN167     -0.1974
     57  CA        67.0980   30.2290  101.6930 C.3   167  ASN167      0.1688
     58  C         67.0040   29.7270  100.2550 C.2   167  ASN167      0.2292
     59  O         66.3880   30.3670   99.3990 O.2   167  ASN167     -0.2864
     60  CB        68.3360   31.1120  101.8780 C.3   167  ASN167      0.1181
     61  CG        68.3900   31.7520  103.2580 C.2   167  ASN167      0.2629
     62  OD1       67.5580   32.5910  103.5900 O.2   167  ASN167     -0.2716
     63  ND2       69.3660   31.3520  104.0670 N.am  167  ASN167     -0.0877
     64  N         63.3770   28.6710   99.5150 N.3   170  LEU170     -0.1245
     65  CA        62.6680   29.8790   99.1150 C.3   170  LEU170      0.1561
     66  C         63.0180   30.2690   97.6860 C.2   170  LEU170      0.2260
     67  O         62.1340   30.5710   96.8820 O.2   170  LEU170     -0.2867
     68  CB        62.9880   31.0330  100.0610 C.3   170  LEU170      0.0270
     69  CG        61.9730   31.2730  101.1790 C.3   170  LEU170      0.0019
     70  CD1       62.5250   32.2700  102.1780 C.3   170  LEU170      0.0001
     71  CD2       60.6560   31.7720  100.6040 C.3   170  LEU170      0.0001
     72  N         75.1430   33.6980  101.0300 N.3   192  ARG192     -0.1231
     73  CA        74.9360   33.9900  102.4460 C.3   192  ARG192      0.1694
     74  C         76.2650   34.1130  103.1900 C.2   192  ARG192      0.2592
     75  O         77.2180   33.3910  102.8890 O.2   192  ARG192     -0.2718
     76  CB        74.0820   32.8950  103.0910 C.3   192  ARG192      0.0321
     77  CG        72.6730   32.8020  102.5390 C.3   192  ARG192      0.0489
     78  CD        71.8200   33.9390  103.0500 C.3   192  ARG192      0.2205
     79  NE        71.6910   33.8760  104.4980 N.pl3 192  ARG192     -0.0865
     80  CZ        70.6260   34.2970  105.1730 C.cat 192  ARG192      0.5346
     81  NH1       69.5920   34.8150  104.5230 N.pl3 192  ARG192      0.1354
     82  NH2       70.5950   34.1910  106.4980 N.pl3 192  ARG192      0.1354
     83  N         76.3260   35.0220  104.1600 N.am  193  VAL193     -0.1966
     84  CA        77.5320   35.1980  104.9670 C.3   193  VAL193      0.1727
     85  C         77.2160   35.0700  106.4520 C.2   193  VAL193      0.2616
     86  O         76.1780   35.5430  106.9080 O.2   193  VAL193     -0.2715
     87  CB        78.1930   36.5670  104.7120 C.3   193  VAL193      0.0290
     88  CG1       79.5340   36.6520  105.4290 C.3   193  VAL193      0.0023
     89  CG2       78.3750   36.7960  103.2260 C.3   193  VAL193      0.0023
     90  N         78.1110   34.4240  107.1990 N.am  194  GLY194     -0.1955
     91  CA        77.9350   34.2410  108.6300 C.3   194  GLY194      0.1869
     92  C         79.0390   34.8920  109.4380 C.2   194  GLY194      0.2309
     93  O         79.1150   34.7180  110.6540 O.2   194  GLY194     -0.2863
     94  N         71.7190   36.4490  112.8800 N.3   199  SER199     -0.1217
     95  CA        70.4050   36.2300  112.2980 C.3   199  SER199      0.1889
     96  C         69.4060   37.2000  112.9260 C.2   199  SER199      0.2288
     97  O         69.6270   37.7120  114.0310 O.2   199  SER199     -0.2866
     98  CB        69.9490   34.7840  112.5030 C.3   199  SER199      0.2089
     99  OG        69.5710   34.5610  113.8470 O.3   199  SER199     -0.2183
@<TRIPOS>BOND
     1    67    66    2
     2    66    65    1
     3    33    32    2
     4    65    64    1
     5    65    68    1
     6    32    31    1
     7    59    58    2
     8    43    44    2
     9    43    42    1
    10    68    69    1
    11    41    42    1
    12    58    57    1
    13    30    31    1
    14    31    34    1
    15    71    69    1
    16    42    45    1
    17    72    73    1
    18    36    38   ar
    19    36    35   ar
    20    69    70    1
    21    38    40   ar
    22    48    47   ar
    23    45    46    1
    24    34    35    1
    25    57    60    1
    26    57    56    1
    27    35    37   ar
    28    60    61    1
    29    53    52    2
    30    40    39   ar
    31    73    76    1
    32    73    74    1
    33    77    78    1
    34    77    76    1
    35    47    46    1
    36    47    49   ar
    37    56    52   am
    38    37    39   ar
    39    52    51    1
    40    75    74    2
    41    78    79    1
    42    74    83   am
    43    89    87    1
    44    61    62    2
    45    61    63   am
    46    51    50    1
    47    51    54    1
    48    83    84    1
    49    79    80    2
    50    81    80    1
    51     1     2    1
    52    87    84    1
    53    87    88    1
    54    84    85    1
    55    80    82    1
    56    18    16   am
    57    54    55    1
    58    15    16    1
    59    15    14    1
    60     6     7    1
    61     6     5    1
    62    16    17    2
    63     2     5    1
    64     2     3    1
    65    14    11    1
    66     7     9   ar
    67     7     8   ar
    68    85    86    2
    69    85    90   am
    70     3     4    2
    71    90    91    1
    72    11    10    1
    73    11    12    1
    74    13    12    2
    75    12    19   am
    76    91    92    1
    77    28    27    1
    78    29    27    1
    79    92    93    2
    80    19    20    1
    81    27    26    2
    82    24    25    1
    83    24    23    1
    84    26    25    1
    85    20    23    1
    86    20    21    1
    87    21    22    2
    88    95    98    1
    89    95    94    1
    90    95    96    1
    91    98    99    1
    92    96    97    2
