@<TRIPOS>MOLECULE
tmp/5y0tB00.pdb
 216 211 0 0 0
SMALL
GASTEIGER

@<TRIPOS>ATOM
      1  N         28.3510   82.7970   69.1480 N.3     7  VAL7       -0.1231
      2  CA        28.6450   82.5130   70.5510 C.3     7  VAL7        0.1692
      3  C         29.9350   81.7160   70.6230 C.2     7  VAL7        0.2592
      4  O         30.0330   80.6400   70.0200 O.2     7  VAL7       -0.2718
      5  CB        27.5170   81.7220   71.2210 C.3     7  VAL7        0.0266
      6  CG1       27.8670   81.4390   72.6960 C.3     7  VAL7        0.0020
      7  CG2       26.1990   82.4740   71.0920 C.3     7  VAL7        0.0020
      8  N         30.9250   82.2220   71.3550 N.am    8  VAL8       -0.1966
      9  CA        32.2850   81.6980   71.2170 C.3     8  VAL8        0.1727
     10  C         33.0540   81.7280   72.5220 C.2     8  VAL8        0.2616
     11  O         32.7040   82.4560   73.4460 O.2     8  VAL8       -0.2715
     12  CB        33.1110   82.5010   70.1760 C.3     8  VAL8        0.0290
     13  CG1       32.4910   82.3910   68.7790 C.3     8  VAL8        0.0023
     14  CG2       33.2380   83.9820   70.6040 C.3     8  VAL8        0.0023
     15  N         34.1230   80.9450   72.5560 N.am    9  GLU9       -0.1963
     16  CA        35.0330   80.8710   73.7000 C.3     9  GLU9        0.1733
     17  C         36.4520   81.1190   73.1920 C.2     9  GLU9        0.2616
     18  O         37.2440   81.7910   73.8570 O.2     9  GLU9       -0.2715
     19  CB        34.8870   79.5540   74.4460 C.3     9  GLU9        0.0429
     20  CG        33.5330   79.4670   75.1410 C.3     9  GLU9        0.1163
     21  CD        33.5410   78.5330   76.3320 C.2     9  GLU9        0.3649
     22  OE1       33.7420   77.3110   76.1380 O.co2   9  GLU9       -0.2457
     23  OE2       33.3460   79.0290   77.4620 O.co2   9  GLU9       -0.2457
     24  N         36.8050   80.4560   72.0910 N.am   10  TYR10      -0.1960
     25  CA        38.0650   80.7270   71.4010 C.3    10  TYR10       0.1771
     26  C         39.2260   80.4940   72.3530 C.2    10  TYR10       0.2619
     27  O         39.9820   81.4090   72.6560 O.2    10  TYR10      -0.2715
     28  CB        38.1090   82.1710   70.8720 C.3    10  TYR10       0.0574
     29  CG        37.2250   82.4550   69.6690 C.ar   10  TYR10      -0.0198
     30  CD1       36.7640   81.4280   68.8580 C.ar   10  TYR10      -0.0009
     31  CD2       36.8670   83.7630   69.3420 C.ar   10  TYR10      -0.0009
     32  CE1       35.9540   81.6910   67.7520 C.ar   10  TYR10       0.0417
     33  CE2       36.0650   84.0370   68.2420 C.ar   10  TYR10       0.0417
     34  CZ        35.6110   82.9960   67.4540 C.ar   10  TYR10       0.1957
     35  OH        34.8210   83.2620   66.3540 O.3    10  TYR10      -0.2866
     36  N         39.3660   79.2560   72.8130 N.am   11  ASN11      -0.1972
     37  CA        40.3310   78.9620   73.8600 C.3    11  ASN11       0.1688
     38  C         41.3060   77.8460   73.4730 C.2    11  ASN11       0.2292
     39  O         41.2440   76.7420   74.0240 O.2    11  ASN11      -0.2864
     40  CB        39.5780   78.6020   75.1480 C.3    11  ASN11       0.1181
     41  CG        40.5000   78.3680   76.3170 C.2    11  ASN11       0.2629
     42  OD1       41.6510   78.8190   76.3100 O.2    11  ASN11      -0.2716
     43  ND2       40.0090   77.6480   77.3280 N.am   11  ASN11      -0.0877
     44  N         41.2510   78.6320   66.8800 N.3    14  HIS14      -0.1241
     45  CA        41.9860   77.6700   66.0650 C.3    14  HIS14       0.1621
     46  C         41.3570   77.5320   64.6920 C.2    14  HIS14       0.2264
     47  O         40.4650   78.3070   64.3350 O.2    14  HIS14      -0.2867
     48  CB        42.0740   76.3110   66.7700 C.3    14  HIS14       0.0745
     49  CG        40.7500   75.7130   67.1300 C.ar   14  HIS14       0.0817
     50  ND1       39.6830   75.6640   66.2560 N.ar   14  HIS14      -0.2268
     51  CD2       40.3310   75.1110   68.2690 C.ar   14  HIS14       0.1154
     52  CE1       38.6630   75.0660   66.8450 C.ar   14  HIS14       0.1986
     53  NE2       39.0320   74.7150   68.0660 N.ar   14  HIS14      -0.2212
     54  N         39.4320   75.3210   63.3630 N.3    16  GLY16      -0.1210
     55  CA        38.0250   74.9710   63.3810 C.3    16  GLY16       0.1956
     56  C         37.1980   76.2320   63.5620 C.2    16  GLY16       0.2611
     57  O         36.1500   76.4060   62.9360 O.2    16  GLY16      -0.2717
     58  N         37.6740   77.1210   64.4270 N.am   17  HIS17      -0.1975
     59  CA        37.0320   78.4200   64.6010 C.3    17  HIS17       0.1656
     60  C         37.0870   79.2650   63.3290 C.2    17  HIS17       0.2291
     61  O         36.1340   79.9820   63.0200 O.2    17  HIS17      -0.2864
     62  CB        37.6750   79.1740   65.7640 C.3    17  HIS17       0.0771
     63  CG        37.5430   78.4590   67.0740 C.ar   17  HIS17       0.0820
     64  ND1       38.5900   78.3240   67.9580 N.ar   17  HIS17      -0.2267
     65  CD2       36.4860   77.8270   67.6390 C.ar   17  HIS17       0.1154
     66  CE1       38.1800   77.6500   69.0190 C.ar   17  HIS17       0.1986
     67  NE2       36.9070   77.3400   68.8530 N.ar   17  HIS17      -0.2212
     68  N         37.1930   78.0900   60.2780 N.3    19  TYR19      -0.1227
     69  CA        36.2340   77.4150   59.4180 C.3    19  TYR19       0.1736
     70  C         34.8040   77.8360   59.7380 C.2    19  TYR19       0.2595
     71  O         34.0260   78.1360   58.8370 O.2    19  TYR19      -0.2718
     72  CB        36.3550   75.8930   59.5470 C.3    19  TYR19       0.0548
     73  CG        35.3310   75.1660   58.7040 C.ar   19  TYR19      -0.0200
     74  CD1       34.1270   74.7260   59.2530 C.ar   19  TYR19      -0.0009
     75  CD2       35.5520   74.9490   57.3490 C.ar   19  TYR19      -0.0009
     76  CE1       33.1740   74.0710   58.4710 C.ar   19  TYR19       0.0417
     77  CE2       34.6070   74.2930   56.5590 C.ar   19  TYR19       0.0417
     78  CZ        33.4230   73.8600   57.1260 C.ar   19  TYR19       0.1957
     79  OH        32.4840   73.2150   56.3470 O.3    19  TYR19      -0.2866
     80  N         34.4600   77.8420   61.0240 N.am   20  HIS20      -0.1975
     81  CA        33.1200   78.2440   61.4490 C.3    20  HIS20       0.1656
     82  C         32.7890   79.6850   61.0610 C.2    20  HIS20       0.2291
     83  O         31.7030   79.9720   60.5430 O.2    20  HIS20      -0.2864
     84  CB        32.9610   78.0930   62.9570 C.3    20  HIS20       0.0771
     85  CG        31.7910   78.8460   63.5090 C.ar   20  HIS20       0.0820
     86  ND1       31.9200   80.0630   64.1440 N.ar   20  HIS20      -0.2267
     87  CD2       30.4660   78.5660   63.4960 C.ar   20  HIS20       0.1154
     88  CE1       30.7260   80.4890   64.5180 C.ar   20  HIS20       0.1986
     89  NE2       29.8260   79.6030   64.1280 N.ar   20  HIS20      -0.2212
     90  N         33.7640   74.8110   80.4410 N.3    43  ARG43      -0.1245
     91  CA        34.1970   73.5220   80.9830 C.3    43  ARG43       0.1563
     92  C         34.8360   73.6490   82.3690 C.2    43  ARG43       0.2260
     93  O         35.3290   72.6680   82.9180 O.2    43  ARG43      -0.2867
     94  CB        35.1980   72.8450   80.0400 C.3    43  ARG43       0.0307
     95  CG        34.6100   72.2770   78.7590 C.3    43  ARG43       0.0489
     96  CD        35.7280   71.8680   77.7900 C.3    43  ARG43       0.2205
     97  NE        36.9450   71.4380   78.4870 N.pl3  43  ARG43      -0.0865
     98  CZ        37.4070   70.1880   78.5110 C.cat  43  ARG43       0.5346
     99  NH1       38.5250   69.9030   79.1730 N.pl3  43  ARG43       0.1354
    100  NH2       36.7600   69.2210   77.8710 N.pl3  43  ARG43       0.1354
    101  N         24.5750   78.9460   80.0140 N.3    81  PHE81      -0.1241
    102  CA        25.5250   79.5110   79.0630 C.3    81  PHE81       0.1605
    103  C         24.8030   80.0970   77.8550 C.2    81  PHE81       0.2264
    104  O         25.0380   81.2420   77.4630 O.2    81  PHE81      -0.2867
    105  CB        26.5060   78.4310   78.6120 C.3    81  PHE81       0.0534
    106  CG        27.5120   78.8900   77.5880 C.ar   81  PHE81      -0.0203
    107  CD1       27.2450   78.7740   76.2350 C.ar   81  PHE81      -0.0042
    108  CD2       28.7450   79.3870   77.9760 C.ar   81  PHE81      -0.0042
    109  CE1       28.1700   79.1730   75.2940 C.ar   81  PHE81      -0.0003
    110  CE2       29.6780   79.7820   77.0270 C.ar   81  PHE81      -0.0003
    111  CZ        29.3800   79.6750   75.6800 C.ar   81  PHE81      -0.0000
    112  N         24.7770   81.7760   63.8440 N.3    99  VAL99      -0.1231
    113  CA        25.2280   80.5180   63.2580 C.3    99  VAL99       0.1692
    114  C         26.1260   79.7830   64.2340 C.2    99  VAL99       0.2592
    115  O         27.0760   80.3770   64.7580 O.2    99  VAL99      -0.2718
    116  CB        26.0030   80.7480   61.9520 C.3    99  VAL99       0.0266
    117  CG1       26.4760   79.4270   61.3700 C.3    99  VAL99       0.0020
    118  CG2       25.1360   81.5060   60.9380 C.3    99  VAL99       0.0020
    119  N         25.8320   78.5020   64.4660 N.am  100  PHE100     -0.1962
    120  CA        26.6410   77.6670   65.3550 C.3   100  PHE100      0.1771
    121  C         27.0140   76.3410   64.6940 C.2   100  PHE100      0.2620
    122  O         26.2600   75.7990   63.8640 O.2   100  PHE100     -0.2715
    123  CB        25.9050   77.4090   66.6810 C.3   100  PHE100      0.0574
    124  CG        24.5390   76.7700   66.5250 C.ar  100  PHE100     -0.0200
    125  CD1       23.3870   77.5430   66.5610 C.ar  100  PHE100     -0.0042
    126  CD2       24.4060   75.3960   66.3670 C.ar  100  PHE100     -0.0042
    127  CE1       22.1340   76.9580   66.4370 C.ar  100  PHE100     -0.0003
    128  CE2       23.1560   74.8120   66.2350 C.ar  100  PHE100     -0.0003
    129  CZ        22.0200   75.5960   66.2630 C.ar  100  PHE100     -0.0000
    130  N         28.1850   75.8260   65.0550 N.am  101  GLY101     -0.1954
    131  CA        28.6250   74.5320   64.5720 C.3   101  GLY101      0.1869
    132  C         27.7630   73.4360   65.1630 C.2   101  GLY101      0.2309
    133  O         27.3360   73.5140   66.3250 O.2   101  GLY101     -0.2863
    134  N         27.6560   70.1040   70.8500 N.3   167  ASN167     -0.1240
    135  CA        27.3250   71.3110   70.1030 C.3   167  ASN167      0.1653
    136  C         25.8340   71.4160   69.8040 C.2   167  ASN167      0.2266
    137  O         25.2540   72.5060   69.8940 O.2   167  ASN167     -0.2867
    138  CB        28.1460   71.3790   68.8140 C.3   167  ASN167      0.1155
    139  CG        29.6230   71.6050   69.0890 C.2   167  ASN167      0.2627
    140  OD1       30.0770   72.7450   69.1960 O.2   167  ASN167     -0.2716
    141  ND2       30.3760   70.5190   69.2150 N.am  167  ASN167     -0.0877
    142  N         23.9430   72.6080   72.8790 N.3   170  LEU170     -0.1245
    143  CA        24.0360   74.0660   72.9030 C.3   170  LEU170      0.1561
    144  C         23.0990   74.7150   71.8870 C.2   170  LEU170      0.2260
    145  O         22.4320   75.7100   72.1900 O.2   170  LEU170     -0.2867
    146  CB        25.4800   74.5020   72.6460 C.3   170  LEU170      0.0270
    147  CG        26.3480   74.4140   73.8990 C.3   170  LEU170      0.0019
    148  CD1       27.8170   74.4050   73.5440 C.3   170  LEU170      0.0001
    149  CD2       26.0230   75.5960   74.8070 C.3   170  LEU170      0.0001
    150  N         20.3700   77.4970   72.6730 N.3   174  TYR174     -0.1241
    151  CA        20.3380   78.8220   72.0400 C.3   174  TYR174      0.1605
    152  C         18.9280   79.1140   71.5140 C.2   174  TYR174      0.2264
    153  O         18.3620   80.1750   71.7690 O.2   174  TYR174     -0.2867
    154  CB        21.3380   78.9360   70.8780 C.3   174  TYR174      0.0534
    155  CG        22.8020   78.7430   71.2250 C.ar  174  TYR174     -0.0201
    156  CD1       23.3440   79.2640   72.3910 C.ar  174  TYR174     -0.0009
    157  CD2       23.6460   78.0330   70.3680 C.ar  174  TYR174     -0.0009
    158  CE1       24.6890   79.0910   72.6940 C.ar  174  TYR174      0.0417
    159  CE2       24.9900   77.8520   70.6680 C.ar  174  TYR174      0.0417
    160  CZ        25.5020   78.3830   71.8310 C.ar  174  TYR174      0.1957
    161  OH        26.8270   78.1940   72.1320 O.3   174  TYR174     -0.2866
    162  N         26.0510   75.0800   60.7710 N.3   190  ILE190     -0.1245
    163  CA        27.0320   74.6180   59.7980 C.3   190  ILE190      0.1561
    164  C         27.6170   73.3300   60.3780 C.2   190  ILE190      0.2260
    165  O         27.7130   73.1940   61.5990 O.2   190  ILE190     -0.2867
    166  CB        28.1270   75.6690   59.5220 C.3   190  ILE190      0.0252
    167  CG1       28.8510   76.0650   60.8120 C.3   190  ILE190      0.0019
    168  CG2       27.5230   76.9120   58.8930 C.3   190  ILE190      0.0019
    169  CD1       30.2000   75.4040   60.9960 C.3   190  ILE190      0.0001
    170  N         30.0830   70.5360   61.7000 N.3   192  ARG192     -0.1231
    171  CA        31.4170   70.5100   62.2810 C.3   192  ARG192      0.1694
    172  C         32.3390   69.5970   61.5000 C.2   192  ARG192      0.2591
    173  O         31.9350   68.5190   61.0800 O.2   192  ARG192     -0.2718
    174  CB        31.3550   70.0810   63.7420 C.3   192  ARG192      0.0321
    175  CG        30.9230   71.2150   64.6430 C.3   192  ARG192      0.0489
    176  CD        31.0050   70.8270   66.0810 C.3   192  ARG192      0.2205
    177  NE        32.3740   70.5650   66.5050 N.pl3 192  ARG192     -0.0865
    178  CZ        33.1200   71.4330   67.1780 C.cat 192  ARG192      0.5346
    179  NH1       32.6230   72.6230   67.5010 N.pl3 192  ARG192      0.1354
    180  NH2       34.3570   71.1080   67.5300 N.pl3 192  ARG192      0.1354
    181  N         33.5770   70.0380   61.2960 N.am  193  VAL193     -0.1980
    182  CA        34.5250   69.2860   60.4790 C.3   193  VAL193      0.1595
    183  C         35.7540   68.8740   61.2870 C.2   193  VAL193      0.2287
    184  O         36.0640   69.4780   62.3100 O.2   193  VAL193     -0.2864
    185  CB        34.9760   70.0980   59.2430 C.3   193  VAL193      0.0276
    186  CG1       33.7800   70.4320   58.3550 C.3   193  VAL193      0.0022
    187  CG2       35.6950   71.3680   59.6660 C.3   193  VAL193      0.0022
    188  N         42.9830   70.3040   61.8290 N.3   197  PHE197     -0.1241
    189  CA        41.9140   70.5170   62.8030 C.3   197  PHE197      0.1605
    190  C         42.0960   69.6640   64.0600 C.2   197  PHE197      0.2264
    191  O         41.9240   68.4430   64.0320 O.2   197  PHE197     -0.2867
    192  CB        40.5490   70.2250   62.1700 C.3   197  PHE197      0.0534
    193  CG        40.2020   71.1340   61.0200 C.ar  197  PHE197     -0.0203
    194  CD1       39.4480   72.2750   61.2260 C.ar  197  PHE197     -0.0042
    195  CD2       40.6370   70.8480   59.7330 C.ar  197  PHE197     -0.0042
    196  CE1       39.1310   73.1160   60.1720 C.ar  197  PHE197     -0.0003
    197  CE2       40.3220   71.6870   58.6730 C.ar  197  PHE197     -0.0003
    198  CZ        39.5670   72.8220   58.8970 C.ar  197  PHE197     -0.0000
    199  N         41.0190   69.7770   68.4150 N.3   199  SER199     -0.1202
    200  CA        40.0810   70.4740   69.2740 C.3   199  SER199      0.2020
    201  C         40.8540   71.4910   70.1060 C.2   199  SER199      0.2619
    202  O         42.0850   71.4330   70.1870 O.2   199  SER199     -0.2717
    203  CB        39.3270   69.4840   70.1690 C.3   199  SER199      0.2103
    204  OG        40.1390   69.0280   71.2470 O.3   199  SER199     -0.2182
    205  N         40.1340   72.3630   70.7960 N.am  200  ALA200     -0.1965
    206  CA        40.7810   73.3620   71.6300 C.3   200  ALA200      0.1728
    207  C         41.4630   72.6790   72.8130 C.2   200  ALA200      0.2616
    208  O         42.5700   73.0470   73.2100 O.2   200  ALA200     -0.2715
    209  CB        39.7780   74.4000   72.0970 C.3   200  ALA200      0.0334
    210  N         40.8170   71.6600   73.3660 N.am  201  THR201     -0.1951
    211  CA        41.4310   70.9210   74.4540 C.3   201  THR201      0.1897
    212  C         42.7050   70.2160   73.9910 C.2   201  THR201      0.2313
    213  O         43.7030   70.2090   74.7140 O.2   201  THR201     -0.2863
    214  CB        40.4610   69.8960   75.0520 C.3   201  THR201      0.1794
    215  OG1       39.2780   70.5800   75.4900 O.3   201  THR201     -0.2208
    216  CG2       41.1030   69.1770   76.2390 C.3   201  THR201      0.0378
@<TRIPOS>BOND
     1    79    78    1
     2    77    78   ar
     3    77    75   ar
     4    78    76   ar
     5    75    73   ar
     6   186   185    1
     7    76    74   ar
     8   197   198   ar
     9   197   195   ar
    10    73    74   ar
    11    73    72    1
    12    71    70    2
    13   168   166    1
    14   198   196   ar
    15   185   187    1
    16   185   182    1
    17    69    72    1
    18    69    70    1
    19    69    68    1
    20   166   163    1
    21   166   167    1
    22   195   193   ar
    23    70    80   am
    24   163   164    1
    25   163   162    1
    26   196   194   ar
    27   164   165    2
    28   182   183    1
    29   182   181    1
    30    83    82    2
    31   167   169    1
    32   118   116    1
    33   193   194   ar
    34   193   192    1
    35    80    81    1
    36    82    81    1
    37   173   172    2
    38   183   184    2
    39   181   172   am
    40   117   116    1
    41    81    84    1
    42   172   171    1
    43   170   171    1
    44   188   189    1
    45   116   113    1
    46   192   189    1
    47   171   174    1
    48   189   190    1
    49    57    56    2
    50    84    85    1
    51    61    60    2
    52   113   112    1
    53   113   114    1
    54    60    59    1
    55    54    55    1
    56    55    56    1
    57    87    85   ar
    58    87    89   ar
    59    85    86   ar
    60    56    58   am
    61   174   175    1
    62   122   121    2
    63   191   190    2
    64    89    88   ar
    65    86    88   ar
    66   114   119   am
    67   114   115    2
    68    47    46    2
    69    58    59    1
    70   119   120    1
    71   131   130    1
    72   131   132    1
    73    59    62    1
    74   175   176    1
    75    46    45    1
    76   121   130   am
    77   121   120    1
    78   132   133    2
    79   120   123    1
    80    62    63    1
    81    45    48    1
    82    45    44    1
    83   176   177    1
    84   128   129   ar
    85   128   126   ar
    86    50    52   ar
    87    50    49   ar
    88   129   127   ar
    89    35    34    1
    90   126   124   ar
    91   127   125   ar
    92   177   178    2
    93   124   125   ar
    94   124   123    1
    95    48    49    1
    96    52    53   ar
    97    63    65   ar
    98    63    64   ar
    99    49    51   ar
   100   178   179    1
   101   178   180    1
   102    34    32   ar
   103    34    33   ar
   104    65    67   ar
   105    32    30   ar
   106    64    66   ar
   107    53    51   ar
   108    33    31   ar
   109   199   200    1
   110    13    12    1
   111   138   139    1
   112   138   135    1
   113    67    66   ar
   114    30    29   ar
   115   139   140    2
   116   139   141   am
   117     1     2    1
   118   200   201    1
   119   200   203    1
   120    31    29   ar
   121    29    28    1
   122   136   137    2
   123   136   135    1
   124     4     3    2
   125   135   134    1
   126   201   202    2
   127   201   205   am
   128   203   204    1
   129    12    14    1
   130    12     9    1
   131   157   159   ar
   132   157   155   ar
   133     2     3    1
   134     2     5    1
   135     3     8   am
   136   159   160   ar
   137   205   206    1
   138    28    25    1
   139   154   155    1
   140   154   151    1
   141     7     5    1
   142     9     8    1
   143     9    10    1
   144     5     6    1
   145   155   156   ar
   146    25    24    1
   147    25    26    1
   148   152   153    2
   149   152   151    1
   150   206   209    1
   151   206   207    1
   152   160   161    1
   153   160   158   ar
   154   144   145    2
   155   144   143    1
   156   151   150    1
   157    24    17   am
   158    26    27    2
   159    26    36   am
   160   156   158   ar
   161    10    15   am
   162    10    11    2
   163    15    16    1
   164   146   143    1
   165   146   147    1
   166    36    37    1
   167   207   208    2
   168   207   210   am
   169   142   143    1
   170    17    16    1
   171    17    18    2
   172   210   211    1
   173    38    37    1
   174    38    39    2
   175   148   147    1
   176    16    19    1
   177    37    40    1
   178   147   149    1
   179   212   211    1
   180   212   213    2
   181    19    20    1
   182   211   214    1
   183   214   215    1
   184   214   216    1
   185    20    21    1
   186    40    41    1
   187   109   111   ar
   188   109   107   ar
   189   111   110   ar
   190    22    21   ar
   191   107   106   ar
   192    42    41    2
   193    41    43   am
   194    21    23   ar
   195   110   108   ar
   196   104   103    2
   197   106   108   ar
   198   106   105    1
   199    96    97    1
   200    96    95    1
   201   103   102    1
   202   100    98    1
   203    97    98    2
   204    98    99    1
   205   105   102    1
   206    95    94    1
   207   102   101    1
   208    94    91    1
   209    90    91    1
   210    91    92    1
   211    92    93    2
