@<TRIPOS>MOLECULE
tmp/5y0vA00.pdb
 175 177 0 0 0
SMALL
GASTEIGER

@<TRIPOS>ATOM
      1  N        -49.7520   -2.9020   11.4510 N.3   198  ARG198     -0.1245
      2  CA       -49.0510   -3.9090   12.2360 C.3   198  ARG198      0.1563
      3  C        -49.9690   -4.5540   13.2630 C.2   198  ARG198      0.2260
      4  O        -49.6880   -5.6660   13.7250 O.2   198  ARG198     -0.2867
      5  CB       -47.8380   -3.2820   12.9260 C.3   198  ARG198      0.0307
      6  CG       -46.5520   -3.3490   12.1150 C.3   198  ARG198      0.0489
      7  CD       -46.6480   -2.5440   10.8260 C.3   198  ARG198      0.2205
      8  NE       -45.3440   -2.4080   10.1860 N.pl3 198  ARG198     -0.0865
      9  CZ       -44.5280   -1.3750   10.3680 C.cat 198  ARG198      0.5346
     10  NH1      -44.8840   -0.3750   11.1670 N.pl3 198  ARG198      0.1354
     11  NH2      -43.3560   -1.3410    9.7470 N.pl3 198  ARG198      0.1354
     12  N        -42.6770   -1.7000    2.6940 N.3   281  HIS281     -0.1241
     13  CA       -43.7770   -1.8140    3.6550 C.3   281  HIS281      0.1621
     14  C        -45.0820   -2.2020    2.9650 C.2   281  HIS281      0.2264
     15  O        -46.1480   -1.6550    3.2550 O.2   281  HIS281     -0.2867
     16  CB       -43.9520   -0.5220    4.4550 C.3   281  HIS281      0.0745
     17  CG       -42.8420   -0.2550    5.4200 C.ar  281  HIS281      0.0817
     18  ND1      -43.0570   -0.0560    6.7650 N.ar  281  HIS281     -0.2268
     19  CD2      -41.5040   -0.1590    5.2340 C.ar  281  HIS281      0.1154
     20  CE1      -41.9010    0.1550    7.3680 C.ar  281  HIS281      0.1986
     21  NE2      -40.9430    0.0980    6.4610 N.ar  281  HIS281     -0.2212
     22  N        -35.5170  -13.5430    6.4410 N.3   300  TRP300     -0.1227
     23  CA       -36.0380  -12.1850    6.3110 C.3   300  TRP300      0.1737
     24  C        -34.9970  -11.1310    6.6670 C.2   300  TRP300      0.2595
     25  O        -35.0370  -10.0180    6.1290 O.2   300  TRP300     -0.2718
     26  CB       -37.2940  -12.0130    7.1700 C.3   300  TRP300      0.0564
     27  CG       -37.0760  -12.1170    8.6570 C.ar  300  TRP300      0.0003
     28  CD1      -37.2660  -13.2220    9.4380 C.ar  300  TRP300      0.0946
     29  CD2      -36.6560  -11.0700    9.5430 C.ar  300  TRP300      0.0152
     30  NE1      -36.9810  -12.9310   10.7490 N.ar  300  TRP300     -0.2442
     31  CE2      -36.6050  -11.6170   10.8410 C.ar  300  TRP300      0.0810
     32  CE3      -36.3150   -9.7260    9.3640 C.ar  300  TRP300      0.0012
     33  CZ2      -36.2270  -10.8670   11.9540 C.ar  300  TRP300      0.0191
     34  CZ3      -35.9410   -8.9830   10.4700 C.ar  300  TRP300      0.0001
     35  CH2      -35.9000   -9.5550   11.7480 C.ar  300  TRP300      0.0015
     36  N        -34.0590  -11.4540    7.5590 N.am  301  LYS301     -0.1980
     37  CA       -33.0450  -10.4720    7.9270 C.3   301  LYS301      0.1596
     38  C        -32.1050  -10.1360    6.7790 C.2   301  LYS301      0.2287
     39  O        -31.3820   -9.1390    6.8740 O.2   301  LYS301     -0.2864
     40  CB       -32.2450  -10.9580    9.1380 C.3   301  LYS301      0.0298
     41  CG       -33.0020  -10.7880   10.4400 C.3   301  LYS301      0.0038
     42  CD       -32.2810  -11.3810   11.6390 C.3   301  LYS301      0.0206
     43  CE       -32.2970  -10.4050   12.8140 C.3   301  LYS301      0.1093
     44  NZ       -33.1510  -10.8810   13.9430 N.3   301  LYS301     -0.1314
     45  N        -36.3310   -5.0430    7.0000 N.3   305  VAL305     -0.1231
     46  CA       -36.0650   -4.6110    8.3680 C.3   305  VAL305      0.1692
     47  C        -36.7810   -5.5030    9.3780 C.2   305  VAL305      0.2591
     48  O        -36.2360   -5.8120   10.4440 O.2   305  VAL305     -0.2718
     49  CB       -36.4590   -3.1320    8.5380 C.3   305  VAL305      0.0266
     50  CG1      -36.1420   -2.6570    9.9430 C.3   305  VAL305      0.0020
     51  CG2      -35.7460   -2.2690    7.5070 C.3   305  VAL305      0.0020
     52  N        -38.0070   -5.9220    9.0720 N.am  306  GLU306     -0.1979
     53  CA       -38.7670   -6.7970    9.9550 C.3   306  GLU306      0.1602
     54  C        -39.6820   -7.6650    9.1080 C.2   306  GLU306      0.2287
     55  O        -40.1320   -7.2310    8.0410 O.2   306  GLU306     -0.2864
     56  CB       -39.5880   -6.0010   10.9820 C.3   306  GLU306      0.0415
     57  CG       -40.6890   -5.1400   10.3840 C.3   306  GLU306      0.1163
     58  CD       -41.3350   -4.2280   11.4110 C.2   306  GLU306      0.3649
     59  OE1      -42.5820   -4.2170   11.5010 O.co2 306  GLU306     -0.2457
     60  OE2      -40.5960   -3.5250   12.1310 O.co2 306  GLU306     -0.2457
     61  N        -40.4200    4.8540    3.3800 N.3   345  ASP345     -0.1225
     62  CA       -39.5840    4.1060    4.3060 C.3   345  ASP345      0.1805
     63  C        -38.4850    3.3690    3.5460 C.2   345  ASP345      0.2597
     64  O        -38.6090    3.0710    2.3540 O.2   345  ASP345     -0.2718
     65  CB       -40.4280    3.1210    5.1110 C.3   345  ASP345      0.1424
     66  CG       -40.9180    3.7090    6.4190 C.2   345  ASP345      0.3668
     67  OD1      -40.0950    4.2980    7.1510 O.co2 345  ASP345     -0.2456
     68  OD2      -42.1240    3.5810    6.7140 O.co2 345  ASP345     -0.2456
     69  N        -37.3990    3.0720    4.2600 N.am  346  GLU346     -0.1979
     70  CA       -36.1790    2.5800    3.6290 C.3   346  GLU346      0.1602
     71  C        -36.4480    1.3560    2.7650 C.2   346  GLU346      0.2287
     72  O        -37.0200    0.3630    3.2240 O.2   346  GLU346     -0.2864
     73  CB       -35.1300    2.2500    4.6920 C.3   346  GLU346      0.0415
     74  CG       -33.7740    1.8670    4.1110 C.3   346  GLU346      0.1163
     75  CD       -33.1850    2.9560    3.2280 C.2   346  GLU346      0.3649
     76  OE1      -33.3340    4.1490    3.5700 O.co2 346  GLU346     -0.2457
     77  OE2      -32.5710    2.6190    2.1920 O.co2 346  GLU346     -0.2457
     78  N        -40.2910   10.0010    4.5420 N.3   402  TRP402     -0.1241
     79  CA       -39.4060    9.8560    5.6830 C.3   402  TRP402      0.1605
     80  C        -37.9610   10.1230    5.2760 C.2   402  TRP402      0.2264
     81  O        -37.5880   10.0130    4.1050 O.2   402  TRP402     -0.2867
     82  CB       -39.5140    8.4510    6.2760 C.3   402  TRP402      0.0550
     83  CG       -40.7100    8.2390    7.1420 C.ar  402  TRP402      0.0003
     84  CD1      -41.8920    7.6620    6.7810 C.ar  402  TRP402      0.0946
     85  CD2      -40.8420    8.5950    8.5230 C.ar  402  TRP402      0.0152
     86  NE1      -42.7540    7.6400    7.8500 N.ar  402  TRP402     -0.2442
     87  CE2      -42.1330    8.2060    8.9320 C.ar  402  TRP402      0.0810
     88  CE3      -39.9950    9.2050    9.4530 C.ar  402  TRP402      0.0012
     89  CZ2      -42.5960    8.4060   10.2290 C.ar  402  TRP402      0.0191
     90  CZ3      -40.4570    9.4030   10.7420 C.ar  402  TRP402      0.0001
     91  CH2      -41.7450    9.0040   11.1180 C.ar  402  TRP402      0.0015
     92  N        -36.9790   10.9100   11.5730 N.3   426  TRP426     -0.1241
     93  CA       -36.8950    9.9860   12.6980 C.3   426  TRP426      0.1605
     94  C        -35.5400   10.0100   13.3900 C.2   426  TRP426      0.2264
     95  O        -35.4320    9.5280   14.5220 O.2   426  TRP426     -0.2867
     96  CB       -37.2070    8.5480   12.2520 C.3   426  TRP426      0.0550
     97  CG       -36.2780    7.9990   11.2020 C.ar  426  TRP426      0.0003
     98  CD1      -36.5190    7.9150    9.8610 C.ar  426  TRP426      0.0946
     99  CD2      -34.9680    7.4470   11.4070 C.ar  426  TRP426      0.0152
    100  NE1      -35.4400    7.3570    9.2190 N.ar  426  TRP426     -0.2442
    101  CE2      -34.4760    7.0600   10.1450 C.ar  426  TRP426      0.0810
    102  CE3      -34.1640    7.2450   12.5350 C.ar  426  TRP426      0.0012
    103  CZ2      -33.2160    6.4870    9.9790 C.ar  426  TRP426      0.0191
    104  CZ3      -32.9140    6.6770   12.3670 C.ar  426  TRP426      0.0001
    105  CH2      -32.4530    6.3040   11.0990 C.ar  426  TRP426      0.0015
    106  N        -40.6530    8.2000   19.5660 N.3   453  TYR453     -0.1241
    107  CA       -41.1100    6.8660   19.1830 C.3   453  TYR453      0.1605
    108  C        -41.7490    6.2410   20.4170 C.2   453  TYR453      0.2264
    109  O        -41.0560    5.7470   21.3120 O.2   453  TYR453     -0.2867
    110  CB       -39.9570    6.0250   18.6480 C.3   453  TYR453      0.0534
    111  CG       -39.7940    6.0880   17.1440 C.ar  453  TYR453     -0.0201
    112  CD1      -40.1810    7.2170   16.4290 C.ar  453  TYR453     -0.0009
    113  CD2      -39.2520    5.0190   16.4400 C.ar  453  TYR453     -0.0009
    114  CE1      -40.0340    7.2790   15.0540 C.ar  453  TYR453      0.0417
    115  CE2      -39.1000    5.0720   15.0630 C.ar  453  TYR453      0.0417
    116  CZ       -39.4940    6.2030   14.3770 C.ar  453  TYR453      0.1957
    117  OH       -39.3450    6.2580   13.0120 O.3   453  TYR453     -0.2866
    118  N        -40.2140   -8.4560   20.2060 N.3   461  TRP461     -0.1227
    119  CA       -41.2330   -9.2550   19.5420 C.3   461  TRP461      0.1737
    120  C        -40.6630  -10.2600   18.5490 C.2   461  TRP461      0.2595
    121  O        -41.4250  -11.0710   18.0100 O.2   461  TRP461     -0.2718
    122  CB       -42.2680   -8.3520   18.8480 C.3   461  TRP461      0.0564
    123  CG       -41.7780   -7.5520   17.6780 C.ar  461  TRP461      0.0003
    124  CD1      -41.1910   -6.3200   17.7150 C.ar  461  TRP461      0.0946
    125  CD2      -41.8780   -7.9060   16.2920 C.ar  461  TRP461      0.0152
    126  NE1      -40.9040   -5.8920   16.4410 N.ar  461  TRP461     -0.2442
    127  CE2      -41.3150   -6.8480   15.5490 C.ar  461  TRP461      0.0810
    128  CE3      -42.3790   -9.0200   15.6090 C.ar  461  TRP461      0.0012
    129  CZ2      -41.2380   -6.8710   14.1560 C.ar  461  TRP461      0.0191
    130  CZ3      -42.3040   -9.0400   14.2250 C.ar  461  TRP461      0.0001
    131  CH2      -41.7370   -7.9730   13.5140 C.ar  461  TRP461      0.0015
    132  N        -39.3560  -10.2330   18.2960 N.am  462  VAL462     -0.1980
    133  CA       -38.6370  -11.3590   17.7100 C.3   462  VAL462      0.1595
    134  C        -37.4480  -11.6540   18.6140 C.2   462  VAL462      0.2287
    135  O        -36.7220  -10.7370   19.0130 O.2   462  VAL462     -0.2864
    136  CB       -38.1820  -11.0920   16.2600 C.3   462  VAL462      0.0276
    137  CG1      -39.3830  -10.9370   15.3380 C.3   462  VAL462      0.0022
    138  CG2      -37.2890   -9.8730   16.1800 C.3   462  VAL462      0.0022
    139  N        -36.1040   -2.6340   19.6440 N.3   468  TRP468     -0.1241
    140  CA       -34.8570   -2.1030   19.0980 C.3   468  TRP468      0.1605
    141  C        -34.5030   -0.7380   19.6800 C.2   468  TRP468      0.2264
    142  O        -33.3220   -0.4410   19.8940 O.2   468  TRP468     -0.2867
    143  CB       -34.9480   -2.0290   17.5730 C.3   468  TRP468      0.0550
    144  CG       -35.8040   -0.9080   17.0750 C.ar  468  TRP468      0.0003
    145  CD1      -37.1540   -0.9300   16.8840 C.ar  468  TRP468      0.0946
    146  CD2      -35.3670    0.4050   16.7060 C.ar  468  TRP468      0.0152
    147  NE1      -37.5860    0.2890   16.4190 N.ar  468  TRP468     -0.2442
    148  CE2      -36.5080    1.1260   16.3010 C.ar  468  TRP468      0.0810
    149  CE3      -34.1220    1.0410   16.6790 C.ar  468  TRP468      0.0012
    150  CZ2      -36.4420    2.4500   15.8720 C.ar  468  TRP468      0.0191
    151  CZ3      -34.0580    2.3550   16.2540 C.ar  468  TRP468      0.0001
    152  CH2      -35.2100    3.0450   15.8550 C.ar  468  TRP468      0.0015
    153  N        -45.8240    3.1570   16.4680 N.3   502  TRP502     -0.1241
    154  CA       -45.7650    1.9410   15.6730 C.3   502  TRP502      0.1605
    155  C        -46.3840    0.7990   16.4650 C.2   502  TRP502      0.2264
    156  O        -46.2720    0.7460   17.6920 O.2   502  TRP502     -0.2867
    157  CB       -44.3200    1.6340   15.2900 C.3   502  TRP502      0.0550
    158  CG       -43.6680    2.8000   14.6170 C.ar  502  TRP502      0.0003
    159  CD1      -42.7150    3.6260   15.1410 C.ar  502  TRP502      0.0946
    160  CD2      -43.9450    3.2910   13.3000 C.ar  502  TRP502      0.0152
    161  NE1      -42.3730    4.5940   14.2270 N.ar  502  TRP502     -0.2442
    162  CE2      -43.1140    4.4090   13.0880 C.ar  502  TRP502      0.0810
    163  CE3      -44.8100    2.8890   12.2780 C.ar  502  TRP502      0.0012
    164  CZ2      -43.1230    5.1300   11.8960 C.ar  502  TRP502      0.0191
    165  CZ3      -44.8190    3.6050   11.0950 C.ar  502  TRP502      0.0001
    166  CH2      -43.9810    4.7130   10.9140 C.ar  502  TRP502      0.0015
    167  N        -46.2750   -2.7560   16.1920 N.3   504  GLU504     -0.1245
    168  CA       -45.8140   -4.1350   16.3150 C.3   504  GLU504      0.1567
    169  C        -46.1950   -4.7170   17.6700 C.2   504  GLU504      0.2260
    170  O        -46.4410   -5.9230   17.7850 O.2   504  GLU504     -0.2867
    171  CB       -44.2990   -4.2170   16.1130 C.3   504  GLU504      0.0388
    172  CG       -43.8400   -4.0380   14.6740 C.3   504  GLU504      0.1160
    173  CD       -43.5950   -2.5840   14.3180 C.2   504  GLU504      0.3649
    174  OE1      -43.8530   -1.7070   15.1720 O.co2 504  GLU504     -0.2457
    175  OE2      -43.1430   -2.3160   13.1850 O.co2 504  GLU504     -0.2457
@<TRIPOS>BOND
     1    77    75   ar
     2    64    63    2
     3    12    13    1
     4    71    72    2
     5    71    70    1
     6    14    15    2
     7    14    13    1
     8    75    76   ar
     9    75    74    1
    10    61    62    1
    11    63    69   am
    12    63    62    1
    13    70    69    1
    14    70    73    1
    15    13    16    1
    16    81    80    2
    17    74    73    1
    18    62    65    1
    19    16    17    1
    20    78    79    1
    21    65    66    1
    22    19    17   ar
    23    19    21   ar
    24    80    79    1
    25    17    18   ar
    26    79    82    1
    27    25    24    2
    28    82    83    1
    29    23    22    1
    30    23    24    1
    31    23    26    1
    32    66    68   ar
    33    66    67   ar
    34    21    20   ar
    35    24    36   am
    36    18    20   ar
    37    38    39    2
    38    38    37    1
    39    84    83   ar
    40    84    86   ar
    41    45    46    1
    42    83    85   ar
    43    26    27    1
    44    51    49    1
    45    36    37    1
    46    86    87   ar
    47    37    40    1
    48    55    54    2
    49    46    49    1
    50    46    47    1
    51    85    87   ar
    52    85    88   ar
    53    49    50    1
    54    27    28   ar
    55    27    29   ar
    56    87    89   ar
    57    52    47   am
    58    52    53    1
    59    54    53    1
    60    40    41    1
    61   100    98   ar
    62   100   101   ar
    63    32    29   ar
    64    32    34   ar
    65    47    48    2
    66    28    30   ar
    67    88    90   ar
    68    29    31   ar
    69    11     9    1
    70    98    97   ar
    71    53    56    1
    72   103   101   ar
    73   103   105   ar
    74   101    99   ar
    75     8     9    2
    76     8     7    1
    77    89    91   ar
    78     9    10    1
    79    57    56    1
    80    57    58    1
    81    41    42    1
    82    34    35   ar
    83    90    91   ar
    84    30    31   ar
    85     7     6    1
    86    31    33   ar
    87   166   165   ar
    88   166   164   ar
    89   165   163   ar
    90   105   104   ar
    91    97    99   ar
    92    97    96    1
    93    99   102   ar
    94    58    59   ar
    95    58    60   ar
    96     1     2    1
    97    92    93    1
    98    42    43    1
    99    35    33   ar
   100   164   162   ar
   101     6     5    1
   102     2     5    1
   103     2     3    1
   104    96    93    1
   105   163   160   ar
   106   104   102   ar
   107    93    94    1
   108    43    44    1
   109   117   116    1
   110   162   160   ar
   111   162   161   ar
   112   175   173   ar
   113     3     4    2
   114   160   158   ar
   115    94    95    2
   116   131   129   ar
   117   131   130   ar
   118   129   127   ar
   119   130   128   ar
   120   161   159   ar
   121   173   172    1
   122   173   174   ar
   123   116   114   ar
   124   116   115   ar
   125   158   159   ar
   126   158   157    1
   127   172   171    1
   128   114   112   ar
   129   115   113   ar
   130   157   154    1
   131   137   136    1
   132   127   125   ar
   133   127   126   ar
   134   128   125   ar
   135   154   155    1
   136   154   153    1
   137   152   150   ar
   138   152   151   ar
   139   150   148   ar
   140   171   168    1
   141   138   136    1
   142   167   168    1
   143   151   149   ar
   144   136   133    1
   145   125   123   ar
   146   148   147   ar
   147   148   146   ar
   148   168   169    1
   149   147   145   ar
   150   112   111   ar
   151   113   111   ar
   152   126   124   ar
   153   155   156    2
   154   149   146   ar
   155   146   144   ar
   156   145   144   ar
   157   144   143    1
   158   111   110    1
   159   143   140    1
   160   169   170    2
   161   123   124   ar
   162   123   122    1
   163   133   132    1
   164   133   134    1
   165   121   120    2
   166   132   120   am
   167   120   119    1
   168   134   135    2
   169   110   107    1
   170   122   119    1
   171   140   139    1
   172   140   141    1
   173   107   106    1
   174   107   108    1
   175   119   118    1
   176   141   142    2
   177   108   109    2
