@<TRIPOS>MOLECULE
tmp/5y0xA00.pdb
 207 191 0 0 0
SMALL
GASTEIGER

@<TRIPOS>ATOM
      1  N        -10.9020   -1.3950  -21.1490 N.3    21  PHE21      -0.1241
      2  CA       -10.0800   -0.2240  -21.4590 C.3    21  PHE21       0.1605
      3  C         -9.7170   -0.1620  -22.9390 C.2    21  PHE21       0.2264
      4  O         -9.6410    0.9340  -23.5090 O.2    21  PHE21      -0.2867
      5  CB        -8.8100   -0.2110  -20.5910 C.3    21  PHE21       0.0534
      6  CG        -8.0680    1.1160  -20.5890 C.ar   21  PHE21      -0.0203
      7  CD1       -8.7250    2.2940  -20.2890 C.ar   21  PHE21      -0.0042
      8  CD2       -6.7020    1.1720  -20.8540 C.ar   21  PHE21      -0.0042
      9  CE1       -8.0470    3.5080  -20.2780 C.ar   21  PHE21      -0.0003
     10  CE2       -6.0210    2.3960  -20.8360 C.ar   21  PHE21      -0.0003
     11  CZ        -6.7000    3.5580  -20.5520 C.ar   21  PHE21      -0.0000
     12  N        -12.6710    1.3170  -24.7270 N.3    24  TYR24      -0.1227
     13  CA       -12.7380    2.7410  -24.4260 C.3    24  TYR24       0.1736
     14  C        -11.7300    3.5200  -25.2590 C.2    24  TYR24       0.2595
     15  O        -12.0730    4.5310  -25.8770 O.2    24  TYR24      -0.2718
     16  CB       -12.5010    2.9680  -22.9310 C.3    24  TYR24       0.0548
     17  CG       -12.2840    4.4130  -22.5800 C.ar   24  TYR24      -0.0200
     18  CD1      -13.3560    5.2900  -22.4910 C.ar   24  TYR24      -0.0009
     19  CD2      -11.0020    4.9130  -22.3750 C.ar   24  TYR24      -0.0009
     20  CE1      -13.1590    6.6290  -22.1730 C.ar   24  TYR24       0.0417
     21  CE2      -10.7880    6.2410  -22.0600 C.ar   24  TYR24       0.0417
     22  CZ       -11.8670    7.1030  -21.9700 C.ar   24  TYR24       0.1957
     23  OH       -11.6480    8.4210  -21.6580 O.3    24  TYR24      -0.2866
     24  N        -10.4770    3.0440  -25.3000 N.am   25  MET25      -0.1979
     25  CA        -9.4450    3.7280  -26.0750 C.3    25  MET25       0.1605
     26  C         -9.7830    3.7440  -27.5650 C.2    25  MET25       0.2287
     27  O         -9.5370    4.7410  -28.2480 O.2    25  MET25      -0.2864
     28  CB        -8.0840    3.0660  -25.8600 C.3    25  MET25       0.0413
     29  CG        -7.4800    3.3090  -24.4840 C.3    25  MET25       0.0598
     30  SD        -5.7520    2.7760  -24.4680 S.3    25  MET25      -0.1393
     31  CE        -5.9390    1.0140  -24.4760 C.3    25  MET25       0.0692
     32  N        -12.2130    6.5390  -28.0680 N.3    28  VAL28      -0.1245
     33  CA       -11.5560    7.8340  -27.9560 C.3    28  VAL28       0.1561
     34  C        -10.7920    8.1560  -29.2350 C.2    28  VAL28       0.2260
     35  O        -10.5950    9.3290  -29.5690 O.2    28  VAL28      -0.2867
     36  CB       -10.6490    7.8280  -26.7040 C.3    28  VAL28       0.0252
     37  CG1       -9.6960    9.0240  -26.7010 C.3    28  VAL28       0.0019
     38  CG2      -11.5000    7.8240  -25.4350 C.3    28  VAL28       0.0019
     39  N         -7.7390    6.2560  -30.0430 N.3    30  VAL30      -0.1245
     40  CA        -6.3340    5.9120  -29.8570 C.3    30  VAL30       0.1561
     41  C         -5.9170    4.9010  -30.9170 C.2    30  VAL30       0.2260
     42  O         -6.6370    3.9300  -31.1840 O.2    30  VAL30      -0.2867
     43  CB        -6.1190    5.3690  -28.4340 C.3    30  VAL30       0.0252
     44  CG1       -4.6390    5.0860  -28.1610 C.3    30  VAL30       0.0019
     45  CG2       -6.6970    6.3520  -27.3930 C.3    30  VAL30       0.0019
     46  N         -0.1490    1.1020  -24.1550 N.3    38  ALA38      -0.1245
     47  CA        -0.8330    1.6940  -23.0070 C.3    38  ALA38       0.1562
     48  C         -1.6550    0.6660  -22.2500 C.2    38  ALA38       0.2260
     49  O         -1.7800    0.7560  -21.0260 O.2    38  ALA38      -0.2867
     50  CB        -1.7210    2.8540  -23.4550 C.3    38  ALA38       0.0290
     51  N          0.3270   -1.1890  -19.4590 N.3    41  ALA41      -0.1245
     52  CA         0.8620   -0.4550  -18.3210 C.3    41  ALA41       0.1562
     53  C          0.0630   -0.7180  -17.0480 C.2    41  ALA41       0.2260
     54  O         -1.1660   -0.8510  -17.0750 O.2    41  ALA41      -0.2867
     55  CB         0.8670    1.0430  -18.6280 C.3    41  ALA41       0.0290
     56  N         -0.0110    1.5130  -14.0450 N.3    43  PRO43      -0.2116
     57  CA         0.5020    2.7660  -13.4830 C.3    43  PRO43       0.1372
     58  C          0.3010    2.8610  -11.9790 C.2    43  PRO43       0.2244
     59  O         -0.5630    2.2150  -11.3810 O.2    43  PRO43      -0.2868
     60  CB        -0.3140    3.8460  -14.2050 C.3    43  PRO43       0.0268
     61  CG        -0.9950    3.1460  -15.3500 C.3    43  PRO43       0.0207
     62  CD        -1.1920    1.7370  -14.8910 C.3    43  PRO43       0.0892
     63  N         -0.5960    5.9300   -9.3260 N.3    45  MET45      -0.1245
     64  CA        -1.2160    7.2430   -9.3220 C.3    45  MET45       0.1570
     65  C         -0.9270    7.8710   -7.9720 C.2    45  MET45       0.2261
     66  O         -1.1620    7.2460   -6.9380 O.2    45  MET45      -0.2867
     67  CB        -2.7230    7.1470   -9.5630 C.3    45  MET45       0.0387
     68  CG        -3.4270    8.4770   -9.5650 C.3    45  MET45       0.0595
     69  SD        -5.1560    8.3000  -10.0080 S.3    45  MET45      -0.1393
     70  CE        -5.6150    6.8650   -9.0430 C.3    45  MET45       0.0692
     71  N          0.8690   10.3790  -12.5860 N.3    58  SER58      -0.1217
     72  CA         0.8200    8.9830  -12.9890 C.3    58  SER58       0.1889
     73  C          2.2000    8.5610  -13.4570 C.2    58  SER58       0.2288
     74  O          2.7920    9.2180  -14.3150 O.2    58  SER58      -0.2866
     75  CB        -0.2020    8.7600  -14.0960 C.3    58  SER58       0.2089
     76  OG        -0.3800    7.3650  -14.3310 O.3    58  SER58      -0.2183
     77  N          4.2620    5.2740  -15.0650 N.3    60  SER60      -0.1217
     78  CA         4.2120    3.9140  -15.5790 C.3    60  SER60       0.1889
     79  C          5.3270    3.7220  -16.5930 C.2    60  SER60       0.2288
     80  O          6.0850    4.6460  -16.9010 O.2    60  SER60      -0.2866
     81  CB         2.8430    3.5810  -16.1900 C.3    60  SER60       0.2089
     82  OG         2.6950    4.1420  -17.4760 O.3    60  SER60      -0.2183
     83  N          4.6450    3.1850  -19.6090 N.3    62  PHE62      -0.1241
     84  CA         4.1330    3.8020  -20.8270 C.3    62  PHE62       0.1605
     85  C          4.4860    5.2820  -20.8720 C.2    62  PHE62       0.2264
     86  O          5.2300    5.7300  -21.7490 O.2    62  PHE62      -0.2867
     87  CB         2.6200    3.6010  -20.9090 C.3    62  PHE62       0.0534
     88  CG         1.9560    4.3710  -22.0120 C.ar   62  PHE62      -0.0203
     89  CD1        2.3460    4.2040  -23.3340 C.ar   62  PHE62      -0.0042
     90  CD2        0.9020    5.2240  -21.7350 C.ar   62  PHE62      -0.0042
     91  CE1        1.7210    4.9130  -24.3570 C.ar   62  PHE62      -0.0003
     92  CE2        0.2670    5.9280  -22.7450 C.ar   62  PHE62      -0.0003
     93  CZ         0.6800    5.7740  -24.0640 C.ar   62  PHE62      -0.0000
     94  N         -4.2870   20.2270  -20.9260 N.3    77  GLU77      -0.1245
     95  CA        -3.7350   18.9300  -20.5670 C.3    77  GLU77       0.1567
     96  C         -3.2690   18.2470  -21.8440 C.2    77  GLU77       0.2260
     97  O         -3.9920   18.2410  -22.8420 O.2    77  GLU77      -0.2867
     98  CB        -4.7780   18.0620  -19.8300 C.3    77  GLU77       0.0388
     99  CG        -4.2830   16.6790  -19.3850 C.3    77  GLU77       0.1160
    100  CD        -5.3800   15.8020  -18.7770 C.2    77  GLU77       0.3649
    101  OE1       -6.5630   16.2150  -18.7790 O.co2  77  GLU77      -0.2457
    102  OE2       -5.0570   14.6920  -18.2990 O.co2  77  GLU77      -0.2457
    103  N         -2.5910   14.5730  -22.7350 N.3    79  THR79      -0.1203
    104  CA        -2.8760   13.2770  -22.1430 C.3    79  THR79       0.1994
    105  C         -1.7670   12.2740  -22.4560 C.2    79  THR79       0.2618
    106  O         -0.9050   12.5020  -23.3060 O.2    79  THR79      -0.2717
    107  CB        -4.2030   12.7600  -22.6650 C.3    79  THR79       0.1784
    108  OG1       -4.0950   12.5440  -24.0800 O.3    79  THR79      -0.2211
    109  CG2       -5.2960   13.7780  -22.4070 C.3    79  THR79       0.0376
    110  N         -1.8210   11.1300  -21.7700 N.am   80  ALA80      -0.1965
    111  CA        -0.7930   10.1080  -21.9550 C.3    80  ALA80       0.1728
    112  C         -0.7600    9.5990  -23.3870 C.2    80  ALA80       0.2616
    113  O          0.3110    9.2350  -23.8920 O.2    80  ALA80      -0.2715
    114  CB        -1.0190    8.9480  -20.9930 C.3    80  ALA80       0.0334
    115  N         -1.9090    9.5570  -24.0570 N.am   81  ASP81      -0.1971
    116  CA        -1.9660    9.1430  -25.4530 C.3    81  ASP81       0.1709
    117  C         -1.7270   10.3000  -26.4220 C.2    81  ASP81       0.2293
    118  O         -1.9520   10.1400  -27.6260 O.2    81  ASP81      -0.2864
    119  CB        -3.3090    8.4720  -25.7440 C.3    81  ASP81       0.1436
    120  CG        -4.4880    9.3620  -25.4270 C.2    81  ASP81       0.3671
    121  OD1       -4.5440    9.9280  -24.3050 O.co2  81  ASP81      -0.2456
    122  OD2       -5.3730    9.4850  -26.3000 O.co2  81  ASP81      -0.2456
    123  N         -3.1360   13.4330  -26.7120 N.3    83  ARG83      -0.1245
    124  CA        -4.1510   14.3850  -27.1220 C.3    83  ARG83       0.1563
    125  C         -3.9040   15.6850  -26.3790 C.2    83  ARG83       0.2260
    126  O         -3.4830   15.6740  -25.2200 O.2    83  ARG83      -0.2867
    127  CB        -5.5650   13.8860  -26.8220 C.3    83  ARG83       0.0307
    128  CG        -6.0700   12.7650  -27.7040 C.3    83  ARG83       0.0489
    129  CD        -7.3850   12.2170  -27.1510 C.3    83  ARG83       0.2205
    130  NE        -7.1350   11.4840  -25.9180 N.pl3  83  ARG83      -0.0865
    131  CZ        -7.7840   11.6710  -24.7680 C.cat  83  ARG83       0.5346
    132  NH1       -8.7620   12.5680  -24.6690 N.pl3  83  ARG83       0.1354
    133  NH2       -7.4530   10.9400  -23.7120 N.pl3  83  ARG83       0.1354
    134  N        -14.0060   14.5540  -14.2220 N.3    98  HIS98      -0.1241
    135  CA       -12.9810   15.1310  -15.0890 C.3    98  HIS98       0.1621
    136  C        -13.4840   15.0470  -16.5280 C.2    98  HIS98       0.2264
    137  O        -13.6700   13.9480  -17.0590 O.2    98  HIS98      -0.2867
    138  CB       -11.6750   14.3650  -14.8720 C.3    98  HIS98       0.0745
    139  CG       -10.5370   14.8020  -15.7350 C.ar   98  HIS98       0.0817
    140  ND1       -9.2860   14.2300  -15.6320 N.ar   98  HIS98      -0.2268
    141  CD2      -10.4430   15.7520  -16.6920 C.ar   98  HIS98       0.1154
    142  CE1       -8.4710   14.8140  -16.4950 C.ar   98  HIS98       0.1986
    143  NE2       -9.1490   15.7310  -17.1590 N.ar   98  HIS98      -0.2212
    144  N        -12.7180   15.9930  -20.4590 N.3   100  GLN100     -0.1245
    145  CA       -11.7100   16.3770  -21.4440 C.3   100  GLN100      0.1566
    146  C        -12.4150   16.6790  -22.7570 C.2   100  GLN100      0.2260
    147  O        -13.1950   15.8540  -23.2380 O.2   100  GLN100     -0.2867
    148  CB       -10.6810   15.2640  -21.6690 C.3   100  GLN100      0.0367
    149  CG        -9.8390   14.8750  -20.4630 C.3   100  GLN100      0.0905
    150  CD        -8.9430   13.6750  -20.7430 C.2   100  GLN100      0.2608
    151  OE1       -9.1850   12.9070  -21.6780 O.2   100  GLN100     -0.2717
    152  NE2       -7.9080   13.4990  -19.9250 N.am  100  GLN100     -0.0878
    153  N        -14.1520   11.2340  -17.1040 N.3   109  ILE109     -0.1245
    154  CA       -13.4240   10.3270  -16.2330 C.3   109  ILE109      0.1561
    155  C        -13.8670   10.6380  -14.8140 C.2   109  ILE109      0.2260
    156  O        -13.7050   11.7740  -14.3460 O.2   109  ILE109     -0.2867
    157  CB       -11.9060   10.5060  -16.3800 C.3   109  ILE109      0.0252
    158  CG1      -11.4790   10.2760  -17.8300 C.3   109  ILE109      0.0019
    159  CG2      -11.1740    9.5690  -15.4330 C.3   109  ILE109      0.0019
    160  CD1      -10.5280   11.3230  -18.3360 C.3   109  ILE109      0.0001
    161  N        -13.6350    9.6330  -10.7160 N.3   111  ARG111     -0.1245
    162  CA       -12.7780    8.9760   -9.7400 C.3   111  ARG111      0.1563
    163  C        -13.4960    8.9980   -8.3990 C.2   111  ARG111      0.2260
    164  O        -13.9250   10.0610   -7.9520 O.2   111  ARG111     -0.2867
    165  CB       -11.4120    9.6790   -9.6560 C.3   111  ARG111      0.0307
    166  CG       -10.5980    9.6770  -10.9680 C.3   111  ARG111      0.0489
    167  CD        -9.3430   10.5710  -10.8670 C.3   111  ARG111      0.2205
    168  NE        -8.4730   10.5240  -12.0540 N.pl3 111  ARG111     -0.0865
    169  CZ        -8.5170   11.3770  -13.0780 C.cat 111  ARG111      0.5346
    170  NH1       -9.3980   12.3680  -13.1100 N.pl3 111  ARG111      0.1354
    171  NH2       -7.6660   11.2440  -14.0930 N.pl3 111  ARG111      0.1354
    172  N        -11.9060    4.2250  -10.9820 N.3   120  VAL120     -0.1245
    173  CA       -11.9050    5.1790  -12.0890 C.3   120  VAL120      0.1561
    174  C        -12.8470    4.6290  -13.1510 C.2   120  VAL120      0.2260
    175  O        -12.6800    3.4940  -13.6070 O.2   120  VAL120     -0.2867
    176  CB       -10.5010    5.4060  -12.6810 C.3   120  VAL120      0.0252
    177  CG1      -10.5460    6.4960  -13.7320 C.3   120  VAL120      0.0019
    178  CG2       -9.4980    5.7690  -11.5960 C.3   120  VAL120      0.0019
    179  N        -14.2280    5.5150  -16.8900 N.3   122  CYS122     -0.1235
    180  CA       -13.9690    6.3080  -18.0860 C.3   122  CYS122      0.1677
    181  C        -15.1040    6.0840  -19.0750 C.2   122  CYS122      0.2270
    182  O        -15.4320    4.9360  -19.3800 O.2   122  CYS122     -0.2867
    183  CB       -12.6390    5.8980  -18.7280 C.3   122  CYS122      0.0956
    184  SG       -11.2370    5.9400  -17.5810 S.3   122  CYS122     -0.0801
    185  N        -11.4050    1.0760  -14.0610 N.3   131  ARG131     -0.1245
    186  CA       -10.0600    0.7810  -13.5950 C.3   131  ARG131      0.1563
    187  C        -10.0220    0.9460  -12.0870 C.2   131  ARG131      0.2260
    188  O        -10.4950    1.9560  -11.5520 O.2   131  ARG131     -0.2867
    189  CB        -9.0310    1.6670  -14.2960 C.3   131  ARG131      0.0307
    190  CG        -8.7740    1.1510  -15.7260 C.3   131  ARG131      0.0489
    191  CD        -8.2370    2.1920  -16.6460 C.3   131  ARG131      0.2205
    192  NE        -6.7880    2.3730  -16.5440 N.pl3 131  ARG131     -0.0865
    193  CZ        -5.8760    1.5230  -17.0080 C.cat 131  ARG131      0.5346
    194  NH1       -6.2370    0.3900  -17.5880 N.pl3 131  ARG131      0.1354
    195  NH2       -4.5920    1.8140  -16.8800 N.pl3 131  ARG131      0.1354
    196  N         -7.8690    0.9140   -8.4970 N.3   133  TYR133     -0.1241
    197  CA        -6.5870    1.1390   -7.8420 C.3   133  TYR133      0.1605
    198  C         -6.6840    0.7940   -6.3620 C.2   133  TYR133      0.2264
    199  O         -7.7090    1.0310   -5.7200 O.2   133  TYR133     -0.2867
    200  CB        -6.1420    2.6040   -7.9730 C.3   133  TYR133      0.0534
    201  CG        -5.7300    2.9900   -9.3610 C.ar  133  TYR133     -0.0201
    202  CD1       -6.6790    3.2330  -10.3330 C.ar  133  TYR133     -0.0009
    203  CD2       -4.3850    3.1030   -9.7010 C.ar  133  TYR133     -0.0009
    204  CE1       -6.3100    3.5930  -11.6310 C.ar  133  TYR133      0.0417
    205  CE2       -4.0010    3.4670  -10.9880 C.ar  133  TYR133      0.0417
    206  CZ        -4.9680    3.7070  -11.9470 C.ar  133  TYR133      0.1957
    207  OH        -4.5900    4.0740  -13.2300 O.3   133  TYR133     -0.2866
@<TRIPOS>BOND
     1    42    41    2
     2    41    40    1
     3    39    40    1
     4    40    43    1
     5    35    34    2
     6    34    33    1
     7    43    44    1
     8    43    45    1
     9    27    26    2
    10    32    33    1
    11    33    36    1
    12   128   129    1
    13   128   127    1
    14   118   117    2
    15    26    25    1
    16   129   130    1
    17   124   127    1
    18   124   123    1
    19   124   125    1
    20    36    37    1
    21    36    38    1
    22   117   116    1
    23   125   126    2
    24   122   120   ar
    25    25    28    1
    26    25    24    1
    27   130   131    2
    28    15    14    2
    29    28    29    1
    30   119   116    1
    31   119   120    1
    32   116   115    1
    33   120   121   ar
    34    24    14   am
    35    14    13    1
    36   131   132    1
    37   131   133    1
    38    12    13    1
    39    29    30    1
    40    31    30    1
    41    13    16    1
    42    91    93   ar
    43    91    89   ar
    44    46    47    1
    45   108   107    1
    46    93    92   ar
    47   115   112   am
    48   113   112    2
    49     4     3    2
    50    50    47    1
    51   112   111    1
    52    89    88   ar
    53   106   105    2
    54   147   146    2
    55    47    48    1
    56     3     2    1
    57    16    17    1
    58    97    96    2
    59   146   145    1
    60    92    90   ar
    61   103   104    1
    62   107   109    1
    63   107   104    1
    64    17    18   ar
    65    17    19   ar
    66    18    20   ar
    67   105   104    1
    68   105   110   am
    69    19    21   ar
    70    48    49    2
    71    20    22   ar
    72    21    22   ar
    73    88    90   ar
    74    88    87    1
    75    22    23    1
    76   111   110    1
    77   111   114    1
    78    96    95    1
    79    86    85    2
    80   151   150    2
    81   148   145    1
    82   148   149    1
    83     2     1    1
    84     2     5    1
    85   145   144    1
    86    94    95    1
    87    87    84    1
    88    85    84    1
    89     8    10   ar
    90     8     6   ar
    91    10    11   ar
    92    84    83    1
    93   150   149    1
    94   150   152   am
    95     5     6    1
    96     6     7   ar
    97    95    98    1
    98    11     9   ar
    99     7     9   ar
   100    98    99    1
   101    51    52    1
   102    99   100    1
   103   182   181    2
   104   181   180    1
   105   101   100   ar
   106   100   102   ar
   107   183   180    1
   108   183   184    1
   109    55    52    1
   110   160   158    1
   111    52    53    1
   112   180   179    1
   113   158   157    1
   114   194   193    1
   115    82    81    1
   116   143   141   ar
   117   143   142   ar
   118   153   154    1
   119    54    53    2
   120   137   136    2
   121   193   195    1
   122   193   192    2
   123    80    79    2
   124   141   139   ar
   125   191   192    1
   126   191   190    1
   127    79    78    1
   128   136   135    1
   129   142   140   ar
   130   157   154    1
   131   157   159    1
   132   154   155    1
   133    81    78    1
   134   139   140   ar
   135   139   138    1
   136   190   189    1
   137    78    77    1
   138    61    62    1
   139    61    60    1
   140   135   138    1
   141   135   134    1
   142    62    56    1
   143   155   156    2
   144    76    75    1
   145    74    73    2
   146   189   186    1
   147    60    57    1
   148    75    72    1
   149   171   169    1
   150   185   186    1
   151    56    57    1
   152   177   176    1
   153   175   174    2
   154   186   187    1
   155    57    58    1
   156    73    72    1
   157   207   206    1
   158   174   173    1
   159   170   169    1
   160   169   168    2
   161    72    71    1
   162   176   173    1
   163   176   178    1
   164   173   172    1
   165   187   188    2
   166   168   167    1
   167    58    59    2
   168   206   204   ar
   169   206   205   ar
   170   204   202   ar
   171   205   203   ar
   172   166   167    1
   173   166   165    1
   174   161   162    1
   175   202   201   ar
   176    69    68    1
   177    69    70    1
   178   162   165    1
   179   162   163    1
   180   203   201   ar
   181    68    67    1
   182    67    64    1
   183   201   200    1
   184    63    64    1
   185    64    65    1
   186   196   197    1
   187   163   164    2
   188   200   197    1
   189    65    66    2
   190   197   198    1
   191   198   199    2
