@<TRIPOS>MOLECULE
tmp/5y0zB00.pdb
 206 204 0 0 0
SMALL
GASTEIGER

@<TRIPOS>ATOM
      1  N          3.7810   48.0110   15.5480 N.3    39  ILE39      -0.1245
      2  CA         3.9350   49.0080   14.4990 C.3    39  ILE39       0.1561
      3  C          3.1940   48.5030   13.2610 C.2    39  ILE39       0.2260
      4  O          3.6470   47.5640   12.6050 O.2    39  ILE39      -0.2867
      5  CB         5.4230   49.3210   14.2330 C.3    39  ILE39       0.0252
      6  CG1        6.1150   49.8370   15.4990 C.3    39  ILE39       0.0019
      7  CG2        5.5840   50.2920   13.0720 C.3    39  ILE39       0.0019
      8  CD1        7.6190   49.8470   15.4210 C.3    39  ILE39       0.0001
      9  N          2.1770   50.7330    7.7070 N.3    42  PHE42      -0.1227
     10  CA         1.6450   51.9970    7.2270 C.3    42  PHE42       0.1736
     11  C          1.7700   52.1070    5.7070 C.2    42  PHE42       0.2595
     12  O          1.0480   52.8820    5.0820 O.2    42  PHE42      -0.2718
     13  CB         2.2990   53.1630    7.9750 C.3    42  PHE42       0.0547
     14  CG         2.1250   53.1290    9.4760 C.ar   42  PHE42      -0.0202
     15  CD1        0.8620   53.1820   10.0500 C.ar   42  PHE42      -0.0042
     16  CD2        3.2270   53.0520   10.3190 C.ar   42  PHE42      -0.0042
     17  CE1        0.7060   53.1570   11.4290 C.ar   42  PHE42      -0.0003
     18  CE2        3.0690   53.0300   11.6980 C.ar   42  PHE42      -0.0003
     19  CZ         1.8100   53.0850   12.2490 C.ar   42  PHE42      -0.0000
     20  N          2.6630   51.3010    5.1190 N.am   43  ARG43      -0.1980
     21  CA         2.9870   51.3940    3.7040 C.3    43  ARG43       0.1597
     22  C          1.8410   50.8710    2.8430 C.2    43  ARG43       0.2287
     23  O          1.2900   51.6160    2.0360 O.2    43  ARG43      -0.2864
     24  CB         4.2670   50.6180    3.3780 C.3    43  ARG43       0.0334
     25  CG         4.4540   50.3620    1.8890 C.3    43  ARG43       0.0492
     26  CD         5.8670   49.9750    1.5050 C.3    43  ARG43       0.2205
     27  NE         6.0440   50.0380    0.0620 N.pl3  43  ARG43      -0.0865
     28  CZ         7.1610   49.7130   -0.5770 C.cat  43  ARG43       0.5346
     29  NH1        8.2030   49.2530    0.0980 N.pl3  43  ARG43       0.1354
     30  NH2        7.2310   49.8470   -1.8900 N.pl3  43  ARG43       0.1354
     31  N         -4.0250   53.9370    6.4090 N.3    49  LEU49      -0.1231
     32  CA        -3.3630   55.0830    7.0200 C.3    49  LEU49       0.1693
     33  C         -3.8370   56.3590    6.3310 C.2    49  LEU49       0.2592
     34  O         -4.1240   57.3540    6.9960 O.2    49  LEU49      -0.2718
     35  CB        -1.8390   54.9350    6.8840 C.3    49  LEU49       0.0284
     36  CG        -1.0200   56.2340    6.8820 C.3    49  LEU49       0.0019
     37  CD1       -0.6500   56.6590    8.2940 C.3    49  LEU49       0.0001
     38  CD2        0.2420   56.0920    6.0440 C.3    49  LEU49       0.0001
     39  N         -3.9320   56.2820    4.9970 N.am   50  TYR50      -0.1976
     40  CA        -4.1320   57.4270    4.1240 C.3    50  TYR50       0.1639
     41  C         -5.4940   58.0790    4.3580 C.2    50  TYR50       0.2290
     42  O         -5.6640   59.2570    4.0480 O.2    50  TYR50      -0.2864
     43  CB        -3.9030   57.0380    2.6590 C.3    50  TYR50       0.0560
     44  CG        -2.4590   56.7820    2.2950 C.ar   50  TYR50      -0.0198
     45  CD1       -1.5330   57.8150    2.2920 C.ar   50  TYR50      -0.0009
     46  CD2       -2.0100   55.5130    1.9530 C.ar   50  TYR50      -0.0009
     47  CE1       -0.2030   57.6020    1.9640 C.ar   50  TYR50       0.0417
     48  CE2       -0.6810   55.2820    1.6200 C.ar   50  TYR50       0.0417
     49  CZ         0.2260   56.3300    1.6250 C.ar   50  TYR50       0.1957
     50  OH         1.5380   56.1300    1.3060 O.3    50  TYR50      -0.2866
     51  N          3.8770   62.5610    2.6230 N.3    65  PHE65      -0.1241
     52  CA         5.2020   61.9580    2.5290 C.3    65  PHE65       0.1605
     53  C          5.9900   62.4960    1.3310 C.2    65  PHE65       0.2264
     54  O          7.0470   61.9620    0.9900 O.2    65  PHE65      -0.2867
     55  CB         5.1060   60.4290    2.4720 C.3    65  PHE65       0.0534
     56  CG         4.4110   59.7550    3.6320 C.ar   65  PHE65      -0.0203
     57  CD1        4.7570   60.0370    4.9470 C.ar   65  PHE65      -0.0042
     58  CD2        3.4440   58.7830    3.4020 C.ar   65  PHE65      -0.0042
     59  CE1        4.1250   59.3910    6.0020 C.ar   65  PHE65      -0.0003
     60  CE2        2.8130   58.1380    4.4570 C.ar   65  PHE65      -0.0003
     61  CZ         3.1570   58.4400    5.7560 C.ar   65  PHE65      -0.0000
     62  N          3.0360   66.1180    8.8430 N.3    77  PHE77      -0.1241
     63  CA         3.9160   64.9690    9.0070 C.3    77  PHE77       0.1605
     64  C          4.2500   64.7570   10.4850 C.2    77  PHE77       0.2264
     65  O          4.1940   63.6320   10.9870 O.2    77  PHE77      -0.2867
     66  CB         5.1830   65.1040    8.1550 C.3    77  PHE77       0.0534
     67  CG         6.1810   63.9970    8.3890 C.ar   77  PHE77      -0.0203
     68  CD1        7.1600   64.1180    9.3670 C.ar   77  PHE77      -0.0042
     69  CD2        6.1260   62.8240    7.6490 C.ar   77  PHE77      -0.0042
     70  CE1        8.0710   63.0950    9.5900 C.ar   77  PHE77      -0.0003
     71  CE2        7.0380   61.8010    7.8730 C.ar   77  PHE77      -0.0003
     72  CZ         8.0060   61.9400    8.8430 C.ar   77  PHE77      -0.0000
     73  N          1.2520   63.6660   12.6300 N.3    80  LEU80      -0.1231
     74  CA         1.0130   62.2500   12.3930 C.3    80  LEU80       0.1693
     75  C          2.0140   61.4190   13.1950 C.2    80  LEU80       0.2591
     76  O          1.6440   60.4290   13.8250 O.2    80  LEU80      -0.2718
     77  CB         1.1410   61.9620   10.8930 C.3    80  LEU80       0.0284
     78  CG         0.9390   60.5000   10.4890 C.3    80  LEU80       0.0019
     79  CD1       -0.4850   60.0390   10.7950 C.3    80  LEU80       0.0001
     80  CD2        1.2480   60.3000    9.0130 C.3    80  LEU80       0.0001
     81  N          3.2810   61.8440   13.1590 N.am   81  ALA81      -0.1980
     82  CA         4.3500   61.2030   13.9050 C.3    81  ALA81       0.1597
     83  C          4.0060   61.1740   15.3960 C.2    81  ALA81       0.2287
     84  O          4.1800   60.1500   16.0510 O.2    81  ALA81      -0.2864
     85  CB         5.6520   61.9150   13.6340 C.3    81  ALA81       0.0319
     86  N          1.0610   58.6140   16.1590 N.3    84  LEU84      -0.1231
     87  CA         1.3070   57.1850   16.0170 C.3    84  LEU84       0.1693
     88  C          2.5850   56.7450   16.7350 C.2    84  LEU84       0.2592
     89  O          2.9380   55.5680   16.6640 O.2    84  LEU84      -0.2718
     90  CB         1.3650   56.8120   14.5290 C.3    84  LEU84       0.0284
     91  CG         0.2030   57.2870   13.6520 C.3    84  LEU84       0.0019
     92  CD1        0.3260   56.7250   12.2430 C.3    84  LEU84       0.0001
     93  CD2       -1.1490   56.9200   14.2530 C.3    84  LEU84       0.0001
     94  N          3.2720   57.6680   17.4270 N.am   85  TYR85      -0.1963
     95  CA         4.5230   57.3300   18.0940 C.3    85  TYR85       0.1756
     96  C          4.2770   56.1900   19.0800 C.2    85  TYR85       0.2461
     97  O          3.3340   56.2480   19.8640 O.2    85  TYR85      -0.2730
     98  CB         5.1350   58.5410   18.8070 C.3    85  TYR85       0.0574
     99  CG         6.6450   58.5300   18.8740 C.ar   85  TYR85      -0.0198
    100  CD1        7.4010   59.1120   17.8680 C.ar   85  TYR85      -0.0009
    101  CD2        7.3230   57.9310   19.9290 C.ar   85  TYR85      -0.0009
    102  CE1        8.7860   59.1070   17.9050 C.ar   85  TYR85       0.0417
    103  CE2        8.7100   57.9140   19.9810 C.ar   85  TYR85       0.0417
    104  CZ         9.4420   58.5000   18.9600 C.ar   85  TYR85       0.1957
    105  OH        10.8060   58.5070   18.9940 O.3    85  TYR85      -0.2866
    106  N          5.0920   55.1090   19.0700 N.am   86  PRO86      -0.2727
    107  CA         4.8200   53.9500   19.9200 C.3    86  PRO86       0.1402
    108  C          5.2670   54.1760   21.3610 C.2    86  PRO86       0.2269
    109  O          6.2280   54.9040   21.6110 O.2    86  PRO86      -0.2865
    110  CB         5.6260   52.8290   19.2470 C.3    86  PRO86       0.0296
    111  CG         6.7990   53.5460   18.6130 C.3    86  PRO86       0.0237
    112  CD         6.2910   54.9270   18.2330 C.3    86  PRO86       0.0939
    113  N          9.8420   50.8840   22.0030 N.3    89  PHE89      -0.1241
    114  CA        10.4890   50.2950   20.8410 C.3    89  PHE89       0.1605
    115  C         11.0520   48.9270   21.2230 C.2    89  PHE89       0.2264
    116  O         12.1820   48.8320   21.7000 O.2    89  PHE89      -0.2867
    117  CB        11.6060   51.2100   20.3310 C.3    89  PHE89       0.0534
    118  CG        11.1380   52.4240   19.5720 C.ar   89  PHE89      -0.0203
    119  CD1       10.7740   53.5840   20.2390 C.ar   89  PHE89      -0.0042
    120  CD2       11.0710   52.4070   18.1870 C.ar   89  PHE89      -0.0042
    121  CE1       10.3380   54.6990   19.5370 C.ar   89  PHE89      -0.0003
    122  CE2       10.6380   53.5230   17.4850 C.ar   89  PHE89      -0.0003
    123  CZ        10.2760   54.6670   18.1610 C.ar   89  PHE89      -0.0000
    124  N         13.1600   47.6600    4.5360 N.3   113  GLN113     -0.1245
    125  CA        12.2670   48.6980    4.0460 C.3   113  GLN113      0.1566
    126  C         11.7170   49.5260    5.2080 C.2   113  GLN113      0.2260
    127  O         11.0470   50.5310    4.9740 O.2   113  GLN113     -0.2867
    128  CB        11.0920   48.0730    3.2890 C.3   113  GLN113      0.0367
    129  CG        11.3750   47.8620    1.8070 C.3   113  GLN113      0.0905
    130  CD        10.3280   47.0320    1.1020 C.2   113  GLN113      0.2608
    131  OE1        9.4760   46.3930    1.7200 O.2   113  GLN113     -0.2717
    132  NE2       10.3890   47.0320   -0.2190 N.am  113  GLN113     -0.0878
    133  N         11.6060   51.8310    8.7700 N.3   115  ILE115     -0.1231
    134  CA        12.2770   53.0240    9.2700 C.3   115  ILE115      0.1692
    135  C         12.2140   53.0690   10.7960 C.2   115  ILE115      0.2592
    136  O         12.5970   54.0700   11.3940 O.2   115  ILE115     -0.2718
    137  CB        11.6590   54.3020    8.6620 C.3   115  ILE115      0.0266
    138  CG1       10.1560   54.3770    8.9580 C.3   115  ILE115      0.0019
    139  CG2       11.9620   54.3870    7.1720 C.3   115  ILE115      0.0020
    140  CD1        9.5340   55.7480    8.7880 C.3   115  ILE115      0.0001
    141  N         11.7470   51.9810   11.4170 N.am  116  ASP116     -0.1974
    142  CA        11.3320   51.9870   12.8160 C.3   116  ASP116      0.1709
    143  C         12.5130   51.8200   13.7830 C.2   116  ASP116      0.2293
    144  O         12.3210   51.9070   14.9970 O.2   116  ASP116     -0.2864
    145  CB        10.2360   50.9430   13.0450 C.3   116  ASP116      0.1436
    146  CG        10.6360   49.5480   12.5930 C.2   116  ASP116      0.3671
    147  OD1       11.8320   49.2080   12.7280 O.co2 116  ASP116     -0.2456
    148  OD2        9.7530   48.8160   12.0930 O.co2 116  ASP116     -0.2456
    149  N         14.7630   52.5680    2.8480 N.3   133  HIS133     -0.1241
    150  CA        13.8980   53.7400    2.9240 C.3   133  HIS133      0.1621
    151  C         14.3710   54.7120    4.0070 C.2   133  HIS133      0.2264
    152  O         13.6030   55.5700    4.4350 O.2   133  HIS133     -0.2867
    153  CB        12.4270   53.3470    3.1610 C.3   133  HIS133      0.0745
    154  CG        11.7760   52.5890    2.0510 C.ar  133  HIS133      0.0817
    155  ND1       12.2850   52.5530    0.7650 N.ar  133  HIS133     -0.2268
    156  CD2       10.6240   51.8830    2.0160 C.ar  133  HIS133      0.1154
    157  CE1       11.4920   51.8290   -0.0040 C.ar  133  HIS133      0.1986
    158  NE2       10.4670   51.4060    0.7410 N.ar  133  HIS133     -0.2212
    159  N         14.3340   56.7100   11.0620 N.3   136  PHE136     -0.1241
    160  CA        14.0180   57.7330   12.0460 C.3   136  PHE136      0.1605
    161  C         15.1420   57.8900   13.0680 C.2   136  PHE136      0.2264
    162  O         15.0990   58.8060   13.8830 O.2   136  PHE136     -0.2867
    163  CB        12.7060   57.4160   12.7650 C.3   136  PHE136      0.0534
    164  CG        11.6370   58.4560   12.5620 C.ar  136  PHE136     -0.0203
    165  CD1       10.9340   58.5290   11.3690 C.ar  136  PHE136     -0.0042
    166  CD2       11.3510   59.3800   13.5550 C.ar  136  PHE136     -0.0042
    167  CE1        9.9530   59.4920   11.1830 C.ar  136  PHE136     -0.0003
    168  CE2       10.3690   60.3420   13.3680 C.ar  136  PHE136     -0.0003
    169  CZ         9.6720   60.3930   12.1840 C.ar  136  PHE136     -0.0000
    170  N         14.5460   59.6990    6.6000 N.3   178  ILE178     -0.1231
    171  CA        13.7550   58.7680    5.8110 C.3   178  ILE178      0.1692
    172  C         13.6880   59.2710    4.3700 C.2   178  ILE178      0.2592
    173  O         13.8490   60.4640    4.1060 O.2   178  ILE178     -0.2718
    174  CB        12.3550   58.5500    6.4280 C.3   178  ILE178      0.0266
    175  CG1       11.5290   59.8380    6.4390 C.3   178  ILE178      0.0019
    176  CG2       12.4620   57.9320    7.8160 C.3   178  ILE178      0.0020
    177  CD1       10.0700   59.6410    6.8020 C.3   178  ILE178      0.0001
    178  N         13.4550   58.3390    3.4410 N.am  179  VAL179     -0.1966
    179  CA        13.3550   58.6750    2.0320 C.3   179  VAL179      0.1727
    180  C         11.9080   59.0580    1.7280 C.2   179  VAL179      0.2616
    181  O         11.0500   58.1880    1.6000 O.2   179  VAL179     -0.2715
    182  CB        13.8440   57.5190    1.1350 C.3   179  VAL179      0.0290
    183  CG1       13.6520   57.8360   -0.3430 C.3   179  VAL179      0.0023
    184  CG2       15.2970   57.1500    1.4230 C.3   179  VAL179      0.0023
    185  N         11.6570   60.3710    1.6160 N.am  180  PHE180     -0.1960
    186  CA        10.3510   60.8890    1.2360 C.3   180  PHE180      0.1771
    187  C         10.1120   60.6290   -0.2490 C.2   180  PHE180      0.2619
    188  O         11.0580   60.4880   -1.0240 O.2   180  PHE180     -0.2715
    189  CB        10.2650   62.3950    1.5050 C.3   180  PHE180      0.0574
    190  CG         9.9400   62.7890    2.9250 C.ar  180  PHE180     -0.0200
    191  CD1       10.8640   62.6130    3.9470 C.ar  180  PHE180     -0.0042
    192  CD2        8.7200   63.3720    3.2360 C.ar  180  PHE180     -0.0042
    193  CE1       10.5610   62.9860    5.2500 C.ar  180  PHE180     -0.0003
    194  CE2        8.4150   63.7410    4.5380 C.ar  180  PHE180     -0.0003
    195  CZ         9.3370   63.5490    5.5430 C.ar  180  PHE180     -0.0000
    196  N          8.8350   60.5820   -0.6410 N.am  181  PHE181     -0.1974
    197  CA         8.4810   60.5980   -2.0510 C.3   181  PHE181      0.1639
    198  C          9.1830   61.7850   -2.7010 C.2   181  PHE181      0.2290
    199  O          9.1860   62.8850   -2.1480 O.2   181  PHE181     -0.2864
    200  CB         6.9650   60.7190   -2.2400 C.3   181  PHE181      0.0560
    201  CG         6.1340   59.6010   -1.6560 C.ar  181  PHE181     -0.0200
    202  CD1        6.6010   58.2930   -1.6280 C.ar  181  PHE181     -0.0042
    203  CD2        4.8590   59.8500   -1.1690 C.ar  181  PHE181     -0.0042
    204  CE1        5.8260   57.2690   -1.1040 C.ar  181  PHE181     -0.0003
    205  CE2        4.0830   58.8280   -0.6450 C.ar  181  PHE181     -0.0003
    206  CZ         4.5660   57.5390   -0.6130 C.ar  181  PHE181     -0.0000
@<TRIPOS>BOND
     1   198   199    2
     2   198   197    1
     3   200   197    1
     4   200   201    1
     5   197   196    1
     6    30    28    1
     7   201   202   ar
     8   201   203   ar
     9   202   204   ar
    10   203   205   ar
    11   204   206   ar
    12   188   187    2
    13   205   206   ar
    14   196   187   am
    15    28    27    2
    16    28    29    1
    17   183   182    1
    18   187   186    1
    19   132   130   am
    20   157   158   ar
    21   157   155   ar
    22    27    26    1
    23   158   156   ar
    24   155   154   ar
    25    54    53    2
    26   130   131    2
    27   130   129    1
    28   182   184    1
    29   182   179    1
    30   186   189    1
    31   186   185    1
    32    50    49    1
    33    53    52    1
    34    26    25    1
    35   189   190    1
    36   181   180    2
    37   185   180   am
    38    48    49   ar
    39    48    46   ar
    40    49    47   ar
    41   180   179    1
    42   129   128    1
    43    25    24    1
    44    46    44   ar
    45    47    45   ar
    46   156   154   ar
    47   179   178    1
    48    23    22    2
    49   154   153    1
    50    45    44   ar
    51    44    43    1
    52    55    52    1
    53    55    56    1
    54    52    51    1
    55    43    40    1
    56    22    21    1
    57   149   150    1
    58   150   153    1
    59   150   151    1
    60   190   192   ar
    61   190   191   ar
    62   192   194   ar
    63   128   125    1
    64    24    21    1
    65    58    56   ar
    66    58    60   ar
    67   178   172   am
    68    56    57   ar
    69    21    20    1
    70   191   193   ar
    71   151   152    2
    72   125   124    1
    73   125   126    1
    74    42    41    2
    75   173   172    2
    76    40    41    1
    77    40    39    1
    78   172   171    1
    79    60    61   ar
    80   194   195   ar
    81    57    59   ar
    82   127   126    2
    83    39    33   am
    84    12    11    2
    85    20    11   am
    86   193   195   ar
    87    11    10    1
    88    61    59   ar
    89   171   174    1
    90   171   170    1
    91    38    36    1
    92    33    34    2
    93    33    32    1
    94    31    32    1
    95   174   175    1
    96   174   176    1
    97   175   177    1
    98    36    35    1
    99    36    37    1
   100    35    32    1
   101   139   137    1
   102    10     9    1
   103    10    13    1
   104    69    71   ar
   105    69    67   ar
   106    71    72   ar
   107    13    14    1
   108    66    67    1
   109    66    63    1
   110    67    68   ar
   111   137   138    1
   112   137   134    1
   113   133   134    1
   114   140   138    1
   115    62    63    1
   116    72    70   ar
   117    63    64    1
   118    80    78    1
   119   134   135    1
   120    68    70   ar
   121    14    15   ar
   122    14    16   ar
   123    15    17   ar
   124    16    18   ar
   125    64    65    2
   126    78    79    1
   127    78    77    1
   128   135   136    2
   129   135   141   am
   130    77    74    1
   131   159   160    1
   132   167   165   ar
   133   167   169   ar
   134   165   164   ar
   135   141   142    1
   136    17    19   ar
   137    18    19   ar
   138   160   163    1
   139   160   161    1
   140   148   146   ar
   141   169   168   ar
   142    92    91    1
   143    74    73    1
   144    74    75    1
   145   164   163    1
   146   164   166   ar
   147   146   147   ar
   148   146   145    1
   149     4     3    2
   150   142   145    1
   151   142   143    1
   152   161   162    2
   153     7     5    1
   154    81    75   am
   155    81    82    1
   156    75    76    2
   157     3     2    1
   158   168   166   ar
   159    85    82    1
   160    91    93    1
   161    91    90    1
   162   143   144    2
   163    82    83    1
   164     5     2    1
   165     5     6    1
   166     2     1    1
   167    90    87    1
   168    83    84    2
   169     8     6    1
   170    87    86    1
   171    87    88    1
   172    89    88    2
   173    88    94   am
   174    94    95    1
   175   122   123   ar
   176   122   120   ar
   177   100   102   ar
   178   100    99   ar
   179   102   104   ar
   180    95    98    1
   181    95    96    1
   182   123   121   ar
   183   120   118   ar
   184   112   111    1
   185   112   106    1
   186   111   110    1
   187    98    99    1
   188    99   101   ar
   189   104   105    1
   190   104   103   ar
   191   106    96   am
   192   106   107    1
   193    96    97    2
   194   110   107    1
   195   121   119   ar
   196   118   119   ar
   197   118   117    1
   198   107   108    1
   199   101   103   ar
   200   117   114    1
   201   114   115    1
   202   114   113    1
   203   115   116    2
   204   108   109    2
