@<TRIPOS>MOLECULE
tmp/5y13A00.pdb
 203 188 0 0 0
SMALL
GASTEIGER

@<TRIPOS>ATOM
      1  N        -10.7900   -1.2460  -21.3280 N.3    21  PHE21      -0.1241
      2  CA        -9.9770   -0.0620  -21.5980 C.3    21  PHE21       0.1605
      3  C         -9.5700    0.0190  -23.0620 C.2    21  PHE21       0.2264
      4  O         -9.4530    1.1050  -23.6150 O.2    21  PHE21      -0.2867
      5  CB        -8.7390   -0.0090  -20.7040 C.3    21  PHE21       0.0534
      6  CG        -8.0980    1.3550  -20.6330 C.ar   21  PHE21      -0.0203
      7  CD1       -8.8450    2.4680  -20.2720 C.ar   21  PHE21      -0.0042
      8  CD2       -6.7480    1.5200  -20.9060 C.ar   21  PHE21      -0.0042
      9  CE1       -8.2590    3.7180  -20.1870 C.ar   21  PHE21      -0.0003
     10  CE2       -6.1560    2.7750  -20.8220 C.ar   21  PHE21      -0.0003
     11  CZ        -6.9150    3.8700  -20.4670 C.ar   21  PHE21      -0.0000
     12  N        -12.5580    1.4410  -24.8310 N.3    24  TYR24      -0.1227
     13  CA       -12.5900    2.8710  -24.4830 C.3    24  TYR24       0.1736
     14  C        -11.5820    3.6650  -25.3010 C.2    24  TYR24       0.2595
     15  O        -11.9410    4.6690  -25.9160 O.2    24  TYR24      -0.2718
     16  CB       -12.3340    3.1010  -22.9870 C.3    24  TYR24       0.0548
     17  CG       -12.1540    4.5630  -22.6360 C.ar   24  TYR24      -0.0200
     18  CD1      -13.2470    5.4140  -22.5380 C.ar   24  TYR24      -0.0009
     19  CD2      -10.8840    5.0880  -22.3980 C.ar   24  TYR24      -0.0009
     20  CE1      -13.0820    6.7550  -22.2120 C.ar   24  TYR24       0.0417
     21  CE2      -10.7050    6.4290  -22.0890 C.ar   24  TYR24       0.0417
     22  CZ       -11.8050    7.2550  -21.9970 C.ar   24  TYR24       0.1957
     23  OH       -11.6240    8.5800  -21.6740 O.3    24  TYR24      -0.2866
     24  N        -10.3270    3.2150  -25.3280 N.am   25  MET25      -0.1979
     25  CA        -9.3100    3.9210  -26.1030 C.3    25  MET25       0.1605
     26  C         -9.6670    3.9710  -27.5840 C.2    25  MET25       0.2287
     27  O         -9.4360    4.9860  -28.2320 O.2    25  MET25      -0.2864
     28  CB        -7.9210    3.3080  -25.9300 C.3    25  MET25       0.0413
     29  CG        -7.3460    3.4700  -24.5270 C.3    25  MET25       0.0598
     30  SD        -5.6440    2.8900  -24.4950 S.3    25  MET25      -0.1393
     31  CE        -5.8930    1.1340  -24.6170 C.3    25  MET25       0.0692
     32  N        -12.0630    6.7270  -28.0640 N.3    28  VAL28      -0.1245
     33  CA       -11.3750    8.0040  -27.9100 C.3    28  VAL28       0.1561
     34  C        -10.5890    8.3820  -29.1660 C.2    28  VAL28       0.2260
     35  O        -10.3800    9.5670  -29.4420 O.2    28  VAL28      -0.2867
     36  CB       -10.4520    7.9970  -26.6470 C.3    28  VAL28       0.0252
     37  CG1       -9.4760    9.1700  -26.6450 C.3    28  VAL28       0.0019
     38  CG2      -11.2940    8.0130  -25.3920 C.3    28  VAL28       0.0019
     39  N         -7.5680    6.5570  -30.0730 N.3    30  VAL30      -0.1245
     40  CA        -6.1720    6.1680  -29.8940 C.3    30  VAL30       0.1561
     41  C         -5.7390    5.1610  -30.9570 C.2    30  VAL30       0.2260
     42  O         -6.4480    4.1980  -31.2230 O.2    30  VAL30      -0.2867
     43  CB        -5.9660    5.5540  -28.5030 C.3    30  VAL30       0.0252
     44  CG1       -4.4950    5.2280  -28.2750 C.3    30  VAL30       0.0019
     45  CG2       -6.5060    6.5050  -27.4250 C.3    30  VAL30       0.0019
     46  N         -0.0410    1.2960  -24.2740 N.3    38  ALA38      -0.1245
     47  CA        -0.7770    1.8730  -23.1380 C.3    38  ALA38       0.1562
     48  C         -1.5900    0.8360  -22.3610 C.2    38  ALA38       0.2260
     49  O         -1.6670    0.8870  -21.1320 O.2    38  ALA38      -0.2867
     50  CB        -1.6740    3.0280  -23.5870 C.3    38  ALA38       0.0290
     51  N          0.0150    1.5890  -14.1080 N.3    43  PRO43      -0.2116
     52  CA         0.5510    2.8210  -13.5160 C.3    43  PRO43       0.1372
     53  C          0.4140    2.9070  -12.0010 C.2    43  PRO43       0.2244
     54  O         -0.4480    2.2620  -11.4010 O.2    43  PRO43      -0.2868
     55  CB        -0.3150    3.9200  -14.1390 C.3    43  PRO43       0.0268
     56  CG        -1.0360    3.2750  -15.2860 C.3    43  PRO43       0.0207
     57  CD        -1.1950    1.8440  -14.9050 C.3    43  PRO43       0.0892
     58  N         -0.4530    5.9140   -9.3230 N.3    45  MET45      -0.1245
     59  CA        -1.0340    7.2430   -9.3140 C.3    45  MET45       0.1570
     60  C         -0.7790    7.8380   -7.9460 C.2    45  MET45       0.2261
     61  O         -0.9980    7.1880   -6.9380 O.2    45  MET45      -0.2867
     62  CB        -2.5330    7.1520   -9.5880 C.3    45  MET45       0.0387
     63  CG        -3.2390    8.4790   -9.6680 C.3    45  MET45       0.0595
     64  SD        -4.9620    8.2770  -10.1310 S.3    45  MET45      -0.1393
     65  CE        -5.4460    6.8870   -9.1030 C.3    45  MET45       0.0692
     66  N          0.8220   10.4160  -12.5950 N.3    58  SER58      -0.1217
     67  CA         0.7880    9.0190  -12.9870 C.3    58  SER58       0.1889
     68  C          2.1730    8.6100  -13.4580 C.2    58  SER58       0.2288
     69  O          2.7700    9.2860  -14.2910 O.2    58  SER58      -0.2866
     70  CB        -0.2390    8.7910  -14.0910 C.3    58  SER58       0.2089
     71  OG        -0.2530    7.4250  -14.4930 O.3    58  SER58      -0.2183
     72  N          4.6920    3.3040  -19.6620 N.3    62  PHE62      -0.1241
     73  CA         4.1530    3.9330  -20.8690 C.3    62  PHE62       0.1605
     74  C          4.4400    5.4320  -20.9000 C.2    62  PHE62       0.2264
     75  O          5.0590    5.9400  -21.8330 O.2    62  PHE62      -0.2867
     76  CB         2.6480    3.6760  -20.9760 C.3    62  PHE62       0.0534
     77  CG         1.9670    4.4670  -22.0610 C.ar   62  PHE62      -0.0203
     78  CD1        2.4030    4.3860  -23.3740 C.ar   62  PHE62      -0.0042
     79  CD2        0.8700    5.2650  -21.7720 C.ar   62  PHE62      -0.0042
     80  CE1        1.7690    5.1100  -24.3860 C.ar   62  PHE62      -0.0003
     81  CE2        0.2290    5.9900  -22.7760 C.ar   62  PHE62      -0.0003
     82  CZ         0.6820    5.9100  -24.0850 C.ar   62  PHE62      -0.0000
     83  N          2.9700   11.3060  -16.2960 N.3    65  THR65      -0.1218
     84  CA         2.1680   12.5120  -16.4470 C.3    65  THR65       0.1862
     85  C          1.9410   13.1900  -15.1000 C.2    65  THR65       0.2287
     86  O          2.0330   12.5680  -14.0450 O.2    65  THR65      -0.2866
     87  CB         0.7860   12.2180  -17.0820 C.3    65  THR65       0.1770
     88  OG1        0.0130   11.3890  -16.2010 O.3    65  THR65      -0.2211
     89  CG2        0.9400   11.5260  -18.4260 C.3    65  THR65       0.0375
     90  N         -4.3150   20.2340  -20.8090 N.3    77  GLU77      -0.1245
     91  CA        -3.7450   18.9490  -20.4320 C.3    77  GLU77       0.1567
     92  C         -3.2330   18.2640  -21.6860 C.2    77  GLU77       0.2260
     93  O         -3.9280   18.2270  -22.6820 O.2    77  GLU77      -0.2867
     94  CB        -4.7950   18.0500  -19.7580 C.3    77  GLU77       0.0388
     95  CG        -4.2540   16.6700  -19.3410 C.3    77  GLU77       0.1160
     96  CD        -5.3060   15.7530  -18.7250 C.2    77  GLU77       0.3649
     97  OE1       -6.5080   16.1030  -18.7600 O.co2  77  GLU77      -0.2457
     98  OE2       -4.9250   14.6770  -18.2020 O.co2  77  GLU77      -0.2457
     99  N         -2.5560   14.6830  -22.6480 N.3    79  THR79      -0.1203
    100  CA        -2.8460   13.3650  -22.0900 C.3    79  THR79       0.1994
    101  C         -1.7310   12.3580  -22.3740 C.2    79  THR79       0.2618
    102  O         -0.8630   12.5960  -23.2150 O.2    79  THR79      -0.2717
    103  CB        -4.1650   12.8250  -22.6480 C.3    79  THR79       0.1784
    104  OG1       -4.0240   12.5990  -24.0520 O.3    79  THR79      -0.2211
    105  CG2       -5.2870   13.8240  -22.4170 C.3    79  THR79       0.0376
    106  N         -1.7670   11.2350  -21.6640 N.am   80  ALA80      -0.1965
    107  CA        -0.7690   10.1720  -21.8270 C.3    80  ALA80       0.1728
    108  C         -0.6610    9.7190  -23.2740 C.2    80  ALA80       0.2616
    109  O          0.4150    9.3190  -23.7280 O.2    80  ALA80      -0.2715
    110  CB        -1.1130    8.9900  -20.9510 C.3    80  ALA80       0.0334
    111  N         -1.7820    9.7820  -23.9870 N.am   81  ASP81      -0.1971
    112  CA        -1.8430    9.3330  -25.3780 C.3    81  ASP81       0.1709
    113  C         -1.6380   10.5070  -26.3390 C.2    81  ASP81       0.2293
    114  O         -1.9480   10.4180  -27.5310 O.2    81  ASP81      -0.2864
    115  CB        -3.1620    8.6080  -25.6610 C.3    81  ASP81       0.1436
    116  CG        -4.3750    9.5020  -25.4930 C.2    81  ASP81       0.3671
    117  OD1       -4.5290   10.0870  -24.4020 O.co2  81  ASP81      -0.2456
    118  OD2       -5.1670    9.6370  -26.4540 O.co2  81  ASP81      -0.2456
    119  N         -3.0760   13.5130  -26.6040 N.3    83  ARG83      -0.1245
    120  CA        -4.1220   14.4460  -27.0110 C.3    83  ARG83       0.1563
    121  C         -3.8980   15.7600  -26.2830 C.2    83  ARG83       0.2260
    122  O         -3.4680   15.7700  -25.1290 O.2    83  ARG83      -0.2867
    123  CB        -5.5140   13.9180  -26.6740 C.3    83  ARG83       0.0307
    124  CG        -6.0640   12.8930  -27.6510 C.3    83  ARG83       0.0489
    125  CD        -7.3600   12.3050  -27.1190 C.3    83  ARG83       0.2205
    126  NE        -7.0930   11.5340  -25.9130 N.pl3  83  ARG83      -0.0865
    127  CZ        -7.7600   11.6460  -24.7660 C.cat  83  ARG83       0.5346
    128  NH1       -8.7790   12.4850  -24.6460 N.pl3  83  ARG83       0.1354
    129  NH2       -7.4040   10.8970  -23.7340 N.pl3  83  ARG83       0.1354
    130  N        -13.9910   14.5250  -14.1540 N.3    98  HIS98      -0.1241
    131  CA       -12.9710   15.1160  -15.0250 C.3    98  HIS98       0.1621
    132  C        -13.4470   15.0440  -16.4780 C.2    98  HIS98       0.2264
    133  O        -13.5970   13.9620  -17.0240 O.2    98  HIS98      -0.2867
    134  CB       -11.6710   14.3150  -14.8200 C.3    98  HIS98       0.0745
    135  CG       -10.5150   14.7540  -15.6690 C.ar   98  HIS98       0.0817
    136  ND1       -9.2800   14.1450  -15.5950 N.ar   98  HIS98      -0.2268
    137  CD2      -10.3940   15.7410  -16.5890 C.ar   98  HIS98       0.1154
    138  CE1       -8.4500   14.7330  -16.4390 C.ar   98  HIS98       0.1986
    139  NE2       -9.1040   15.6980  -17.0640 N.ar   98  HIS98      -0.2212
    140  N        -12.6950   15.9600  -20.4050 N.3   100  GLN100     -0.1245
    141  CA       -11.7130   16.3720  -21.4050 C.3   100  GLN100      0.1566
    142  C        -12.4240   16.7030  -22.7140 C.2   100  GLN100      0.2260
    143  O        -13.2560   15.9210  -23.1800 O.2   100  GLN100     -0.2867
    144  CB       -10.6810   15.2720  -21.6560 C.3   100  GLN100      0.0367
    145  CG        -9.8060   14.8930  -20.4570 C.3   100  GLN100      0.0905
    146  CD        -8.9170   13.6840  -20.7560 C.2   100  GLN100      0.2608
    147  OE1       -9.1880   12.9070  -21.6760 O.2   100  GLN100     -0.2717
    148  NE2       -7.8550   13.5230  -19.9780 N.am  100  GLN100     -0.0878
    149  N        -14.0960   11.2340  -17.1000 N.3   109  ILE109     -0.1245
    150  CA       -13.3840   10.3080  -16.2470 C.3   109  ILE109      0.1561
    151  C        -13.8100   10.5780  -14.8100 C.2   109  ILE109      0.2260
    152  O        -13.6460   11.6770  -14.3110 O.2   109  ILE109     -0.2867
    153  CB       -11.8730   10.5400  -16.3870 C.3   109  ILE109      0.0252
    154  CG1      -11.4670   10.4240  -17.8610 C.3   109  ILE109      0.0019
    155  CG2      -11.0990    9.5730  -15.4950 C.3   109  ILE109      0.0019
    156  CD1      -10.2590   11.2490  -18.2300 C.3   109  ILE109      0.0001
    157  N        -13.4710    9.5630  -10.7930 N.3   111  ARG111     -0.1245
    158  CA       -12.5930    8.9180   -9.8330 C.3   111  ARG111      0.1563
    159  C        -13.3390    8.9290   -8.5110 C.2   111  ARG111      0.2260
    160  O        -13.7920    9.9830   -8.0520 O.2   111  ARG111     -0.2867
    161  CB       -11.2570    9.6690   -9.7270 C.3   111  ARG111      0.0307
    162  CG       -10.3930    9.6090  -11.0000 C.3   111  ARG111      0.0489
    163  CD        -9.2000   10.5710  -10.9480 C.3   111  ARG111      0.2205
    164  NE        -8.3210   10.4830  -12.1220 N.pl3 111  ARG111     -0.0865
    165  CZ        -8.3520   11.3230  -13.1530 C.cat 111  ARG111      0.5346
    166  NH1       -9.2150   12.3250  -13.1760 N.pl3 111  ARG111      0.1354
    167  NH2       -7.5100   11.1700  -14.1700 N.pl3 111  ARG111      0.1354
    168  N        -11.7670    4.1730  -11.0950 N.3   120  VAL120     -0.1245
    169  CA       -11.7730    5.1460  -12.1810 C.3   120  VAL120      0.1561
    170  C        -12.6750    4.6430  -13.2960 C.2   120  VAL120      0.2260
    171  O        -12.4480    3.5610  -13.8480 O.2   120  VAL120     -0.2867
    172  CB       -10.3610    5.3710  -12.7430 C.3   120  VAL120      0.0252
    173  CG1      -10.3660    6.5160  -13.7470 C.3   120  VAL120      0.0019
    174  CG2       -9.3790    5.6550  -11.6130 C.3   120  VAL120      0.0019
    175  N        -14.1510    5.4870  -16.9920 N.3   122  CYS122     -0.1235
    176  CA       -13.9120    6.3520  -18.1380 C.3   122  CYS122      0.1677
    177  C        -15.0080    6.0960  -19.1540 C.2   122  CYS122      0.2270
    178  O        -15.2270    4.9490  -19.5340 O.2   122  CYS122     -0.2867
    179  CB       -12.5640    6.0240  -18.7780 C.3   122  CYS122      0.0956
    180  SG       -11.1680    6.0710  -17.6380 S.3   122  CYS122     -0.0801
    181  N        -11.3430    1.0700  -14.2100 N.3   131  ARG131     -0.1245
    182  CA        -9.9990    0.7700  -13.7540 C.3   131  ARG131      0.1563
    183  C         -9.9440    0.8930  -12.2490 C.2   131  ARG131      0.2260
    184  O        -10.4510    1.8550  -11.6740 O.2   131  ARG131     -0.2867
    185  CB        -8.9870    1.6820  -14.4400 C.3   131  ARG131      0.0307
    186  CG        -8.6340    1.1380  -15.8180 C.3   131  ARG131      0.0489
    187  CD        -8.1770    2.2020  -16.7640 C.3   131  ARG131      0.2205
    188  NE        -6.7690    2.5540  -16.6260 N.pl3 131  ARG131     -0.0865
    189  CZ        -5.7590    1.8520  -17.1310 C.cat 131  ARG131      0.5346
    190  NH1       -5.9850    0.7150  -17.7760 N.pl3 131  ARG131      0.1354
    191  NH2       -4.5150    2.2850  -16.9760 N.pl3 131  ARG131      0.1354
    192  N         -7.7980    0.8710   -8.6610 N.3   133  TYR133     -0.1241
    193  CA        -6.5230    1.0850   -7.9930 C.3   133  TYR133      0.1605
    194  C         -6.6250    0.7150   -6.5260 C.2   133  TYR133      0.2264
    195  O         -7.6490    0.9500   -5.8900 O.2   133  TYR133     -0.2867
    196  CB        -6.1130    2.5590   -8.0780 C.3   133  TYR133      0.0534
    197  CG        -5.6500    2.9850   -9.4510 C.ar  133  TYR133     -0.0201
    198  CD1       -6.5640    3.2400  -10.4670 C.ar  133  TYR133     -0.0009
    199  CD2       -4.3000    3.1520   -9.7220 C.ar  133  TYR133     -0.0009
    200  CE1       -6.1360    3.6400  -11.7280 C.ar  133  TYR133      0.0417
    201  CE2       -3.8630    3.5560  -10.9680 C.ar  133  TYR133      0.0417
    202  CZ        -4.7840    3.7910  -11.9680 C.ar  133  TYR133      0.1957
    203  OH        -4.3450    4.1860  -13.2090 O.3   133  TYR133     -0.2866
@<TRIPOS>BOND
     1    42    41    2
     2    41    40    1
     3    39    40    1
     4    40    43    1
     5    35    34    2
     6    34    33    1
     7    43    44    1
     8    43    45    1
     9    27    26    2
    10    32    33    1
    11    33    36    1
    12   124   125    1
    13   124   123    1
    14    26    25    1
    15   114   113    2
    16   125   126    1
    17   120   123    1
    18   120   119    1
    19   120   121    1
    20    36    37    1
    21    36    38    1
    22   118   116   ar
    23   113   112    1
    24   121   122    2
    25    25    28    1
    26    25    24    1
    27    28    29    1
    28    15    14    2
    29   126   127    2
    30   115   116    1
    31   115   112    1
    32   116   117   ar
    33   112   111    1
    34    24    14   am
    35    14    13    1
    36    12    13    1
    37   127   128    1
    38   127   129    1
    39    31    30    1
    40    29    30    1
    41    13    16    1
    42    80    82   ar
    43    80    78   ar
    44    46    47    1
    45    82    81   ar
    46   104   103    1
    47   111   108   am
    48   109   108    2
    49     4     3    2
    50    50    47    1
    51    78    77   ar
    52   108   107    1
    53   102   101    2
    54   143   142    2
    55    47    48    1
    56     3     2    1
    57    16    17    1
    58    81    79   ar
    59   142   141    1
    60    93    92    2
    61   103   105    1
    62   103   100    1
    63    99   100    1
    64    17    18   ar
    65    17    19   ar
    66    18    20   ar
    67    19    21   ar
    68   101   100    1
    69   101   106   am
    70    48    49    2
    71    20    22   ar
    72    21    22   ar
    73    77    79   ar
    74    77    76    1
    75    22    23    1
    76    75    74    2
    77   107   106    1
    78   107   110    1
    79    92    91    1
    80   147   146    2
    81   144   141    1
    82   144   145    1
    83     2     1    1
    84     2     5    1
    85   141   140    1
    86    76    73    1
    87     8    10   ar
    88     8     6   ar
    89    74    73    1
    90    73    72    1
    91    10    11   ar
    92    90    91    1
    93   146   145    1
    94   146   148   am
    95     5     6    1
    96     6     7   ar
    97    11     9   ar
    98    91    94    1
    99     7     9   ar
   100    94    95    1
   101   178   177    2
   102    95    96    1
   103   177   176    1
   104   179   176    1
   105   179   180    1
   106    97    96   ar
   107    96    98   ar
   108    89    87    1
   109   156   154    1
   110   176   175    1
   111   154   153    1
   112   190   189    1
   113   189   191    1
   114   189   188    2
   115   149   150    1
   116    87    84    1
   117    87    88    1
   118   139   137   ar
   119   139   138   ar
   120   133   132    2
   121   187   188    1
   122   187   186    1
   123   137   135   ar
   124   132   131    1
   125    84    83    1
   126    84    85    1
   127   138   136   ar
   128   153   150    1
   129   153   155    1
   130   150   151    1
   131   186   185    1
   132   135   136   ar
   133   135   134    1
   134    56    57    1
   135    56    55    1
   136    85    86    2
   137   131   134    1
   138   131   130    1
   139    57    51    1
   140   151   152    2
   141    71    70    1
   142   185   182    1
   143    69    68    2
   144   181   182    1
   145   167   165    1
   146    55    52    1
   147    51    52    1
   148    70    67    1
   149   171   170    2
   150   182   183    1
   151   173   172    1
   152    52    53    1
   153    68    67    1
   154   170   169    1
   155   203   202    1
   156   166   165    1
   157   165   164    2
   158    67    66    1
   159   172   169    1
   160   172   174    1
   161   183   184    2
   162   169   168    1
   163   164   163    1
   164    53    54    2
   165   202   200   ar
   166   202   201   ar
   167   200   198   ar
   168   162   163    1
   169   162   161    1
   170   201   199   ar
   171   157   158    1
   172   198   197   ar
   173    64    63    1
   174    64    65    1
   175   158   161    1
   176   158   159    1
   177   199   197   ar
   178    63    62    1
   179    62    59    1
   180   197   196    1
   181    58    59    1
   182    59    60    1
   183   192   193    1
   184   159   160    2
   185   196   193    1
   186   193   194    1
   187    60    61    2
   188   194   195    2
