@<TRIPOS>MOLECULE
tmp/5y19A00.pdb
 176 166 0 0 0
SMALL
GASTEIGER

@<TRIPOS>ATOM
      1  N        -15.1260  -21.5850   16.9950 N.3   122  GLN122     -0.1245
      2  CA       -14.5440  -20.3250   16.5060 C.3   122  GLN122      0.1566
      3  C        -13.1820  -20.1320   17.1330 C.2   122  GLN122      0.2260
      4  O        -13.0740  -19.8900   18.3510 O.2   122  GLN122     -0.2867
      5  CB       -15.3960  -19.1010   16.8440 C.3   122  GLN122      0.0367
      6  CG       -14.7500  -17.7760   16.5250 C.3   122  GLN122      0.0905
      7  CD       -14.4120  -17.6270   15.0560 C.2   122  GLN122      0.2608
      8  OE1      -15.1390  -18.1300   14.1900 O.2   122  GLN122     -0.2717
      9  NE2      -13.4420  -16.8310   14.7770 N.am  122  GLN122     -0.0878
     10  N        -10.3730  -18.0420   15.5510 N.3   124  GLU124     -0.1231
     11  CA        -9.7090  -16.7090   15.4300 C.3   124  GLU124      0.1699
     12  C        -10.2550  -15.7340   16.5040 C.2   124  GLU124      0.2592
     13  O        -11.4740  -15.7190   16.6860 O.2   124  GLU124     -0.2718
     14  CB        -9.9530  -16.1200   14.0230 C.3   124  GLU124      0.0402
     15  CG        -9.0270  -14.9420   13.7760 C.3   124  GLU124      0.1161
     16  CD        -9.1960  -14.2920   12.4140 C.2   124  GLU124      0.3649
     17  OE1      -10.0120  -14.7730   11.6070 O.co2 124  GLU124     -0.2457
     18  OE2       -8.4750  -13.3390   12.1710 O.co2 124  GLU124     -0.2457
     19  N         -9.4270  -14.9410   17.1900 N.am  125  ALA125     -0.1980
     20  CA        -8.0000  -14.9730   17.0540 C.3   125  ALA125      0.1597
     21  C         -7.3300  -15.9620   18.0010 C.2   125  ALA125      0.2287
     22  O         -6.3640  -16.5680   17.6250 O.2   125  ALA125     -0.2864
     23  CB        -7.3660  -13.6070   17.2570 C.3   125  ALA125      0.0319
     24  N        -19.5660  -12.6130   15.0910 N.3   264  VAL264     -0.1231
     25  CA       -19.3730  -11.7020   13.9980 C.3   264  VAL264      0.1692
     26  C        -20.2360  -12.2210   12.7910 C.2   264  VAL264      0.2593
     27  O        -21.2720  -12.8640   13.0390 O.2   264  VAL264     -0.2718
     28  CB       -17.8780  -11.5160   13.7080 C.3   264  VAL264      0.0266
     29  CG1      -17.2260  -10.9130   14.9270 C.3   264  VAL264      0.0020
     30  CG2      -17.1730  -12.8420   13.3370 C.3   264  VAL264      0.0020
     31  N        -19.7690  -11.9990   11.5640 N.am  265  GLY265     -0.1942
     32  CA       -20.4880  -12.3460   10.3370 C.3   265  GLY265      0.2014
     33  C        -20.1350  -13.7060    9.7780 C.2   265  GLY265      0.2639
     34  O        -21.0290  -14.5130    9.5030 O.2   265  GLY265     -0.2714
     35  N        -18.8160  -13.9850    9.6980 N.am  266  ALA266     -0.1963
     36  CA       -18.3480  -15.2820    9.2280 C.3   266  ALA266      0.1728
     37  C        -16.8560  -15.4700    9.4950 C.2   266  ALA266      0.2616
     38  O        -16.1580  -14.5370    9.9410 O.2   266  ALA266     -0.2715
     39  CB       -18.6650  -15.4250    7.7170 C.3   266  ALA266      0.0334
     40  N        -16.3400  -16.6360    9.1320 N.am  267  MET267     -0.1963
     41  CA       -14.9970  -17.0470    9.4100 C.3   267  MET267      0.1736
     42  C        -14.5060  -18.0110    8.3330 C.2   267  MET267      0.2616
     43  O        -15.1830  -19.0080    7.9750 O.2   267  MET267     -0.2715
     44  CB       -14.9130  -17.7280   10.8030 C.3   267  MET267      0.0427
     45  CG       -13.5380  -18.2430   11.1800 C.3   267  MET267      0.0599
     46  SD       -12.3960  -16.8870   11.3380 S.3   267  MET267     -0.1393
     47  CE       -10.8920  -17.7190   10.7890 C.3   267  MET267      0.0692
     48  N        -13.2990  -17.7370    7.8800 N.am  268  GLU268     -0.1977
     49  CA       -12.6860  -18.4110    6.7020 C.3   268  GLU268      0.1602
     50  C        -11.9190  -19.7170    6.9680 C.2   268  GLU268      0.2287
     51  O        -10.9030  -19.9740    6.3180 O.2   268  GLU268     -0.2864
     52  CB       -11.7130  -17.4340    6.0080 C.3   268  GLU268      0.0415
     53  CG       -10.4130  -17.0560    6.7580 C.3   268  GLU268      0.1163
     54  CD       -10.4910  -15.8600    7.6950 C.2   268  GLU268      0.3649
     55  OE1      -11.6270  -15.5320    8.1430 O.co2 268  GLU268     -0.2457
     56  OE2       -9.3930  -15.2780    7.9990 O.co2 268  GLU268     -0.2457
     57  N        -25.5160   -8.6200    1.4440 N.3   294  ARG294     -0.1245
     58  CA       -24.7480   -9.1030    2.6060 C.3   294  ARG294      0.1563
     59  C        -24.1670  -10.4910    2.3960 C.2   294  ARG294      0.2260
     60  O        -22.9590  -10.6810    2.6340 O.2   294  ARG294     -0.2867
     61  CB       -25.5880   -9.0280    3.8510 C.3   294  ARG294      0.0307
     62  CG       -24.9790   -9.6060    5.1150 C.3   294  ARG294      0.0489
     63  CD       -23.8400   -8.7500    5.6210 C.3   294  ARG294      0.2205
     64  NE       -23.3180   -9.3240    6.8660 N.pl3 294  ARG294     -0.0865
     65  CZ       -22.2200   -8.9110    7.4680 C.cat 294  ARG294      0.5346
     66  NH1      -21.8590   -9.4930    8.5970 N.pl3 294  ARG294      0.1354
     67  NH2      -21.4810   -7.9070    6.9480 N.pl3 294  ARG294      0.1354
     68  N        -21.4730  -10.4370   -0.2110 N.3   297  THR297     -0.1203
     69  CA       -20.2350   -9.9110    0.3280 C.3   297  THR297      0.1994
     70  C        -19.5420  -10.8590    1.3160 C.2   297  THR297      0.2617
     71  O        -18.2980  -10.9980    1.2800 O.2   297  THR297     -0.2717
     72  CB       -20.2730   -8.4520    0.9070 C.3   297  THR297      0.1784
     73  OG1      -19.7490   -8.2450    2.2320 O.3   297  THR297     -0.2211
     74  CG2      -21.0020   -7.4330    0.2290 C.3   297  THR297      0.0376
     75  N        -20.3020  -11.4670    2.1690 N.am  298  VAL298     -0.1979
     76  CA       -19.6650  -12.2850    3.2040 C.3   298  VAL298      0.1595
     77  C        -19.1520  -13.5950    2.5690 C.2   298  VAL298      0.2287
     78  O        -18.0340  -14.0400    2.8850 O.2   298  VAL298     -0.2864
     79  CB       -20.5870  -12.4890    4.3960 C.3   298  VAL298      0.0276
     80  CG1      -19.9430  -13.4250    5.4240 C.3   298  VAL298      0.0022
     81  CG2      -20.9080  -11.1440    5.0260 C.3   298  VAL298      0.0022
     82  N        -16.0820  -12.6000    0.5040 N.3   301  HIS301     -0.1226
     83  CA       -15.0260  -12.2820    1.4190 C.3   301  HIS301      0.1752
     84  C        -14.3560  -13.4850    2.0150 C.2   301  HIS301      0.2595
     85  O        -13.0950  -13.6090    1.9130 O.2   301  HIS301     -0.2718
     86  CB       -15.5790  -11.3330    2.4920 C.3   301  HIS301      0.0759
     87  CG       -14.5820  -10.9440    3.5370 C.ar  301  HIS301      0.0818
     88  ND1      -14.0730   -9.6650    3.6290 N.ar  301  HIS301     -0.2268
     89  CD2      -14.0290  -11.6410    4.5530 C.ar  301  HIS301      0.1154
     90  CE1      -13.2620   -9.5970    4.6650 C.ar  301  HIS301      0.1986
     91  NE2      -13.2160  -10.7760    5.2410 N.ar  301  HIS301     -0.2212
     92  N        -15.1150  -14.3820    2.6830 N.am  302  GLU302     -0.1979
     93  CA       -14.4660  -15.5850    3.2660 C.3   302  GLU302      0.1602
     94  C        -13.7980  -16.4690    2.1930 C.2   302  GLU302      0.2287
     95  O        -12.7010  -16.9750    2.4200 O.2   302  GLU302     -0.2864
     96  CB       -15.3950  -16.4240    4.1670 C.3   302  GLU302      0.0415
     97  CG       -16.1760  -15.5870    5.2320 C.3   302  GLU302      0.1163
     98  CD       -15.3820  -14.5780    6.0410 C.2   302  GLU302      0.3649
     99  OE1      -14.1070  -14.6810    6.2340 O.co2 302  GLU302     -0.2457
    100  OE2      -16.0530  -13.6520    6.5380 O.co2 302  GLU302     -0.2457
    101  N        -10.3530  -14.9830    1.2440 N.3   305  HIS305     -0.1241
    102  CA        -9.3560  -15.3290    2.2180 C.3   305  HIS305      0.1621
    103  C         -8.6490  -16.6470    1.8790 C.2   305  HIS305      0.2264
    104  O         -7.5710  -16.8640    2.4070 O.2   305  HIS305     -0.2867
    105  CB        -9.9480  -15.5120    3.6270 C.3   305  HIS305      0.0745
    106  CG       -10.0700  -14.2520    4.4500 C.ar  305  HIS305      0.0817
    107  ND1       -9.0220  -13.3870    4.6470 N.ar  305  HIS305     -0.2268
    108  CD2      -11.0870  -13.7690    5.1920 C.ar  305  HIS305      0.1154
    109  CE1       -9.3950  -12.4080    5.4430 C.ar  305  HIS305      0.1986
    110  NE2      -10.6400  -12.6310    5.8080 N.ar  305  HIS305     -0.2212
    111  N         -7.1470   -8.7650    6.2460 N.3   324  GLU324     -0.1245
    112  CA        -8.5360   -8.1980    6.2920 C.3   324  GLU324      0.1567
    113  C         -8.6930   -7.0250    5.3310 C.2   324  GLU324      0.2260
    114  O         -9.6650   -7.0150    4.5750 O.2   324  GLU324     -0.2867
    115  CB        -8.9910   -7.8680    7.7050 C.3   324  GLU324      0.0388
    116  CG        -9.0630   -9.0730    8.6350 C.3   324  GLU324      0.1160
    117  CD       -10.0170  -10.1490    8.2210 C.2   324  GLU324      0.3649
    118  OE1      -10.8750   -9.9190    7.3330 O.co2 324  GLU324     -0.2457
    119  OE2       -9.8930  -11.2690    8.7490 O.co2 324  GLU324     -0.2457
    120  N        -11.0830   -7.4000    2.1410 N.3   328  VAL328     -0.1245
    121  CA       -12.1710   -6.4110    1.9010 C.3   328  VAL328      0.1561
    122  C        -12.0420   -5.7690    0.5100 C.2   328  VAL328      0.2260
    123  O        -13.0280   -5.6920   -0.2260 O.2   328  VAL328     -0.2867
    124  CB       -12.2480   -5.3430    2.9710 C.3   328  VAL328      0.0252
    125  CG1      -13.3160   -4.2550    2.6220 C.3   328  VAL328      0.0019
    126  CG2      -12.6400   -5.9730    4.3060 C.3   328  VAL328      0.0019
    127  N        -13.1060   -8.2960   -2.1030 N.3   331  GLU331     -0.1245
    128  CA       -14.5280   -8.4550   -2.1160 C.3   331  GLU331      0.1567
    129  C        -15.2200   -7.2200   -2.7640 C.2   331  GLU331      0.2260
    130  O        -16.2850   -7.3480   -3.3260 O.2   331  GLU331     -0.2867
    131  CB       -15.0570   -8.8040   -0.7280 C.3   331  GLU331      0.0388
    132  CG       -16.5910   -8.8230   -0.6500 C.3   331  GLU331      0.1160
    133  CD       -17.2340   -7.4170   -0.4780 C.2   331  GLU331      0.3649
    134  OE1      -16.6410   -6.5180    0.1960 O.co2 331  GLU331     -0.2457
    135  OE2      -18.3620   -7.1810   -1.0310 O.co2 331  GLU331     -0.2457
    136  N         -8.8300   -9.3230   19.7660 N.3   377  GLU377     -0.1245
    137  CA       -10.1840   -9.2120   19.3070 C.3   377  GLU377      0.1567
    138  C        -10.6780   -7.7220   19.2520 C.2   377  GLU377      0.2260
    139  O        -11.5240   -7.3730   18.4230 O.2   377  GLU377     -0.2867
    140  CB       -11.2030  -10.2450   19.9910 C.3   377  GLU377      0.0388
    141  CG       -10.7520  -11.2570   21.1100 C.3   377  GLU377      0.1160
    142  CD        -9.7080  -12.3650   20.6790 C.2   377  GLU377      0.3649
    143  OE1       -9.9810  -13.4360   19.9520 O.co2 377  GLU377     -0.2457
    144  OE2       -8.5510  -12.1930   21.1360 O.co2 377  GLU377     -0.2457
    145  N        -10.1630   -5.8080   15.5150 N.3   380  TYR380     -0.1241
    146  CA       -10.9560   -6.1220   14.3130 C.3   380  TYR380      0.1605
    147  C        -11.9160   -4.9290   14.0500 C.2   380  TYR380      0.2264
    148  O        -13.1400   -5.0260   14.2590 O.2   380  TYR380     -0.2867
    149  CB       -11.6560   -7.4750   14.4300 C.3   380  TYR380      0.0534
    150  CG       -10.6820   -8.6440   14.3580 C.ar  380  TYR380     -0.0201
    151  CD1       -9.8860   -8.9850   15.4600 C.ar  380  TYR380     -0.0009
    152  CD2      -10.5830   -9.4250   13.2500 C.ar  380  TYR380     -0.0009
    153  CE1       -9.0230  -10.0480   15.4300 C.ar  380  TYR380      0.0417
    154  CE2       -9.7150  -10.5180   13.2200 C.ar  380  TYR380      0.0417
    155  CZ        -8.9140  -10.8110   14.3170 C.ar  380  TYR380      0.1957
    156  OH        -8.0470  -11.8600   14.2810 O.3   380  TYR380     -0.2866
    157  N        -10.1270   -2.8970    8.7430 N.3   385  TYR385     -0.1241
    158  CA       -10.8200   -3.4980    7.6170 C.3   385  TYR385      0.1605
    159  C        -11.0120   -2.4710    6.4730 C.2   385  TYR385      0.2264
    160  O        -10.6290   -2.7360    5.3290 O.2   385  TYR385     -0.2867
    161  CB       -12.2200   -3.9640    8.0790 C.3   385  TYR385      0.0534
    162  CG       -12.2360   -5.2950    8.6900 C.ar  385  TYR385     -0.0201
    163  CD1      -11.4920   -5.5700    9.8250 C.ar  385  TYR385     -0.0009
    164  CD2      -12.8570   -6.3510    8.0660 C.ar  385  TYR385     -0.0009
    165  CE1      -11.5340   -6.8170   10.4130 C.ar  385  TYR385      0.0417
    166  CE2      -12.8460   -7.6220    8.6240 C.ar  385  TYR385      0.0417
    167  CZ       -12.1950   -7.8410    9.7970 C.ar  385  TYR385      0.1957
    168  OH       -12.1780   -9.1310   10.3100 O.3   385  TYR385     -0.2866
    169  N        -16.9260  -10.2200   23.7780 N.3   839  MET839     -0.1245
    170  CA       -16.7930   -9.6120   22.4420 C.3   839  MET839      0.1570
    171  C        -18.0570   -8.8490   22.1170 C.2   839  MET839      0.2261
    172  O        -17.9900   -7.7120   21.6270 O.2   839  MET839     -0.2867
    173  CB       -16.5030  -10.6420   21.3550 C.3   839  MET839      0.0387
    174  CG       -15.8780  -10.0220   20.0700 C.3   839  MET839      0.0595
    175  SD       -15.1370  -11.3300   19.0370 S.3   839  MET839     -0.1393
    176  CE       -14.5090  -12.5260   20.2660 C.3   839  MET839      0.0692
@<TRIPOS>BOND
     1   130   129    2
     2   129   128    1
     3   128   127    1
     4   128   131    1
     5   135   133   ar
     6   131   132    1
     7   132   133    1
     8   133   134   ar
     9   123   122    2
    10    68    69    1
    11    74    72    1
    12    69    72    1
    13    69    70    1
    14    82    83    1
    15   122   121    1
    16    72    73    1
    17   101   102    1
    18    71    70    2
    19    70    75   am
    20    83    84    1
    21    83    86    1
    22    57    58    1
    23   103   102    1
    24   103   104    2
    25   121   120    1
    26   121   124    1
    27    85    84    2
    28    84    92   am
    29    75    76    1
    30    94    95    2
    31    94    93    1
    32   102   105    1
    33    59    58    1
    34    59    60    2
    35    86    87    1
    36    77    78    2
    37    77    76    1
    38    58    61    1
    39   125   124    1
    40    92    93    1
    41   124   126    1
    42    76    79    1
    43    93    96    1
    44    87    88   ar
    45    87    89   ar
    46   105   106    1
    47    88    90   ar
    48    61    62    1
    49    96    97    1
    50    79    81    1
    51    79    80    1
    52   106   107   ar
    53   106   108   ar
    54    89    91   ar
    55   114   113    2
    56   107   109   ar
    57    90    91   ar
    58    62    63    1
    59   108   110   ar
    60    97    98    1
    61   160   159    2
    62   113   112    1
    63   109   110   ar
    64    63    64    1
    65    52    49    1
    66    52    53    1
    67    98    99   ar
    68    98   100   ar
    69   111   112    1
    70   112   115    1
    71    51    50    2
    72   159   158    1
    73    49    50    1
    74    49    48    1
    75    53    54    1
    76    64    65    2
    77    67    65    1
    78   118   117   ar
    79    65    66    1
    80   158   161    1
    81   158   157    1
    82    54    56   ar
    83    54    55   ar
    84   115   116    1
    85    39    36    1
    86    48    42   am
    87    43    42    2
    88   164   166   ar
    89   164   162   ar
    90   161   162    1
    91   117   116    1
    92   117   119   ar
    93    42    41    1
    94   166   167   ar
    95   162   163   ar
    96    40    41    1
    97    40    37   am
    98    36    37    1
    99    36    35    1
   100    41    44    1
   101    37    38    2
   102    34    33    2
   103    35    33   am
   104    33    32    1
   105   167   168    1
   106   167   165   ar
   107   163   165   ar
   108    32    31    1
   109    47    46    1
   110    44    45    1
   111    45    46    1
   112    31    26   am
   113    17    16   ar
   114    18    16   ar
   115    16    15    1
   116    26    27    2
   117    26    25    1
   118   154   152   ar
   119   154   155   ar
   120   152   150   ar
   121    30    28    1
   122    28    25    1
   123    28    29    1
   124    15    14    1
   125    25    24    1
   126    14    11    1
   127   147   148    2
   128   147   146    1
   129     8     7    2
   130   156   155    1
   131   146   149    1
   132   146   145    1
   133   155   153   ar
   134   150   149    1
   135   150   151   ar
   136     9     7   am
   137     7     6    1
   138   153   151   ar
   139    11    10    1
   140    11    12    1
   141    12    13    2
   142    12    19   am
   143     2     5    1
   144     2     1    1
   145     2     3    1
   146     6     5    1
   147    20    19    1
   148    20    23    1
   149    20    21    1
   150     3     4    2
   151    22    21    2
   152   139   138    2
   153   175   174    1
   154   175   176    1
   155   138   137    1
   156   137   136    1
   157   137   140    1
   158   143   142   ar
   159   140   141    1
   160   174   173    1
   161   142   141    1
   162   142   144   ar
   163   173   170    1
   164   172   171    2
   165   171   170    1
   166   170   169    1
