@<TRIPOS>MOLECULE
tmp/5y1bA02.pdb
 175 178 0 0 0
SMALL
GASTEIGER

@<TRIPOS>ATOM
      1  N         49.8860    3.0540   11.5480 N.3   198  ARG198     -0.1245
      2  CA        49.1860    4.0550   12.3420 C.3   198  ARG198      0.1563
      3  C         50.1070    4.6930   13.3710 C.2   198  ARG198      0.2260
      4  O         49.8320    5.8060   13.8320 O.2   198  ARG198     -0.2867
      5  CB        47.9740    3.4270   13.0320 C.3   198  ARG198      0.0307
      6  CG        46.6810    3.5030   12.2300 C.3   198  ARG198      0.0489
      7  CD        46.7870    2.7460   10.9120 C.3   198  ARG198      0.2205
      8  NE        45.4910    2.6580   10.2430 N.pl3 198  ARG198     -0.0865
      9  CZ        44.6200    1.6740   10.4350 C.cat 198  ARG198      0.5346
     10  NH1       44.9070    0.6870   11.2730 N.pl3 198  ARG198      0.1354
     11  NH2       43.4630    1.6780    9.7900 N.pl3 198  ARG198      0.1354
     12  N         42.7720    1.9700    2.8030 N.3   281  HIS281     -0.1241
     13  CA        43.8890    2.0340    3.7490 C.3   281  HIS281      0.1621
     14  C         45.1900    2.4240    3.0500 C.2   281  HIS281      0.2264
     15  O         46.2580    1.8760    3.3280 O.2   281  HIS281     -0.2867
     16  CB        44.0510    0.7120    4.5040 C.3   281  HIS281      0.0745
     17  CG        42.9410    0.4280    5.4680 C.ar  281  HIS281      0.0817
     18  ND1       43.1580    0.2310    6.8140 N.ar  281  HIS281     -0.2268
     19  CD2       41.6050    0.3140    5.2820 C.ar  281  HIS281      0.1154
     20  CE1       42.0040    0.0020    7.4150 C.ar  281  HIS281      0.1986
     21  NE2       41.0460    0.0480    6.5080 N.ar  281  HIS281     -0.2212
     22  N         35.6650   13.8110    6.6800 N.3   300  TRP300     -0.1241
     23  CA        36.1430   12.4380    6.5420 C.3   300  TRP300      0.1605
     24  C         35.0670   11.4180    6.8900 C.2   300  TRP300      0.2264
     25  O         35.0860   10.2990    6.3640 O.2   300  TRP300     -0.2867
     26  CB        37.3880   12.2120    7.4070 C.3   300  TRP300      0.0550
     27  CG        37.1620   12.3150    8.8900 C.ar  300  TRP300      0.0003
     28  CD1       37.3840   13.4090    9.6750 C.ar  300  TRP300      0.0946
     29  CD2       36.6910   11.2800    9.7680 C.ar  300  TRP300      0.0152
     30  NE1       37.0740   13.1250   10.9830 N.ar  300  TRP300     -0.2442
     31  CE2       36.6470   11.8260   11.0670 C.ar  300  TRP300      0.0810
     32  CE3       36.3010    9.9490    9.5830 C.ar  300  TRP300      0.0012
     33  CZ2       36.2270   11.0890   12.1730 C.ar  300  TRP300      0.0191
     34  CZ3       35.8830    9.2190   10.6840 C.ar  300  TRP300      0.0001
     35  CH2       35.8500    9.7920   11.9610 C.ar  300  TRP300      0.0015
     36  N         36.3390    5.2900    7.2180 N.3   305  VAL305     -0.1231
     37  CA        36.0790    4.8480    8.5840 C.3   305  VAL305      0.1692
     38  C         36.8220    5.7170    9.5920 C.2   305  VAL305      0.2591
     39  O         36.3130    5.9800   10.6900 O.2   305  VAL305     -0.2718
     40  CB        36.4500    3.3580    8.7250 C.3   305  VAL305      0.0266
     41  CG1       36.3570    2.9060   10.1740 C.3   305  VAL305      0.0020
     42  CG2       35.5530    2.5010    7.8370 C.3   305  VAL305      0.0020
     43  N         38.0210    6.1840    9.2470 N.am  306  GLU306     -0.1979
     44  CA        38.8060    7.0270   10.1360 C.3   306  GLU306      0.1602
     45  C         39.7360    7.8880    9.2970 C.2   306  GLU306      0.2287
     46  O         40.1790    7.4560    8.2260 O.2   306  GLU306     -0.2864
     47  CB        39.6110    6.1920   11.1430 C.3   306  GLU306      0.0415
     48  CG        40.8270    5.5100   10.5520 C.3   306  GLU306      0.1163
     49  CD        41.4730    4.5310   11.5110 C.2   306  GLU306      0.3649
     50  OE1       42.7170    4.4520   11.5200 O.co2 306  GLU306     -0.2457
     51  OE2       40.7390    3.8450   12.2530 O.co2 306  GLU306     -0.2457
     52  N         40.4430   -4.6790    3.3670 N.3   345  ASP345     -0.1225
     53  CA        39.5970   -3.9450    4.2960 C.3   345  ASP345      0.1805
     54  C         38.5040   -3.2000    3.5350 C.2   345  ASP345      0.2597
     55  O         38.6650   -2.8410    2.3650 O.2   345  ASP345     -0.2718
     56  CB        40.4350   -2.9700    5.1270 C.3   345  ASP345      0.1424
     57  CG        40.9540   -3.5940    6.4120 C.2   345  ASP345      0.3668
     58  OD1       40.1510   -4.2190    7.1370 O.co2 345  ASP345     -0.2456
     59  OD2       42.1610   -3.4600    6.7030 O.co2 345  ASP345     -0.2456
     60  N         37.3830   -2.9690    4.2190 N.am  346  GLU346     -0.1979
     61  CA        36.1650   -2.4950    3.5690 C.3   346  GLU346      0.1602
     62  C         36.4090   -1.2150    2.7810 C.2   346  GLU346      0.2287
     63  O         36.9510   -0.2370    3.3020 O.2   346  GLU346     -0.2864
     64  CB        35.0700   -2.2730    4.6140 C.3   346  GLU346      0.0415
     65  CG        33.7280   -1.8660    4.0280 C.3   346  GLU346      0.1163
     66  CD        33.1380   -2.9340    3.1270 C.2   346  GLU346      0.3649
     67  OE1       33.3700   -4.1340    3.3880 O.co2 346  GLU346     -0.2457
     68  OE2       32.4440   -2.5710    2.1550 O.co2 346  GLU346     -0.2457
     69  N         40.4790   -9.8890    4.5350 N.3   402  TRP402     -0.1241
     70  CA        39.5690   -9.7750    5.6630 C.3   402  TRP402      0.1605
     71  C         38.1400  -10.0930    5.2310 C.2   402  TRP402      0.2264
     72  O         37.7860  -10.0150    4.0510 O.2   402  TRP402     -0.2867
     73  CB        39.6190   -8.3670    6.2570 C.3   402  TRP402      0.0550
     74  CG        40.8020   -8.1130    7.1370 C.ar  402  TRP402      0.0003
     75  CD1       41.9700   -7.4970    6.7860 C.ar  402  TRP402      0.0946
     76  CD2       40.9320   -8.4630    8.5200 C.ar  402  TRP402      0.0152
     77  NE1       42.8190   -7.4450    7.8650 N.ar  402  TRP402     -0.2442
     78  CE2       42.2050   -8.0310    8.9410 C.ar  402  TRP402      0.0810
     79  CE3       40.0950   -9.0990    9.4430 C.ar  402  TRP402      0.0012
     80  CZ2       42.6620   -8.2160   10.2440 C.ar  402  TRP402      0.0191
     81  CZ3       40.5510   -9.2800   10.7380 C.ar  402  TRP402      0.0001
     82  CH2       41.8230   -8.8410   11.1250 C.ar  402  TRP402      0.0015
     83  N         37.1130  -10.8200   11.4580 N.3   426  TRP426     -0.1241
     84  CA        36.9910   -9.8880   12.5720 C.3   426  TRP426      0.1605
     85  C         35.6260   -9.9420   13.2430 C.2   426  TRP426      0.2264
     86  O         35.4810   -9.4260   14.3560 O.2   426  TRP426     -0.2867
     87  CB        37.2760   -8.4450   12.1170 C.3   426  TRP426      0.0550
     88  CG        36.4030   -7.9390   11.0000 C.ar  426  TRP426      0.0003
     89  CD1       36.7560   -7.7890    9.6910 C.ar  426  TRP426      0.0946
     90  CD2       35.0400   -7.5020   11.0980 C.ar  426  TRP426      0.0152
     91  NE1       35.6980   -7.2940    8.9680 N.ar  426  TRP426     -0.2442
     92  CE2       34.6320   -7.1100    9.8090 C.ar  426  TRP426      0.0810
     93  CE3       34.1250   -7.4050   12.1500 C.ar  426  TRP426      0.0012
     94  CZ2       33.3510   -6.6340    9.5450 C.ar  426  TRP426      0.0191
     95  CZ3       32.8540   -6.9460   11.8840 C.ar  426  TRP426      0.0001
     96  CH2       32.4790   -6.5560   10.5950 C.ar  426  TRP426      0.0015
     97  N         36.7860   -9.4200   16.9040 N.3   449  TYR449     -0.1241
     98  CA        37.0770   -8.1400   17.5400 C.3   449  TYR449      0.1605
     99  C         36.5680   -8.0660   18.9750 C.2   449  TYR449      0.2264
    100  O         37.0320   -7.2100   19.7350 O.2   449  TYR449     -0.2867
    101  CB        36.4990   -6.9930   16.7060 C.3   449  TYR449      0.0534
    102  CG        35.0220   -6.7260   16.9020 C.ar  449  TYR449     -0.0201
    103  CD1       34.5800   -5.8460   17.8810 C.ar  449  TYR449     -0.0009
    104  CD2       34.0730   -7.3330   16.0900 C.ar  449  TYR449     -0.0009
    105  CE1       33.2370   -5.5940   18.0600 C.ar  449  TYR449      0.0417
    106  CE2       32.7240   -7.0840   16.2600 C.ar  449  TYR449      0.0417
    107  CZ        32.3110   -6.2140   17.2470 C.ar  449  TYR449      0.1957
    108  OH        30.9680   -5.9650   17.4190 O.3   449  TYR449     -0.2866
    109  N         40.8290   -8.1330   19.5350 N.3   453  TYR453     -0.1241
    110  CA        41.2840   -6.7940   19.1720 C.3   453  TYR453      0.1605
    111  C         41.9230   -6.1900   20.4150 C.2   453  TYR453      0.2264
    112  O         41.2290   -5.7360   21.3270 O.2   453  TYR453     -0.2867
    113  CB        40.1310   -5.9420   18.6500 C.3   453  TYR453      0.0534
    114  CG        39.9560   -6.0020   17.1490 C.ar  453  TYR453     -0.0201
    115  CD1       40.2700   -7.1560   16.4380 C.ar  453  TYR453     -0.0009
    116  CD2       39.4820   -4.9020   16.4420 C.ar  453  TYR453     -0.0009
    117  CE1       40.1120   -7.2160   15.0660 C.ar  453  TYR453      0.0417
    118  CE2       39.3220   -4.9530   15.0690 C.ar  453  TYR453      0.0417
    119  CZ        39.6400   -6.1140   14.3880 C.ar  453  TYR453      0.1957
    120  OH        39.4890   -6.1830   13.0240 O.3   453  TYR453     -0.2866
    121  N         40.3580    8.5880   20.4030 N.3   461  TRP461     -0.1227
    122  CA        41.3850    9.3690   19.7330 C.3   461  TRP461      0.1737
    123  C         40.8160   10.3490   18.7180 C.2   461  TRP461      0.2595
    124  O         41.5750   11.1510   18.1620 O.2   461  TRP461     -0.2718
    125  CB        42.4270    8.4500   19.0730 C.3   461  TRP461      0.0564
    126  CG        41.9620    7.6380   17.9000 C.ar  461  TRP461      0.0003
    127  CD1       41.3960    6.3960   17.9320 C.ar  461  TRP461      0.0946
    128  CD2       42.0740    7.9930   16.5170 C.ar  461  TRP461      0.0152
    129  NE1       41.1310    5.9640   16.6540 N.ar  461  TRP461     -0.2442
    130  CE2       41.5390    6.9260   15.7670 C.ar  461  TRP461      0.0810
    131  CE3       42.5640    9.1140   15.8400 C.ar  461  TRP461      0.0012
    132  CZ2       41.4800    6.9480   14.3730 C.ar  461  TRP461      0.0191
    133  CZ3       42.5080    9.1330   14.4560 C.ar  461  TRP461      0.0001
    134  CH2       41.9690    8.0570   13.7380 C.ar  461  TRP461      0.0015
    135  N         39.5090   10.3110   18.4680 N.am  462  VAL462     -0.1980
    136  CA        38.7750   11.4310   17.8940 C.3   462  VAL462      0.1595
    137  C         37.6170   11.7360   18.8360 C.2   462  VAL462      0.2287
    138  O         36.8740   10.8300   19.2330 O.2   462  VAL462     -0.2864
    139  CB        38.2850   11.1430   16.4600 C.3   462  VAL462      0.0276
    140  CG1       39.4670   10.8950   15.5300 C.3   462  VAL462      0.0022
    141  CG2       37.3250    9.9640   16.4200 C.3   462  VAL462      0.0022
    142  N         36.3460    2.8200   19.7610 N.3   468  TRP468     -0.1227
    143  CA        35.1070    2.2930   19.1920 C.3   468  TRP468      0.1737
    144  C         34.7600    0.9010   19.7120 C.2   468  TRP468      0.2595
    145  O         33.5760    0.5890   19.8850 O.2   468  TRP468     -0.2718
    146  CB        35.1980    2.2850   17.6640 C.3   468  TRP468      0.0564
    147  CG        36.0460    1.1890   17.1230 C.ar  468  TRP468      0.0003
    148  CD1       37.3710    1.2560   16.8030 C.ar  468  TRP468      0.0946
    149  CD2       35.6320   -0.1480   16.8380 C.ar  468  TRP468      0.0152
    150  NE1       37.8070    0.0380   16.3400 N.ar  468  TRP468     -0.2442
    151  CE2       36.7570   -0.8410   16.3520 C.ar  468  TRP468      0.0810
    152  CE3       34.4160   -0.8290   16.9500 C.ar  468  TRP468      0.0012
    153  CZ2       36.7010   -2.1800   15.9780 C.ar  468  TRP468      0.0191
    154  CZ3       34.3630   -2.1540   16.5850 C.ar  468  TRP468      0.0001
    155  CH2       35.5000   -2.8170   16.1100 C.ar  468  TRP468      0.0015
    156  N         35.7550    0.0480   19.9610 N.am  469  CYS469     -0.1970
    157  CA        35.4880   -1.3380   20.3220 C.3   469  CYS469      0.1712
    158  C         35.6740   -1.6120   21.8100 C.2   469  CYS469      0.2296
    159  O         35.8080   -2.7760   22.2030 O.2   469  CYS469     -0.2864
    160  CB        36.3620   -2.2860   19.5000 C.3   469  CYS469      0.0983
    161  SG        38.1350   -2.0410   19.6730 S.3   469  CYS469     -0.0798
    162  N         45.9960   -3.1000   16.4890 N.3   502  TRP502     -0.1241
    163  CA        45.9170   -1.8700   15.7190 C.3   502  TRP502      0.1605
    164  C         46.5390   -0.7340   16.5230 C.2   502  TRP502      0.2264
    165  O         46.5030   -0.7270   17.7560 O.2   502  TRP502     -0.2867
    166  CB        44.4630   -1.5610   15.3620 C.3   502  TRP502      0.0550
    167  CG        43.7920   -2.7020   14.6690 C.ar  502  TRP502      0.0003
    168  CD1       42.8180   -3.5130   15.1750 C.ar  502  TRP502      0.0946
    169  CD2       44.0570   -3.1720   13.3420 C.ar  502  TRP502      0.0152
    170  NE1       42.4560   -4.4560   14.2430 N.ar  502  TRP502     -0.2442
    171  CE2       43.2020   -4.2680   13.1090 C.ar  502  TRP502      0.0810
    172  CE3       44.9310   -2.7710   12.3270 C.ar  502  TRP502      0.0012
    173  CZ2       43.1940   -4.9660   11.9030 C.ar  502  TRP502      0.0191
    174  CZ3       44.9240   -3.4640   11.1310 C.ar  502  TRP502      0.0001
    175  CH2       44.0610   -4.5500   10.9280 C.ar  502  TRP502      0.0015
@<TRIPOS>BOND
     1    68    66   ar
     2    55    54    2
     3    62    63    2
     4    62    61    1
     5    12    13    1
     6    14    15    2
     7    14    13    1
     8    66    67   ar
     9    66    65    1
    10    52    53    1
    11    54    60   am
    12    54    53    1
    13    61    60    1
    14    61    64    1
    15    13    16    1
    16    65    64    1
    17    72    71    2
    18    53    56    1
    19    16    17    1
    20    69    70    1
    21    56    57    1
    22    71    70    1
    23    19    17   ar
    24    19    21   ar
    25    17    18   ar
    26    70    73    1
    27    73    74    1
    28    25    24    2
    29    57    59   ar
    30    57    58   ar
    31    21    20   ar
    32    23    22    1
    33    23    24    1
    34    23    26    1
    35    75    74   ar
    36    75    77   ar
    37    18    20   ar
    38    74    76   ar
    39    36    37    1
    40    26    27    1
    41    42    40    1
    42    77    78   ar
    43    46    45    2
    44    76    78   ar
    45    76    79   ar
    46    37    40    1
    47    37    38    1
    48    40    41    1
    49    27    28   ar
    50    27    29   ar
    51    78    80   ar
    52    91    89   ar
    53    91    92   ar
    54    43    38   am
    55    43    44    1
    56    45    44    1
    57    79    81   ar
    58    94    92   ar
    59    94    96   ar
    60    32    29   ar
    61    32    34   ar
    62    38    39    2
    63    28    30   ar
    64    89    88   ar
    65    29    31   ar
    66    11     9    1
    67    92    90   ar
    68    44    47    1
    69     8     9    2
    70     8     7    1
    71    80    82   ar
    72     9    10    1
    73    48    47    1
    74    48    49    1
    75    96    95   ar
    76    34    35   ar
    77    81    82   ar
    78     7     6    1
    79   175   174   ar
    80   175   173   ar
    81    30    31   ar
    82    88    90   ar
    83    88    87    1
    84    31    33   ar
    85    90    93   ar
    86   174   172   ar
    87    83    84    1
    88    49    50   ar
    89    49    51   ar
    90     1     2    1
    91    95    93   ar
    92   173   171   ar
    93    35    33   ar
    94    87    84    1
    95     6     5    1
    96   172   169   ar
    97     2     5    1
    98     2     3    1
    99    84    85    1
   100   120   119    1
   101   171   169   ar
   102   171   170   ar
   103    85    86    2
   104   169   167   ar
   105     3     4    2
   106   134   132   ar
   107   134   133   ar
   108   170   168   ar
   109   132   130   ar
   110   119   117   ar
   111   119   118   ar
   112   133   131   ar
   113   167   168   ar
   114   167   166    1
   115   117   115   ar
   116   118   116   ar
   117   166   163    1
   118   140   139    1
   119   163   162    1
   120   163   164    1
   121   130   128   ar
   122   130   129   ar
   123   131   128   ar
   124   153   155   ar
   125   153   151   ar
   126   104   106   ar
   127   104   102   ar
   128   155   154   ar
   129   106   107   ar
   130   150   151   ar
   131   150   148   ar
   132   151   149   ar
   133   141   139    1
   134   115   114   ar
   135   116   114   ar
   136   139   136    1
   137   128   126   ar
   138   164   165    2
   139   154   152   ar
   140   129   127   ar
   141   101   102    1
   142   101    98    1
   143   148   147   ar
   144   149   152   ar
   145   149   147   ar
   146   102   103   ar
   147    97    98    1
   148   147   146    1
   149   114   113    1
   150   107   108    1
   151   107   105   ar
   152    98    99    1
   153   146   143    1
   154   103   105   ar
   155   136   135    1
   156   136   137    1
   157   126   127   ar
   158   126   125    1
   159   124   123    2
   160   135   123   am
   161   113   110    1
   162   123   122    1
   163   137   138    2
   164    99   100    2
   165   125   122    1
   166   110   109    1
   167   110   111    1
   168   143   144    1
   169   143   142    1
   170   160   161    1
   171   160   157    1
   172   144   145    2
   173   144   156   am
   174   122   121    1
   175   156   157    1
   176   157   158    1
   177   111   112    2
   178   158   159    2
