@<TRIPOS>MOLECULE
tmp/5y1eA01.pdb
 111 110 0 0 0
SMALL
GASTEIGER

@<TRIPOS>ATOM
      1  N         17.3150  -10.3320   15.8860 N.3    73  LEU73      -0.1231
      2  CA        17.9980   -9.7630   14.7240 C.3    73  LEU73       0.1693
      3  C         18.3500  -10.8340   13.6970 C.2    73  LEU73       0.2592
      4  O         17.9900  -12.0040   13.8530 O.2    73  LEU73      -0.2718
      5  CB        19.2650   -9.0340   15.2130 C.3    73  LEU73       0.0284
      6  CG        19.1600   -7.5610   15.6440 C.3    73  LEU73       0.0019
      7  CD1       17.7790   -7.1570   16.1070 C.3    73  LEU73       0.0001
      8  CD2       20.2240   -7.2010   16.6640 C.3    73  LEU73       0.0001
      9  N         19.0440  -10.4410   12.6280 N.am   74  SER74      -0.1952
     10  CA        19.1370  -11.3080   11.4420 C.3    74  SER74       0.1924
     11  C         19.7850  -12.6750   11.6670 C.2    74  SER74       0.2314
     12  O         19.2620  -13.6920   11.2000 O.2    74  SER74      -0.2863
     13  CB        19.8710  -10.6040   10.3100 C.3    74  SER74       0.2116
     14  OG        21.1570  -10.2260   10.6800 O.3    74  SER74      -0.2180
     15  N         14.2010   -2.3460    8.3460 N.3   111  SER111     -0.1202
     16  CA        15.5980   -2.6840    8.1010 C.3   111  SER111      0.2020
     17  C         15.8570   -2.7430    6.6160 C.2   111  SER111      0.2618
     18  O         14.9490   -3.0670    5.8370 O.2   111  SER111     -0.2717
     19  CB        15.9460   -4.0420    8.7010 C.3   111  SER111      0.2103
     20  OG        17.2870   -4.3880    8.3930 O.3   111  SER111     -0.2182
     21  N         17.0950   -2.4970    6.2400 N.am  112  ILE112     -0.1979
     22  CA        17.5700   -2.8230    4.9040 C.3   112  ILE112      0.1595
     23  C         17.4250   -4.3140    4.5890 C.2   112  ILE112      0.2287
     24  O         17.5090   -4.7200    3.4350 O.2   112  ILE112     -0.2864
     25  CB        19.0070   -2.3430    4.6880 C.3   112  ILE112      0.0276
     26  CG1       19.9440   -3.0060    5.7150 C.3   112  ILE112      0.0022
     27  CG2       19.0690   -0.8050    4.7240 C.3   112  ILE112      0.0022
     28  CD1       21.3930   -2.9010    5.3580 C.3   112  ILE112      0.0001
     29  N         14.5740  -13.0820    9.0700 N.3   136  TYR136     -0.1241
     30  CA        14.4380  -11.7700    9.6950 C.3   136  TYR136      0.1605
     31  C         13.8670  -10.7350    8.7080 C.2   136  TYR136      0.2264
     32  O         12.9380   -9.9720    9.0340 O.2   136  TYR136     -0.2867
     33  CB        15.8020  -11.3560   10.2080 C.3   136  TYR136      0.0534
     34  CG        15.9410   -9.9300   10.6650 C.ar  136  TYR136     -0.0201
     35  CD1       15.4700   -9.5200   11.9050 C.ar  136  TYR136     -0.0009
     36  CD2       16.5950   -8.9950    9.8680 C.ar  136  TYR136     -0.0009
     37  CE1       15.6360   -8.2090   12.3390 C.ar  136  TYR136      0.0417
     38  CE2       16.7770   -7.6860   10.2820 C.ar  136  TYR136      0.0417
     39  CZ        16.3140   -7.2830   11.5090 C.ar  136  TYR136      0.1957
     40  OH        16.5610   -5.9790   11.9420 O.3   136  TYR136     -0.2866
     41  N         16.5280    1.0940    8.9470 N.3   163  TYR163     -0.1228
     42  CA        17.8610    1.4590    9.3210 C.3   163  TYR163      0.1721
     43  C         18.8610    0.6140    8.5580 C.2   163  TYR163      0.2437
     44  O         18.6380   -0.6020    8.3750 O.2   163  TYR163     -0.2733
     45  CB        18.1060    1.1910   10.7930 C.3   163  TYR163      0.0547
     46  CG        17.3480    2.0110   11.8230 C.ar  163  TYR163     -0.0200
     47  CD1       17.4900    3.3980   11.9200 C.ar  163  TYR163     -0.0009
     48  CD2       16.6540    1.3670   12.8120 C.ar  163  TYR163     -0.0009
     49  CE1       16.8550    4.1150   12.9400 C.ar  163  TYR163      0.0417
     50  CE2       16.0450    2.0550   13.8310 C.ar  163  TYR163      0.0417
     51  CZ        16.1390    3.4210   13.8950 C.ar  163  TYR163      0.1957
     52  OH        15.5310    4.0450   14.9540 O.3   163  TYR163     -0.2866
     53  N         19.9710    1.2400    8.1430 N.am  164  PRO164     -0.2718
     54  CA        21.1360    0.4700    7.7420 C.3   164  PRO164      0.1535
     55  C         21.8260   -0.1250    8.9510 C.2   164  PRO164      0.2599
     56  O         21.3420    0.0240   10.0690 O.2   164  PRO164     -0.2715
     57  CB        22.0390    1.4900    7.0760 C.3   164  PRO164      0.0310
     58  CG        21.5930    2.8040    7.5130 C.3   164  PRO164      0.0237
     59  CD        20.2250    2.6810    8.1350 C.3   164  PRO164      0.0939
     60  N         22.9630   -0.7880    8.7480 N.am  165  GLY165     -0.1941
     61  CA        23.7340   -1.2760    9.8890 C.3   165  GLY165      0.2014
     62  C         24.1700   -0.1270   10.7400 C.2   165  GLY165      0.2638
     63  O         24.7140    0.8330   10.2270 O.2   165  GLY165     -0.2714
     64  N         23.9410   -0.2320   12.0450 N.am  166  LEU166     -0.1977
     65  CA        24.2150    0.8550   12.9800 C.3   166  LEU166      0.1596
     66  C         25.4740    0.5890   13.7950 C.2   166  LEU166      0.2287
     67  O         25.6790   -0.5100   14.2530 O.2   166  LEU166     -0.2864
     68  CB        23.0310    1.0970   13.9350 C.3   166  LEU166      0.0297
     69  CG        21.7030    1.4590   13.2310 C.3   166  LEU166      0.0022
     70  CD1       20.5950    1.7290   14.2630 C.3   166  LEU166      0.0001
     71  CD2       21.8790    2.6100   12.2320 C.3   166  LEU166      0.0001
     72  N         23.1720   -9.9360   15.2330 N.3   176  GLY176     -0.1210
     73  CA        23.0120   -9.4290   13.8800 C.3   176  GLY176      0.1956
     74  C         24.1570   -9.8080   12.9490 C.2   176  GLY176      0.2613
     75  O         25.0390  -10.6350   13.2830 O.2   176  GLY176     -0.2717
     76  N         24.1300   -9.1810   11.7860 N.am  177  THR177     -0.1938
     77  CA        25.0340   -9.4710   10.6910 C.3   177  THR177      0.2028
     78  C         25.9440   -8.2970   10.4050 C.2   177  THR177      0.2643
     79  O         27.1300   -8.4960   10.1100 O.2   177  THR177     -0.2714
     80  CB        24.2130   -9.8890    9.4600 C.3   177  THR177      0.1808
     81  OG1       23.5690  -11.1280    9.7640 O.3   177  THR177     -0.2208
     82  CG2       25.0920  -10.0180    8.1910 C.3   177  THR177      0.0379
     83  N         25.4390   -7.0730   10.5680 N.am  178  THR178     -0.1936
     84  CA        26.2840   -5.8870   10.4600 C.3   178  THR178      0.2028
     85  C         27.2240   -5.6690   11.6590 C.2   178  THR178      0.2642
     86  O         28.0730   -4.7800   11.6220 O.2   178  THR178     -0.2714
     87  CB        25.4490   -4.6260   10.2690 C.3   178  THR178      0.1808
     88  OG1       24.4670   -4.5410   11.3040 O.3   178  THR178     -0.2208
     89  CG2       24.7510   -4.6630    8.9270 C.3   178  THR178      0.0379
     90  N         27.0530   -6.5040   12.6870 N.am  179  ASP179     -0.1971
     91  CA        27.8130   -6.4690   13.9380 C.3   179  ASP179      0.1709
     92  C         29.3150   -6.4840   13.7740 C.2   179  ASP179      0.2293
     93  O         30.0240   -6.0050   14.6630 O.2   179  ASP179     -0.2864
     94  CB        27.4610   -7.6820   14.8000 C.3   179  ASP179      0.1436
     95  CG        25.9980   -7.7370   15.1790 C.2   179  ASP179      0.3671
     96  OD1       25.1860   -7.0130   14.5530 O.co2 179  ASP179     -0.2456
     97  OD2       25.6590   -8.5420   16.0730 O.co2 179  ASP179     -0.2456
     98  N         21.9460   -8.6690    0.6330 N.3   271  TRP271     -0.1241
     99  CA        21.5380   -7.2910    0.9570 C.3   271  TRP271      0.1605
    100  C         22.2120   -6.2980    0.0150 C.2   271  TRP271      0.2264
    101  O         23.2410   -6.5910   -0.5680 O.2   271  TRP271     -0.2867
    102  CB        21.8930   -6.9320    2.4250 C.3   271  TRP271      0.0550
    103  CG        21.1130   -7.6380    3.4490 C.ar  271  TRP271      0.0003
    104  CD1       20.0130   -8.4050    3.2500 C.ar  271  TRP271      0.0946
    105  CD2       21.3720   -7.6810    4.8650 C.ar  271  TRP271      0.0152
    106  NE1       19.5640   -8.9200    4.4390 N.ar  271  TRP271     -0.2442
    107  CE2       20.3790   -8.4920    5.4460 C.ar  271  TRP271      0.0810
    108  CE3       22.3590   -7.1330    5.6930 C.ar  271  TRP271      0.0012
    109  CZ2       20.3260   -8.7520    6.8220 C.ar  271  TRP271      0.0191
    110  CZ3       22.3070   -7.3910    7.0630 C.ar  271  TRP271      0.0001
    111  CH2       21.2940   -8.1730    7.6150 C.ar  271  TRP271      0.0015
@<TRIPOS>BOND
     1   101   100    2
     2   100    99    1
     3    98    99    1
     4    99   102    1
     5   102   103    1
     6   104   103   ar
     7   104   106   ar
     8    24    23    2
     9   103   105   ar
    10   106   107   ar
    11    23    22    1
    12    25    27    1
    13    25    22    1
    14    25    26    1
    15   105   107   ar
    16   105   108   ar
    17    22    21    1
    18    28    26    1
    19   107   109   ar
    20   108   110   ar
    21    18    17    2
    22    21    17   am
    23    17    16    1
    24   109   111   ar
    25   110   111   ar
    26    57    58    1
    27    57    54    1
    28    58    59    1
    29    54    53    1
    30    54    55    1
    31    16    15    1
    32    16    19    1
    33    59    53    1
    34    53    43   am
    35    82    80    1
    36    44    43    2
    37    20    19    1
    38    43    42    1
    39    31    32    2
    40    31    30    1
    41    60    55   am
    42    60    61    1
    43    89    87    1
    44    41    42    1
    45    55    56    2
    46    29    30    1
    47    42    45    1
    48    80    81    1
    49    80    77    1
    50    30    33    1
    51    36    38   ar
    52    36    34   ar
    53    61    62    1
    54    79    78    2
    55    33    34    1
    56    63    62    2
    57    87    84    1
    58    87    88    1
    59    38    39   ar
    60    13    14    1
    61    13    10    1
    62    78    83   am
    63    78    77    1
    64    84    83    1
    65    84    85    1
    66    34    35   ar
    67    77    76    1
    68    62    64   am
    69    45    46    1
    70    12    11    2
    71    10    11    1
    72    10     9    1
    73    39    40    1
    74    39    37   ar
    75    86    85    2
    76    85    90   am
    77    76    74   am
    78    46    47   ar
    79    46    48   ar
    80    35    37   ar
    81    47    49   ar
    82    64    65    1
    83    71    69    1
    84     9     3   am
    85    90    91    1
    86    48    50   ar
    87    49    51   ar
    88    74    75    2
    89    74    73    1
    90    65    66    1
    91    65    68    1
    92    69    68    1
    93    69    70    1
    94     3     4    2
    95     3     2    1
    96    92    91    1
    97    92    93    2
    98    66    67    2
    99    50    51   ar
   100    73    72    1
   101    51    52    1
   102    91    94    1
   103    96    95   ar
   104     2     5    1
   105     2     1    1
   106    94    95    1
   107    95    97   ar
   108     5     6    1
   109     6     7    1
   110     6     8    1
