@<TRIPOS>MOLECULE
tmp/5y1gA00.pdb
 120 118 0 0 0
SMALL
GASTEIGER

@<TRIPOS>ATOM
      1  N         21.0380   -2.1030   21.6810 N.3    12  GLN12      -0.1245
      2  CA        22.0130   -1.1940   21.0740 C.3    12  GLN12       0.1566
      3  C         21.4320    0.1910   20.8370 C.2    12  GLN12       0.2260
      4  O         22.0470    1.2060   21.1700 O.2    12  GLN12      -0.2867
      5  CB        22.5600   -1.8040   19.7800 C.3    12  GLN12       0.0367
      6  CG        23.8010   -1.0630   19.2840 C.3    12  GLN12       0.0905
      7  CD        24.1890   -1.3530   17.8600 C.2    12  GLN12       0.2608
      8  OE1       23.5470   -2.1430   17.1450 O.2    12  GLN12      -0.2717
      9  NE2       25.2470   -0.6830   17.4180 N.am   12  GLN12      -0.0878
     10  N         17.3420  -10.1660   16.0650 N.3    75  LEU75      -0.1231
     11  CA        18.0580   -9.6200   14.9090 C.3    75  LEU75       0.1693
     12  C         18.4410  -10.6990   13.9180 C.2    75  LEU75       0.2592
     13  O         18.0250  -11.8560   14.0390 O.2    75  LEU75      -0.2718
     14  CB        19.3000   -8.8480   15.3470 C.3    75  LEU75       0.0284
     15  CG        19.0120   -7.7350   16.3540 C.3    75  LEU75       0.0019
     16  CD1       20.3090   -7.0430   16.6790 C.3    75  LEU75       0.0001
     17  CD2       17.9510   -6.7610   15.9190 C.3    75  LEU75       0.0001
     18  N         19.1280  -10.3180   12.8480 N.am   76  SER76      -0.1952
     19  CA        19.2100  -11.1570   11.6590 C.3    76  SER76       0.1924
     20  C         19.9430  -12.4700   11.8660 C.2    76  SER76       0.2314
     21  O         19.4800  -13.5230   11.3640 O.2    76  SER76      -0.2863
     22  CB        19.8580  -10.4170   10.4940 C.3    76  SER76       0.2116
     23  OG        21.1670   -9.9930   10.8540 O.3    76  SER76      -0.2180
     24  N         14.2360   -2.4960    8.5350 N.3   113  SER113     -0.1202
     25  CA        15.6260   -2.7940    8.2830 C.3   113  SER113      0.2020
     26  C         15.8860   -2.8390    6.7930 C.2   113  SER113      0.2618
     27  O         14.9910   -3.1930    6.0160 O.2   113  SER113     -0.2717
     28  CB        16.0220   -4.1440    8.9050 C.3   113  SER113      0.2103
     29  OG        17.3300   -4.5050    8.5370 O.3   113  SER113     -0.2182
     30  N         17.1320   -2.5730    6.4030 N.am  114  ILE114     -0.1979
     31  CA        17.5630   -2.8550    5.0450 C.3   114  ILE114      0.1595
     32  C         17.4430   -4.3460    4.7060 C.2   114  ILE114      0.2287
     33  O         17.4690   -4.6840    3.5260 O.2   114  ILE114     -0.2864
     34  CB        19.0150   -2.4080    4.7850 C.3   114  ILE114      0.0276
     35  CG1       20.0120   -3.0290    5.7920 C.3   114  ILE114      0.0022
     36  CG2       19.0800   -0.8760    4.8790 C.3   114  ILE114      0.0022
     37  CD1       21.4770   -2.9000    5.4670 C.3   114  ILE114      0.0001
     38  N         14.7000  -13.0510    9.2630 N.3   138  TYR138     -0.1241
     39  CA        14.4920  -11.7360    9.8720 C.3   138  TYR138      0.1605
     40  C         13.9310  -10.7440    8.8220 C.2   138  TYR138      0.2264
     41  O         13.0190   -9.9910    9.1030 O.2   138  TYR138     -0.2867
     42  CB        15.8350  -11.3060   10.3790 C.3   138  TYR138      0.0534
     43  CG        15.9340   -9.8470   10.8090 C.ar  138  TYR138     -0.0201
     44  CD1       15.5480   -9.4270   12.0680 C.ar  138  TYR138     -0.0009
     45  CD2       16.5350   -8.9250    9.9910 C.ar  138  TYR138     -0.0009
     46  CE1       15.7030   -8.1100   12.4760 C.ar  138  TYR138      0.0417
     47  CE2       16.7450   -7.6340   10.4000 C.ar  138  TYR138      0.0417
     48  CZ        16.3550   -7.2220   11.6490 C.ar  138  TYR138      0.1957
     49  OH        16.6440   -5.9380   12.0730 O.3   138  TYR138     -0.2866
     50  N         16.4510    0.9820    9.0590 N.3   165  TYR165     -0.1228
     51  CA        17.7960    1.3620    9.4200 C.3   165  TYR165      0.1721
     52  C         18.7950    0.5310    8.6190 C.2   165  TYR165      0.2437
     53  O         18.6090   -0.6800    8.4900 O.2   165  TYR165     -0.2733
     54  CB        18.1060    1.1270   10.9020 C.3   165  TYR165      0.0547
     55  CG        17.2820    1.9300   11.9210 C.ar  165  TYR165     -0.0200
     56  CD1       17.4220    3.2890   12.0160 C.ar  165  TYR165     -0.0009
     57  CD2       16.6000    1.2710   12.9180 C.ar  165  TYR165     -0.0009
     58  CE1       16.8180    4.0190   13.0490 C.ar  165  TYR165      0.0417
     59  CE2       16.0220    1.9520   13.9520 C.ar  165  TYR165      0.0417
     60  CZ        16.1300    3.3270   14.0240 C.ar  165  TYR165      0.1957
     61  OH        15.5630    3.9930   15.1240 O.3   165  TYR165     -0.2866
     62  N         19.9010    1.1680    8.2210 N.am  166  PRO166     -0.2718
     63  CA        21.0860    0.4440    7.8380 C.3   166  PRO166      0.1535
     64  C         21.7940   -0.1550    9.0330 C.2   166  PRO166      0.2599
     65  O         21.2920   -0.1000   10.1550 O.2   166  PRO166     -0.2715
     66  CB        21.9430    1.4860    7.1530 C.3   166  PRO166      0.0310
     67  CG        21.5470    2.7500    7.7120 C.3   166  PRO166      0.0237
     68  CD        20.1320    2.6190    8.1910 C.3   166  PRO166      0.0939
     69  N         22.9200   -0.8240    8.8140 N.am  167  GLY167     -0.1941
     70  CA        23.7280   -1.2880    9.9510 C.3   167  GLY167      0.2014
     71  C         24.1160   -0.1200   10.8480 C.2   167  GLY167      0.2638
     72  O         24.6480    0.8430   10.3290 O.2   167  GLY167     -0.2714
     73  N         23.9510   -0.2520   12.1420 N.am  168  LEU168     -0.1977
     74  CA        24.2290    0.8120   13.0700 C.3   168  LEU168      0.1596
     75  C         25.4820    0.5240   13.8610 C.2   168  LEU168      0.2287
     76  O         25.6750   -0.5600   14.4120 O.2   168  LEU168     -0.2864
     77  CB        23.0390    1.0920   13.9900 C.3   168  LEU168      0.0297
     78  CG        21.7310    1.3920   13.2620 C.3   168  LEU168      0.0022
     79  CD1       20.6540    1.7380   14.2720 C.3   168  LEU168      0.0001
     80  CD2       21.9280    2.5080   12.2770 C.3   168  LEU168      0.0001
     81  N         23.2940   -9.6530   15.4720 N.3   178  GLY178     -0.1210
     82  CA        23.1340   -9.2190   14.1000 C.3   178  GLY178      0.1956
     83  C         24.2330   -9.7030   13.1680 C.2   178  GLY178      0.2613
     84  O         25.1360  -10.4640   13.5490 O.2   178  GLY178     -0.2717
     85  N         24.2220   -9.0640   12.0150 N.am  179  THR179     -0.1938
     86  CA        25.1180   -9.3740   10.8790 C.3   179  THR179      0.2028
     87  C         26.0470   -8.2090   10.5740 C.2   179  THR179      0.2643
     88  O         27.1790   -8.4110   10.2020 O.2   179  THR179     -0.2714
     89  CB        24.2830   -9.7640    9.6780 C.3   179  THR179      0.1808
     90  OG1       23.6000  -11.0110    9.9810 O.3   179  THR179     -0.2208
     91  CG2       25.1160   -9.9720    8.4050 C.3   179  THR179      0.0379
     92  N         25.5820   -6.9670   10.7280 N.am  180  THR180     -0.1936
     93  CA        26.4140   -5.8100   10.5610 C.3   180  THR180      0.2028
     94  C         27.3100   -5.5620   11.7540 C.2   180  THR180      0.2642
     95  O         28.1900   -4.7040   11.6780 O.2   180  THR180     -0.2714
     96  CB        25.5660   -4.5690   10.3050 C.3   180  THR180      0.1808
     97  OG1       24.6300   -4.3660   11.3620 O.3   180  THR180     -0.2208
     98  CG2       24.8000   -4.7270    8.9960 C.3   180  THR180      0.0379
     99  N         27.1900   -6.4010   12.7860 N.am  181  ASP181     -0.1971
    100  CA        27.9220   -6.3030   14.0650 C.3   181  ASP181      0.1709
    101  C         29.4190   -6.2800   13.8460 C.2   181  ASP181      0.2293
    102  O         30.1680   -5.8280   14.7320 O.2   181  ASP181     -0.2864
    103  CB        27.5840   -7.4990   14.9810 C.3   181  ASP181      0.1436
    104  CG        26.1160   -7.5800   15.3470 C.2   181  ASP181      0.3671
    105  OD1       25.2770   -6.9640   14.6540 O.co2 181  ASP181     -0.2456
    106  OD2       25.7590   -8.3320   16.2910 O.co2 181  ASP181     -0.2456
    107  N         22.0260   -8.7270    0.7980 N.3   273  TRP273     -0.1241
    108  CA        21.5630   -7.3570    1.0720 C.3   273  TRP273      0.1605
    109  C         22.1900   -6.3680    0.1090 C.2   273  TRP273      0.2264
    110  O         23.2230   -6.6230   -0.4760 O.2   273  TRP273     -0.2867
    111  CB        21.9360   -6.9740    2.5060 C.3   273  TRP273      0.0550
    112  CG        21.1610   -7.6810    3.5630 C.ar  273  TRP273      0.0003
    113  CD1       20.0130   -8.4020    3.4020 C.ar  273  TRP273      0.0946
    114  CD2       21.4770   -7.7860    4.9480 C.ar  273  TRP273      0.0152
    115  NE1       19.5850   -8.9240    4.5850 N.ar  273  TRP273     -0.2442
    116  CE2       20.4480   -8.5490    5.5600 C.ar  273  TRP273      0.0810
    117  CE3       22.5540   -7.3610    5.7360 C.ar  273  TRP273      0.0012
    118  CZ2       20.4200   -8.8340    6.9010 C.ar  273  TRP273      0.0191
    119  CZ3       22.5350   -7.6660    7.0980 C.ar  273  TRP273      0.0001
    120  CH2       21.4840   -8.4380    7.6550 C.ar  273  TRP273      0.0015
@<TRIPOS>BOND
     1   110   109    2
     2   109   108    1
     3   107   108    1
     4   108   111    1
     5   111   112    1
     6   113   112   ar
     7   113   115   ar
     8    33    32    2
     9   112   114   ar
    10   115   116   ar
    11    32    31    1
    12    34    36    1
    13    34    31    1
    14    34    35    1
    15   114   116   ar
    16   114   117   ar
    17    31    30    1
    18    37    35    1
    19   116   118   ar
    20   117   119   ar
    21    27    26    2
    22    30    26   am
    23    26    25    1
    24   118   120   ar
    25   119   120   ar
    26    66    67    1
    27    66    63    1
    28    67    68    1
    29    63    62    1
    30    63    64    1
    31    68    62    1
    32    62    52   am
    33    25    24    1
    34    25    28    1
    35    91    89    1
    36    53    52    2
    37    29    28    1
    38    52    51    1
    39    69    64   am
    40    69    70    1
    41    40    41    2
    42    40    39    1
    43    98    96    1
    44    64    65    2
    45    50    51    1
    46    38    39    1
    47    51    54    1
    48    89    90    1
    49    89    86    1
    50    39    42    1
    51    70    71    1
    52    45    47   ar
    53    45    43   ar
    54    88    87    2
    55    96    93    1
    56    96    97    1
    57    72    71    2
    58    42    43    1
    59    47    48   ar
    60    22    23    1
    61    22    19    1
    62    93    92    1
    63    93    94    1
    64    87    92   am
    65    87    86    1
    66    43    44   ar
    67    71    73   am
    68    86    85    1
    69    54    55    1
    70    21    20    2
    71    48    49    1
    72    48    46   ar
    73    19    20    1
    74    19    18    1
    75    95    94    2
    76    94    99   am
    77    55    56   ar
    78    55    57   ar
    79    85    83   am
    80    56    58   ar
    81    44    46   ar
    82    73    74    1
    83    80    78    1
    84    99   100    1
    85    18    12   am
    86    57    59   ar
    87    58    60   ar
    88    74    75    1
    89    74    77    1
    90    83    84    2
    91    83    82    1
    92    78    77    1
    93    78    79    1
    94   101   100    1
    95   101   102    2
    96    75    76    2
    97    12    13    2
    98    12    11    1
    99    59    60   ar
   100    60    61    1
   101   100   103    1
   102    82    81    1
   103   105   104   ar
   104    11    14    1
   105    11    10    1
   106   103   104    1
   107   104   106   ar
   108    14    15    1
   109    17    15    1
   110    15    16    1
   111     8     7    2
   112     9     7   am
   113     7     6    1
   114     6     5    1
   115     5     2    1
   116     3     2    1
   117     3     4    2
   118     2     1    1
