@<TRIPOS>MOLECULE
tmp/5y1hA00.pdb
 171 162 0 0 0
SMALL
GASTEIGER

@<TRIPOS>ATOM
      1  N         22.3080  -21.5740   17.1250 N.3   122  GLN122     -0.1245
      2  CA        22.8530  -20.3290   16.5990 C.3   122  GLN122      0.1566
      3  C         24.1750  -20.1250   17.2320 C.2   122  GLN122      0.2260
      4  O         24.2820  -19.8620   18.4310 O.2   122  GLN122     -0.2867
      5  CB        21.9270  -19.1370   16.8730 C.3   122  GLN122      0.0367
      6  CG        22.5370  -17.8220   16.4990 C.3   122  GLN122      0.0905
      7  CD        22.9230  -17.7290   15.0780 C.2   122  GLN122      0.2608
      8  OE1       22.2440  -18.2280   14.1930 O.2   122  GLN122     -0.2717
      9  NE2       24.0140  -16.9950   14.8310 N.am  122  GLN122     -0.0878
     10  N         27.0310  -18.0790   15.6730 N.3   124  GLU124     -0.1245
     11  CA        27.7180  -16.7830   15.5210 C.3   124  GLU124      0.1567
     12  C         27.1260  -15.7920   16.5880 C.2   124  GLU124      0.2260
     13  O         25.8950  -15.7550   16.7630 O.2   124  GLU124     -0.2867
     14  CB        27.4980  -16.2340   14.1400 C.3   124  GLU124      0.0388
     15  CG        28.2850  -14.9460   13.9040 C.3   124  GLU124      0.1160
     16  CD        28.2970  -14.4230   12.5040 C.2   124  GLU124      0.3649
     17  OE1       27.6630  -15.0340   11.6510 O.co2 124  GLU124     -0.2457
     18  OE2       28.9090  -13.3280   12.2900 O.co2 124  GLU124     -0.2457
     19  N         13.9640  -16.4000   16.7170 N.3   262  PHE262     -0.1241
     20  CA        15.2910  -16.1080   16.1870 C.3   262  PHE262      0.1605
     21  C         15.6320  -14.6760   16.4530 C.2   262  PHE262      0.2264
     22  O         14.7810  -13.7590   16.3240 O.2   262  PHE262     -0.2867
     23  CB        15.3310  -16.3570   14.6560 C.3   262  PHE262      0.0534
     24  CG        16.7240  -16.6320   14.1010 C.ar  262  PHE262     -0.0203
     25  CD1       17.3590  -17.8080   14.3240 C.ar  262  PHE262     -0.0042
     26  CD2       17.3840  -15.6600   13.3560 C.ar  262  PHE262     -0.0042
     27  CE1       18.6280  -18.0470   13.8260 C.ar  262  PHE262     -0.0003
     28  CE2       18.6290  -15.8980   12.8310 C.ar  262  PHE262     -0.0003
     29  CZ        19.2640  -17.0910   13.0850 C.ar  262  PHE262     -0.0000
     30  N         17.6500  -12.3940   15.0460 N.3   264  VAL264     -0.1231
     31  CA        17.8770  -11.4570   13.9910 C.3   264  VAL264      0.1692
     32  C         17.1700  -12.0300   12.7150 C.2   264  VAL264      0.2593
     33  O         16.0720  -12.6370   12.8950 O.2   264  VAL264     -0.2718
     34  CB        19.3740  -11.1200   13.8730 C.3   264  VAL264      0.0266
     35  CG1       19.8550  -10.3720   15.1200 C.3   264  VAL264      0.0020
     36  CG2       20.1560  -12.3280   13.5960 C.3   264  VAL264      0.0020
     37  N         17.6790  -11.8270   11.5070 N.am  265  GLY265     -0.1942
     38  CA        17.0140  -12.2290   10.2660 C.3   265  GLY265      0.2014
     39  C         17.2940  -13.6920    9.8590 C.2   265  GLY265      0.2639
     40  O         16.3970  -14.4740    9.6810 O.2   265  GLY265     -0.2714
     41  N         18.5870  -14.0300    9.7960 N.am  266  ALA266     -0.1963
     42  CA        19.0110  -15.3520    9.3660 C.3   266  ALA266      0.1728
     43  C         20.4930  -15.5040    9.4850 C.2   266  ALA266      0.2616
     44  O         21.2000  -14.5360    9.7910 O.2   266  ALA266     -0.2715
     45  CB        18.5970  -15.6180    7.9050 C.3   266  ALA266      0.0334
     46  N         20.9620  -16.7160    9.2410 N.am  267  MET267     -0.1963
     47  CA        22.3600  -17.1150    9.5230 C.3   267  MET267      0.1736
     48  C         22.8870  -18.0500    8.4610 C.2   267  MET267      0.2616
     49  O         22.1860  -18.9990    8.0510 O.2   267  MET267     -0.2715
     50  CB        22.4860  -17.7440   10.9200 C.3   267  MET267      0.0427
     51  CG        23.8560  -18.3000   11.2790 C.3   267  MET267      0.0599
     52  SD        25.0150  -16.9360   11.3760 S.3   267  MET267     -0.1393
     53  CE        26.5140  -17.8020   10.8680 C.3   267  MET267      0.0692
     54  N         24.1190  -17.8060    8.0220 N.am  268  GLU268     -0.1977
     55  CA        24.7150  -18.4830    6.8730 C.3   268  GLU268      0.1602
     56  C         25.4660  -19.8040    7.1200 C.2   268  GLU268      0.2287
     57  O         26.4230  -20.0760    6.4090 O.2   268  GLU268     -0.2864
     58  CB        25.6560  -17.5010    6.1420 C.3   268  GLU268      0.0415
     59  CG        26.9690  -17.1800    6.9620 C.3   268  GLU268      0.1163
     60  CD        26.9580  -15.9250    7.8320 C.2   268  GLU268      0.3649
     61  OE1       25.8540  -15.5100    8.2750 O.co2 268  GLU268     -0.2457
     62  OE2       28.1180  -15.4440    8.1430 O.co2 268  GLU268     -0.2457
     63  N         14.9720  -16.6430   10.7000 N.3   276  ASN276     -0.1240
     64  CA        13.7200  -16.1910   11.3150 C.3   276  ASN276      0.1653
     65  C         12.6220  -16.5220   10.3150 C.2   276  ASN276      0.2266
     66  O         12.6990  -16.1900    9.1410 O.2   276  ASN276     -0.2867
     67  CB        13.8290  -14.6950   11.5480 C.3   276  ASN276      0.1155
     68  CG        12.6910  -14.1220   12.3480 C.2   276  ASN276      0.2627
     69  OD1       11.5440  -14.4910   12.2150 O.2   276  ASN276     -0.2716
     70  ND2       13.0410  -13.2240   13.2040 N.am  276  ASN276     -0.0877
     71  N         10.0180  -14.9660    9.7770 N.3   278  ASN278     -0.1240
     72  CA         9.5670  -13.7400    9.1030 C.3   278  ASN278      0.1653
     73  C         10.4030  -13.3530    7.9150 C.2   278  ASN278      0.2266
     74  O         10.0530  -12.4420    7.1870 O.2   278  ASN278     -0.2867
     75  CB         9.3720  -12.5530   10.0260 C.3   278  ASN278      0.1155
     76  CG        10.6520  -11.9300   10.6030 C.2   278  ASN278      0.2627
     77  OD1       11.7770  -12.0910   10.1060 O.2   278  ASN278     -0.2716
     78  ND2       10.4690  -11.2170   11.7580 N.am  278  ASN278     -0.0877
     79  N         11.6760   -8.6720    1.7620 N.3   294  ARG294     -0.1245
     80  CA        12.5310   -9.0500    2.8890 C.3   294  ARG294      0.1563
     81  C         13.1030  -10.4460    2.6360 C.2   294  ARG294      0.2260
     82  O         14.3140  -10.6750    2.8200 O.2   294  ARG294     -0.2867
     83  CB        11.6760   -9.0510    4.1520 C.3   294  ARG294      0.0307
     84  CG        12.3320   -9.5880    5.3950 C.3   294  ARG294      0.0489
     85  CD        13.4110   -8.6330    5.8850 C.3   294  ARG294      0.2205
     86  NE        13.9850   -9.2410    7.0760 N.pl3 294  ARG294     -0.0865
     87  CZ        15.0990   -8.8630    7.6800 C.cat 294  ARG294      0.5346
     88  NH1       15.4540   -9.5720    8.6910 N.pl3 294  ARG294      0.1354
     89  NH2       15.8480   -7.8090    7.2650 N.pl3 294  ARG294      0.1354
     90  N         21.2120  -12.6170    0.8890 N.3   301  HIS301     -0.1226
     91  CA        22.2870  -12.3470    1.8300 C.3   301  HIS301      0.1752
     92  C         22.9730  -13.6020    2.3400 C.2   301  HIS301      0.2595
     93  O         24.2180  -13.7190    2.2980 O.2   301  HIS301     -0.2718
     94  CB        21.7350  -11.4510    2.9350 C.3   301  HIS301      0.0759
     95  CG        22.7400  -11.0780    3.9740 C.ar  301  HIS301      0.0818
     96  ND1       23.2790   -9.8220    4.0360 N.ar  301  HIS301     -0.2268
     97  CD2       23.2440  -11.7550    5.0530 C.ar  301  HIS301      0.1154
     98  CE1       24.0760   -9.7440    5.0930 C.ar  301  HIS301      0.1986
     99  NE2       24.0950  -10.9090    5.6980 N.ar  301  HIS301     -0.2212
    100  N         22.1930  -14.5380    2.9170 N.am  302  GLU302     -0.1979
    101  CA        22.8210  -15.7560    3.4440 C.3   302  GLU302      0.1602
    102  C         23.5280  -16.5240    2.3500 C.2   302  GLU302      0.2287
    103  O         24.5690  -17.0900    2.6040 O.2   302  GLU302     -0.2864
    104  CB        21.8100  -16.6530    4.2050 C.3   302  GLU302      0.0415
    105  CG        21.0240  -15.9220    5.2880 C.3   302  GLU302      0.1163
    106  CD        21.7940  -14.9680    6.1650 C.2   302  GLU302      0.3649
    107  OE1       23.0050  -15.1370    6.5250 O.co2 302  GLU302     -0.2457
    108  OE2       21.1980  -13.9650    6.6080 O.co2 302  GLU302     -0.2457
    109  N         26.9150  -15.0640    1.4690 N.3   305  HIS305     -0.1241
    110  CA        27.9330  -15.3550    2.4650 C.3   305  HIS305      0.1621
    111  C         28.6700  -16.6630    2.1180 C.2   305  HIS305      0.2264
    112  O         29.7650  -16.8700    2.6670 O.2   305  HIS305     -0.2867
    113  CB        27.3360  -15.5390    3.8600 C.3   305  HIS305      0.0745
    114  CG        27.1720  -14.3190    4.6620 C.ar  305  HIS305      0.0817
    115  ND1       28.2160  -13.4590    4.9110 N.ar  305  HIS305     -0.2268
    116  CD2       26.1570  -13.9110    5.4470 C.ar  305  HIS305      0.1154
    117  CE1       27.8160  -12.5340    5.7580 C.ar  305  HIS305      0.1986
    118  NE2       26.5680  -12.7910    6.1080 N.ar  305  HIS305     -0.2212
    119  N         30.2530   -8.8140    6.4960 N.3   324  GLU324     -0.1245
    120  CA        28.8560   -8.2400    6.5230 C.3   324  GLU324      0.1567
    121  C         28.6920   -7.0720    5.5940 C.2   324  GLU324      0.2260
    122  O         27.7130   -7.0350    4.8310 O.2   324  GLU324     -0.2867
    123  CB        28.4020   -7.9170    7.9380 C.3   324  GLU324      0.0388
    124  CG        28.3930   -9.1390    8.8510 C.3   324  GLU324      0.1160
    125  CD        27.4470  -10.2330    8.3890 C.2   324  GLU324      0.3649
    126  OE1       26.5560  -10.0100    7.5390 O.co2 324  GLU324     -0.2457
    127  OE2       27.5530  -11.3550    8.9220 O.co2 324  GLU324     -0.2457
    128  N         27.3240   -5.8160   15.8830 N.3   380  TYR380     -0.1241
    129  CA        26.5080   -6.1410   14.7160 C.3   380  TYR380      0.1605
    130  C         25.5570   -4.9730   14.4870 C.2   380  TYR380      0.2264
    131  O         24.3710   -5.0340   14.8210 O.2   380  TYR380     -0.2867
    132  CB        25.7550   -7.4440   14.9040 C.3   380  TYR380      0.0534
    133  CG        26.6860   -8.6470   14.8100 C.ar  380  TYR380     -0.0201
    134  CD1       27.5840   -8.9860   15.8220 C.ar  380  TYR380     -0.0009
    135  CD2       26.6810   -9.4670   13.7440 C.ar  380  TYR380     -0.0009
    136  CE1       28.4620  -10.0250   15.6980 C.ar  380  TYR380      0.0417
    137  CE2       27.5440  -10.5850   13.6310 C.ar  380  TYR380      0.0417
    138  CZ        28.4350  -10.8700   14.6160 C.ar  380  TYR380      0.1957
    139  OH        29.3110  -11.8800   14.5310 O.3   380  TYR380     -0.2866
    140  N         27.2840   -2.9770    9.0390 N.3   385  TYR385     -0.1241
    141  CA        26.5580   -3.5350    7.9630 C.3   385  TYR385      0.1605
    142  C         26.3490   -2.5460    6.7950 C.2   385  TYR385      0.2264
    143  O         26.7490   -2.8290    5.6270 O.2   385  TYR385     -0.2867
    144  CB        25.1750   -4.0820    8.4010 C.3   385  TYR385      0.0534
    145  CG        25.2430   -5.4820    9.0270 C.ar  385  TYR385     -0.0201
    146  CD1       25.9150   -5.7120   10.1970 C.ar  385  TYR385     -0.0009
    147  CD2       24.6270   -6.5330    8.4190 C.ar  385  TYR385     -0.0009
    148  CE1       25.9740   -6.9710   10.7630 C.ar  385  TYR385      0.0417
    149  CE2       24.6820   -7.7970    8.9330 C.ar  385  TYR385      0.0417
    150  CZ        25.3500   -8.0250   10.1170 C.ar  385  TYR385      0.1957
    151  OH        25.4390   -9.2900   10.6390 O.3   385  TYR385     -0.2866
    152  N          9.1910   -7.4860   19.6940 N.3   802  ARG802     -0.1245
    153  CA         9.5200   -6.3970   18.8010 C.3   802  ARG802      0.1563
    154  C          8.3100   -5.7770   18.1450 C.2   802  ARG802      0.2260
    155  O          8.2730   -4.5220   17.9290 O.2   802  ARG802     -0.2867
    156  CB        10.5230   -6.8510   17.7420 C.3   802  ARG802      0.0307
    157  CG        11.8990   -7.0380   18.3290 C.3   802  ARG802      0.0489
    158  CD        12.9010   -7.2980   17.1800 C.3   802  ARG802      0.2205
    159  NE        12.7600   -8.6200   16.6150 N.pl3 802  ARG802     -0.0865
    160  CZ        13.6130   -9.6520   16.6760 C.cat 802  ARG802      0.5346
    161  NH1       13.2500  -10.8090   16.0840 N.pl3 802  ARG802      0.1354
    162  NH2       14.6870   -9.6410   17.4250 N.pl3 802  ARG802      0.1354
    163  N         18.5430   -4.6210   21.4450 N.3   843  GLN843     -0.1245
    164  CA        17.7330   -4.1210   20.3030 C.3   843  GLN843      0.1566
    165  C         16.6440   -3.1380   20.7380 C.2   843  GLN843      0.2260
    166  O         16.3920   -2.1140   20.0420 O.2   843  GLN843     -0.2867
    167  CB        17.0940   -5.2450   19.5080 C.3   843  GLN843      0.0367
    168  CG        18.1060   -6.1050   18.8000 C.3   843  GLN843      0.0905
    169  CD        17.4490   -7.3360   18.2290 C.2   843  GLN843      0.2608
    170  OE1       16.2740   -7.4550   18.2410 O.2   843  GLN843     -0.2717
    171  NE2       18.2350   -8.2540   17.7370 N.am  843  GLN843     -0.0878
@<TRIPOS>BOND
     1    90    91    1
     2   109   110    1
     3    79    80    1
     4    91    92    1
     5    91    94    1
     6   111   110    1
     7   111   112    2
     8    93    92    2
     9    92   100   am
    10   102   103    2
    11   102   101    1
    12   110   113    1
    13    81    82    2
    14    81    80    1
    15    80    83    1
    16   100   101    1
    17    94    95    1
    18   101   104    1
    19   113   114    1
    20    95    96   ar
    21    95    97   ar
    22    96    98   ar
    23    83    84    1
    24   104   105    1
    25   114   115   ar
    26   114   116   ar
    27   122   121    2
    28   115   117   ar
    29    97    99   ar
    30    98    99   ar
    31   105   106    1
    32    84    85    1
    33   116   118   ar
    34   121   120    1
    35   143   142    2
    36   117   118   ar
    37    85    86    1
    38    58    55    1
    39    58    59    1
    40   106   107   ar
    41   106   108   ar
    42    57    56    2
    43   119   120    1
    44   120   123    1
    45   142   141    1
    46    55    56    1
    47    55    54    1
    48    59    60    1
    49    86    87    2
    50    74    73    2
    51    89    87    1
    52   126   125   ar
    53    87    88    1
    54    60    62   ar
    55    60    61   ar
    56    45    42    1
    57    73    72    1
    58   123   124    1
    59   141   144    1
    60   141   140    1
    61    54    48   am
    62    49    48    2
    63   125   124    1
    64   125   127   ar
    65   144   145    1
    66   147   149   ar
    67   147   145   ar
    68    48    47    1
    69   149   150   ar
    70   145   146   ar
    71    72    71    1
    72    72    75    1
    73    66    65    2
    74    46    43   am
    75    46    47    1
    76    42    43    1
    77    42    41    1
    78    43    44    2
    79    47    50    1
    80    40    39    2
    81    41    39   am
    82    39    38    1
    83    75    76    1
    84    77    76    2
    85   150   151    1
    86   150   148   ar
    87   146   148   ar
    88    38    37    1
    89    65    64    1
    90    76    78   am
    91    63    64    1
    92    53    52    1
    93    50    51    1
    94    51    52    1
    95    64    67    1
    96    37    32   am
    97    67    68    1
    98    17    16   ar
    99    69    68    2
   100    18    16   ar
   101    68    70   am
   102    16    15    1
   103    32    33    2
   104    32    31    1
   105    28    29   ar
   106    28    26   ar
   107    29    27   ar
   108    26    24   ar
   109    36    34    1
   110   137   135   ar
   111   137   138   ar
   112   135   133   ar
   113    27    25   ar
   114    34    31    1
   115    34    35    1
   116    15    14    1
   117    31    30    1
   118    24    25   ar
   119    24    23    1
   120    14    11    1
   121     8     7    2
   122   130   129    1
   123   130   131    2
   124   139   138    1
   125   138   136   ar
   126    23    20    1
   127   129   132    1
   128   129   128    1
   129   133   132    1
   130   133   134   ar
   131     9     7   am
   132     7     6    1
   133    11    10    1
   134    11    12    1
   135   136   134   ar
   136   161   160    1
   137    20    21    1
   138    20    19    1
   139    22    21    2
   140     6     5    1
   141    12    13    2
   142     2     5    1
   143     2     1    1
   144     2     3    1
   145   159   160    2
   146   159   158    1
   147   160   162    1
   148   158   157    1
   149     3     4    2
   150   171   169   am
   151   156   157    1
   152   156   153    1
   153   155   154    2
   154   154   153    1
   155   169   170    2
   156   169   168    1
   157   168   167    1
   158   153   152    1
   159   167   164    1
   160   166   165    2
   161   164   165    1
   162   164   163    1
