@<TRIPOS>MOLECULE
tmp/5y1jA01.pdb
 227 220 0 0 0
SMALL
GASTEIGER

@<TRIPOS>ATOM
      1  N         -3.8480   68.5640   48.6620 N.3    22  MET22      -0.1245
      2  CA        -3.1370   68.8930   47.4740 C.3    22  MET22       0.1570
      3  C         -3.8540   70.1880   47.1080 C.2    22  MET22       0.2261
      4  O         -4.9370   70.1490   46.5730 O.2    22  MET22      -0.2867
      5  CB        -3.3370   67.7690   46.4510 C.3    22  MET22       0.0387
      6  CG        -2.8420   68.1340   45.0690 C.3    22  MET22       0.0595
      7  SD        -1.2680   69.0290   45.0970 S.3    22  MET22      -0.1393
      8  CE        -0.6720   68.4010   43.5190 C.3    22  MET22       0.0692
      9  N          9.1530   73.0250   36.2390 N.3    41  PHE41      -0.1241
     10  CA         9.9290   73.1340   37.4520 C.3    41  PHE41       0.1605
     11  C          9.2830   74.0390   38.4640 C.2    41  PHE41       0.2264
     12  O          9.4290   73.7940   39.6750 O.2    41  PHE41      -0.2867
     13  CB        11.3540   73.6050   37.1190 C.3    41  PHE41       0.0534
     14  CG        12.2240   73.7470   38.3140 C.ar   41  PHE41      -0.0203
     15  CD1       12.8160   72.6240   38.8780 C.ar   41  PHE41      -0.0042
     16  CD2       12.4900   74.9860   38.8130 C.ar   41  PHE41      -0.0042
     17  CE1       13.6560   72.7570   40.0280 C.ar   41  PHE41      -0.0003
     18  CE2       13.3440   75.1550   39.8970 C.ar   41  PHE41      -0.0003
     19  CZ        13.9150   74.0390   40.5060 C.ar   41  PHE41      -0.0000
     20  N          6.6380   71.8730   39.9480 N.3    44  LEU44      -0.1231
     21  CA         7.3080   70.9250   40.8180 C.3    44  LEU44       0.1693
     22  C          7.7920   71.5130   42.1910 C.2    44  LEU44       0.2592
     23  O          7.6470   70.8740   43.2560 O.2    44  LEU44      -0.2718
     24  CB         8.4170   70.2060   40.0550 C.3    44  LEU44       0.0284
     25  CG         8.8840   68.8760   40.6510 C.3    44  LEU44       0.0019
     26  CD1        7.8060   67.7740   40.6570 C.3    44  LEU44       0.0001
     27  CD2       10.1440   68.3490   39.9100 C.3    44  LEU44       0.0001
     28  N          8.2740   72.7530   42.1350 N.am   45  THR45      -0.1953
     29  CA         8.6660   73.5540   43.2730 C.3    45  THR45       0.1897
     30  C          7.5050   73.7250   44.2040 C.2    45  THR45       0.2313
     31  O          7.6490   73.5200   45.4200 O.2    45  THR45      -0.2863
     32  CB         9.2950   74.9050   42.8260 C.3    45  THR45       0.1794
     33  OG1       10.5380   74.6200   42.2310 O.3    45  THR45      -0.2208
     34  CG2        9.5230   75.8070   43.9420 C.3    45  THR45       0.0378
     35  N          4.8260   71.8720   44.3490 N.3    47  MET47      -0.1230
     36  CA         4.4730   70.5560   44.8700 C.3    47  MET47       0.1702
     37  C          5.4040   70.1370   46.0350 C.2    47  MET47       0.2592
     38  O          4.9290   69.6720   47.0870 O.2    47  MET47      -0.2718
     39  CB         4.5340   69.4860   43.7960 C.3    47  MET47       0.0401
     40  CG         3.4240   69.6030   42.7480 C.3    47  MET47       0.0596
     41  SD         3.7800   68.6510   41.2400 S.3    47  MET47      -0.1393
     42  CE         3.8140   66.9330   41.7590 C.3    47  MET47       0.0692
     43  N          6.6870   70.2700   45.8140 N.am   48  ALA48      -0.1980
     44  CA         7.6440   69.9750   46.8580 C.3    48  ALA48       0.1597
     45  C          7.4100   70.8470   48.0790 C.2    48  ALA48       0.2287
     46  O          7.3700   70.3340   49.1890 O.2    48  ALA48      -0.2864
     47  CB         9.0660   70.0070   46.3700 C.3    48  ALA48       0.0319
     48  N          4.4820   69.5140   50.0410 N.3    51  HIS51      -0.1241
     49  CA         4.8760   68.2820   50.7390 C.3    51  HIS51       0.1621
     50  C          5.6210   68.6230   52.0180 C.2    51  HIS51       0.2264
     51  O          5.3830   68.0070   53.0270 O.2    51  HIS51      -0.2867
     52  CB         5.7830   67.4280   49.9070 C.3    51  HIS51       0.0745
     53  CG         5.0670   66.5540   48.9390 C.ar   51  HIS51       0.0817
     54  ND1        5.2450   66.6480   47.5530 N.ar   51  HIS51      -0.2268
     55  CD2        4.2310   65.5120   49.1490 C.ar   51  HIS51       0.1154
     56  CE1        4.5120   65.7330   46.9580 C.ar   51  HIS51       0.1986
     57  NE2        3.8590   65.0570   47.8900 N.ar   51  HIS51      -0.2212
     58  N          8.4850   62.6700   51.5460 N.3    85  MET85      -0.1230
     59  CA         7.9870   63.1810   50.2930 C.3    85  MET85       0.1702
     60  C          7.7260   62.0720   49.2430 C.2    85  MET85       0.2592
     61  O          6.6810   62.0610   48.6140 O.2    85  MET85      -0.2718
     62  CB         8.9780   64.2230   49.7030 C.3    85  MET85       0.0401
     63  CG         8.4290   64.7920   48.3890 C.3    85  MET85       0.0596
     64  SD         9.3210   66.2190   47.8280 S.3    85  MET85      -0.1393
     65  CE        10.7910   65.4880   47.1650 C.3    85  MET85       0.0692
     66  N          8.7180   61.2320   48.9730 N.am   86  PHE86      -0.1976
     67  CA         8.5300   60.1750   47.9930 C.3    86  PHE86       0.1639
     68  C          7.5360   59.1540   48.4130 C.2    86  PHE86       0.2290
     69  O          6.9120   58.5780   47.5690 O.2    86  PHE86      -0.2864
     70  CB         9.8320   59.5620   47.5860 C.3    86  PHE86       0.0560
     71  CG        10.6880   60.4650   46.7440 C.ar   86  PHE86      -0.0200
     72  CD1       10.2050   60.9850   45.5450 C.ar   86  PHE86      -0.0042
     73  CD2       11.9610   60.7980   47.1280 C.ar   86  PHE86      -0.0042
     74  CE1       11.0140   61.8080   44.7470 C.ar   86  PHE86      -0.0003
     75  CE2       12.7710   61.6030   46.3290 C.ar   86  PHE86      -0.0003
     76  CZ        12.2850   62.1370   45.1590 C.ar   86  PHE86      -0.0000
     77  N          4.1800   60.8550   47.5560 N.3    89  SER89      -0.1217
     78  CA         4.0850   60.7640   46.0760 C.3    89  SER89       0.1889
     79  C          3.6730   59.3850   45.6270 C.2    89  SER89       0.2288
     80  O          2.7980   59.2660   44.7790 O.2    89  SER89      -0.2866
     81  CB         5.3830   61.2050   45.4220 C.3    89  SER89       0.2089
     82  OG         5.6850   62.5630   45.7820 O.3    89  SER89      -0.2183
     83  N         -0.0520   58.8910   46.3610 N.3    92  ILE92      -0.1231
     84  CA        -0.8330   59.6790   45.4120 C.3    92  ILE92       0.1692
     85  C         -0.8650   59.0460   44.0550 C.2    92  ILE92       0.2592
     86  O         -1.9660   58.8990   43.5100 O.2    92  ILE92      -0.2718
     87  CB        -0.3680   61.1290   45.3370 C.3    92  ILE92       0.0266
     88  CG1       -0.6890   61.8020   46.6640 C.3    92  ILE92       0.0019
     89  CG2       -1.0490   61.8410   44.1440 C.3    92  ILE92       0.0020
     90  CD1        0.0250   63.1110   46.8860 C.3    92  ILE92       0.0001
     91  N          0.3090   58.6820   43.5450 N.am   93  PHE93      -0.1976
     92  CA         0.4720   57.9990   42.2700 C.3    93  PHE93       0.1639
     93  C         -0.4030   56.7350   42.2030 C.2    93  PHE93       0.2290
     94  O         -1.0270   56.4370   41.1960 O.2    93  PHE93      -0.2864
     95  CB         1.9440   57.6910   41.9660 C.3    93  PHE93       0.0560
     96  CG         2.1810   57.0310   40.6020 C.ar   93  PHE93      -0.0200
     97  CD1        2.3310   57.7910   39.4400 C.ar   93  PHE93      -0.0042
     98  CD2        2.2920   55.6550   40.5060 C.ar   93  PHE93      -0.0042
     99  CE1        2.5620   57.1610   38.2120 C.ar   93  PHE93      -0.0003
    100  CE2        2.4900   55.0030   39.2650 C.ar   93  PHE93      -0.0003
    101  CZ         2.6400   55.7650   38.1430 C.ar   93  PHE93      -0.0000
    102  N         -2.7940   61.8460   35.6070 N.3   100  SER100     -0.1217
    103  CA        -1.5430   61.2050   35.9390 C.3   100  SER100      0.1889
    104  C         -0.5060   61.3010   34.8300 C.2   100  SER100      0.2288
    105  O          0.6770   61.5690   35.0910 O.2   100  SER100     -0.2866
    106  CB        -1.7640   59.7470   36.2750 C.3   100  SER100      0.2089
    107  OG        -0.5360   59.2100   36.7600 O.3   100  SER100     -0.2183
    108  N          0.7080   65.0350   34.6690 N.3   103  LEU103     -0.1245
    109  CA         1.6680   65.2720   35.7520 C.3   103  LEU103      0.1561
    110  C          3.0270   64.5610   35.5350 C.2   103  LEU103      0.2260
    111  O          4.0880   65.1950   35.5810 O.2   103  LEU103     -0.2867
    112  CB         1.0980   64.7610   37.0540 C.3   103  LEU103      0.0270
    113  CG         2.0310   65.0370   38.2540 C.3   103  LEU103      0.0019
    114  CD1        2.6080   66.4570   38.3350 C.3   103  LEU103      0.0001
    115  CD2        1.2640   64.7250   39.5300 C.3   103  LEU103      0.0001
    116  N          6.8040   66.2000   35.1590 N.3   107  ILE107     -0.1245
    117  CA         7.9280   65.8350   36.0630 C.3   107  ILE107      0.1561
    118  C          9.1300   65.4120   35.2090 C.2   107  ILE107      0.2260
    119  O         10.2570   65.7860   35.5010 O.2   107  ILE107     -0.2867
    120  CB         7.5220   64.7310   37.0150 C.3   107  ILE107      0.0252
    121  CG1        6.4680   65.2800   37.9910 C.3   107  ILE107      0.0019
    122  CG2        8.7260   64.2310   37.7550 C.3   107  ILE107      0.0019
    123  CD1        5.8270   64.1640   38.8510 C.3   107  ILE107      0.0001
    124  N         12.1440   57.2360   40.3230 N.3   120  MET120     -0.1230
    125  CA        10.9730   57.5840   41.1370 C.3   120  MET120      0.1702
    126  C          9.7600   56.7650   40.7290 C.2   120  MET120      0.2592
    127  O          9.1090   56.1240   41.5690 O.2   120  MET120     -0.2718
    128  CB        10.6710   59.0830   40.9910 C.3   120  MET120      0.0401
    129  CG        11.8130   59.9970   41.4620 C.3   120  MET120      0.0596
    130  SD        11.5660   61.7130   40.9130 S.3   120  MET120     -0.1393
    131  CE         9.8510   61.7800   40.4310 C.3   120  MET120      0.0692
    132  N          9.4560   56.7530   39.4230 N.am  121  PHE121     -0.1976
    133  CA         8.2870   56.0320   38.9560 C.3   121  PHE121      0.1639
    134  C          8.3870   54.5340   39.0820 C.2   121  PHE121      0.2290
    135  O          7.3820   53.9100   39.4200 O.2   121  PHE121     -0.2864
    136  CB         7.9120   56.4760   37.5380 C.3   121  PHE121      0.0560
    137  CG         7.3290   57.8500   37.5250 C.ar  121  PHE121     -0.0200
    138  CD1        5.9630   58.0390   37.7530 C.ar  121  PHE121     -0.0042
    139  CD2        8.1350   58.9490   37.4410 C.ar  121  PHE121     -0.0042
    140  CE1        5.4140   59.2940   37.7740 C.ar  121  PHE121     -0.0003
    141  CE2        7.5850   60.2200   37.4850 C.ar  121  PHE121     -0.0003
    142  CZ         6.2310   60.3790   37.6500 C.ar  121  PHE121     -0.0000
    143  N          7.3660   54.1270   42.6350 N.3   124  TYR124     -0.1241
    144  CA         5.9330   54.2210   42.8350 C.3   124  TYR124      0.1605
    145  C          5.1970   52.8810   42.4640 C.2   124  TYR124      0.2264
    146  O          4.3090   52.4070   43.1900 O.2   124  TYR124     -0.2867
    147  CB         5.3500   55.3850   42.0630 C.3   124  TYR124      0.0534
    148  CG         5.9860   56.7400   42.3690 C.ar  124  TYR124     -0.0201
    149  CD1        6.5840   56.9940   43.6090 C.ar  124  TYR124     -0.0009
    150  CD2        5.9730   57.7590   41.4330 C.ar  124  TYR124     -0.0009
    151  CE1        7.1460   58.2190   43.8870 C.ar  124  TYR124      0.0417
    152  CE2        6.5860   58.9910   41.6820 C.ar  124  TYR124      0.0417
    153  CZ         7.1120   59.2480   42.9460 C.ar  124  TYR124      0.1957
    154  OH         7.7170   60.4470   43.2320 O.3   124  TYR124     -0.2866
    155  N         18.1210   61.8300   45.4630 N.3   202  HIS202     -0.1241
    156  CA        17.6410   63.2100   45.5730 C.3   202  HIS202      0.1621
    157  C         18.7840   64.2080   45.5530 C.2   202  HIS202      0.2264
    158  O         18.6590   65.2220   44.9050 O.2   202  HIS202     -0.2867
    159  CB        16.7820   63.3490   46.8210 C.3   202  HIS202      0.0745
    160  CG        16.2030   64.7030   47.0330 C.ar  202  HIS202      0.0817
    161  ND1       16.8790   65.7000   47.6980 N.ar  202  HIS202     -0.2268
    162  CD2       15.0020   65.2150   46.7010 C.ar  202  HIS202      0.1154
    163  CE1       16.0950   66.7540   47.8150 C.ar  202  HIS202      0.1986
    164  NE2       14.9630   66.5020   47.1840 N.ar  202  HIS202     -0.2212
    165  N         19.8810   64.6640   42.0470 N.3   205  MET205     -0.1230
    166  CA        18.8790   65.5130   41.3680 C.3   205  MET205      0.1702
    167  C         19.1090   67.0010   41.5840 C.2   205  MET205      0.2592
    168  O         19.1460   67.7820   40.6200 O.2   205  MET205     -0.2718
    169  CB        17.3900   65.1600   41.7230 C.3   205  MET205      0.0401
    170  CG        17.0040   63.6820   41.4450 C.3   205  MET205      0.0596
    171  SD        15.4140   63.2600   42.1650 S.3   205  MET205     -0.1393
    172  CE        14.2980   64.2470   41.1810 C.3   205  MET205      0.0692
    173  N         19.3070   67.3870   42.8500 N.am  206  LEU206     -0.1980
    174  CA        19.5420   68.7600   43.1990 C.3   206  LEU206      0.1596
    175  C         20.8030   69.3040   42.5420 C.2   206  LEU206      0.2287
    176  O         20.8130   70.4120   42.0230 O.2   206  LEU206     -0.2864
    177  CB        19.6670   68.9200   44.7100 C.3   206  LEU206      0.0297
    178  CG        18.4360   69.2990   45.5050 C.3   206  LEU206      0.0022
    179  CD1       17.1270   68.7210   45.0780 C.3   206  LEU206      0.0001
    180  CD2       18.6370   69.1710   47.0260 C.3   206  LEU206      0.0001
    181  N         20.0560   69.8810   38.7970 N.3   209  TRP209     -0.1241
    182  CA        19.3290   71.0910   38.6880 C.3   209  TRP209      0.1605
    183  C         20.1760   72.3640   38.8130 C.2   209  TRP209      0.2264
    184  O         19.9710   73.3790   38.0660 O.2   209  TRP209     -0.2867
    185  CB        18.1580   71.1570   39.6630 C.3   209  TRP209      0.0550
    186  CG        16.8470   70.6750   39.0550 C.ar  209  TRP209      0.0003
    187  CD1       16.2370   71.1610   37.9190 C.ar  209  TRP209      0.0946
    188  CD2       15.9450   69.6840   39.6040 C.ar  209  TRP209      0.0152
    189  NE1       15.0540   70.4720   37.6930 N.ar  209  TRP209     -0.2442
    190  CE2       14.8580   69.5630   38.7070 C.ar  209  TRP209      0.0810
    191  CE3       15.9680   68.8710   40.7620 C.ar  209  TRP209      0.0012
    192  CZ2       13.7840   68.6770   38.9450 C.ar  209  TRP209      0.0191
    193  CZ3       14.9410   68.0300   41.0150 C.ar  209  TRP209      0.0001
    194  CH2       13.8270   67.9080   40.0830 C.ar  209  TRP209      0.0015
    195  N         16.3120   77.0980   43.9630 N.3   216  PHE216     -0.1241
    196  CA        15.3000   76.5950   44.8620 C.3   216  PHE216      0.1605
    197  C         14.8160   77.6700   45.7910 C.2   216  PHE216      0.2264
    198  O         15.6020   78.5300   46.2410 O.2   216  PHE216     -0.2867
    199  CB        15.8360   75.3910   45.6320 C.3   216  PHE216      0.0534
    200  CG        16.0970   74.2320   44.7530 C.ar  216  PHE216     -0.0203
    201  CD1       17.3230   74.0940   44.1240 C.ar  216  PHE216     -0.0042
    202  CD2       15.0750   73.3080   44.4890 C.ar  216  PHE216     -0.0042
    203  CE1       17.5420   73.0390   43.2430 C.ar  216  PHE216     -0.0003
    204  CE2       15.2740   72.3060   43.6120 C.ar  216  PHE216     -0.0003
    205  CZ        16.4970   72.1700   42.9670 C.ar  216  PHE216     -0.0000
    206  N         12.5700   75.0130   50.4540 N.3   220  LEU220     -0.1245
    207  CA        13.3720   73.8890   49.9180 C.3   220  LEU220      0.1561
    208  C         14.8400   74.0270   50.2110 C.2   220  LEU220      0.2260
    209  O         15.5350   73.0640   50.5470 O.2   220  LEU220     -0.2867
    210  CB        13.0800   73.7600   48.3880 C.3   220  LEU220      0.0270
    211  CG        11.5990   73.5930   48.0650 C.3   220  LEU220      0.0019
    212  CD1       11.3240   73.2970   46.5830 C.3   220  LEU220      0.0001
    213  CD2       10.8890   72.5030   48.8230 C.3   220  LEU220      0.0001
    214  N         16.4290   70.9980   52.6230 N.3   224  TRP224     -0.1241
    215  CA        17.3220   70.0580   51.9520 C.3   224  TRP224      0.1605
    216  C         18.7600   70.5620   52.0190 C.2   224  TRP224      0.2264
    217  O         19.5850   70.0350   51.3530 O.2   224  TRP224     -0.2867
    218  CB        16.9760   69.9840   50.4710 C.3   224  TRP224      0.0550
    219  CG        15.6480   69.3400   50.2270 C.ar  224  TRP224      0.0003
    220  CD1       14.9980   68.4750   51.0250 C.ar  224  TRP224      0.0946
    221  CD2       14.8070   69.5670   49.1120 C.ar  224  TRP224      0.0152
    222  NE1       13.7990   68.0950   50.4640 N.ar  224  TRP224     -0.2442
    223  CE2       13.6600   68.7330   49.2730 C.ar  224  TRP224      0.0810
    224  CE3       14.9520   70.3120   47.9250 C.ar  224  TRP224      0.0012
    225  CZ2       12.6110   68.6960   48.3600 C.ar  224  TRP224      0.0191
    226  CZ3       13.8970   70.2440   46.9710 C.ar  224  TRP224      0.0001
    227  CH2       12.7620   69.4410   47.1860 C.ar  224  TRP224      0.0015
@<TRIPOS>BOND
     1   108   109    1
     2   104   105    2
     3   104   103    1
     4   116   117    1
     5   118   119    2
     6   118   117    1
     7   110   111    2
     8   110   109    1
     9   102   103    1
    10   109   112    1
    11   103   106    1
    12   117   120    1
    13     9    10    1
    14   106   107    1
    15   120   122    1
    16   120   121    1
    17   112   113    1
    18    13    10    1
    19    13    14    1
    20   139   141   ar
    21   139   137   ar
    22    10    11    1
    23   141   142   ar
    24   137   136    1
    25   137   138   ar
    26   136   133    1
    27   142   140   ar
    28   189   187   ar
    29   189   190   ar
    30   138   140   ar
    31   187   186   ar
    32   121   123    1
    33   184   183    2
    34   101    99   ar
    35   101   100   ar
    36    99    97   ar
    37   113   114    1
    38   113   115    1
    39    14    16   ar
    40    14    15   ar
    41    11    12    2
    42   182   181    1
    43   182   183    1
    44   182   185    1
    45   190   192   ar
    46   190   188   ar
    47    16    18   ar
    48    15    17   ar
    49   192   194   ar
    50   133   134    1
    51   133   132    1
    52   186   188   ar
    53   186   185    1
    54   134   135    2
    55   100    98   ar
    56   132   126   am
    57    97    96   ar
    58   188   191   ar
    59    18    19   ar
    60    27    25    1
    61    20    21    1
    62    17    19   ar
    63    24    25    1
    64    24    21    1
    65   194   193   ar
    66   124   125    1
    67   131   130    1
    68    98    96   ar
    69    96    95    1
    70   168   167    2
    71    25    26    1
    72   126   125    1
    73   126   127    2
    74   191   193   ar
    75    21    22    1
    76   130   129    1
    77   128   125    1
    78   128   129    1
    79   172   171    1
    80    94    93    2
    81    41    42    1
    82    41    40    1
    83   166   167    1
    84   166   169    1
    85   166   165    1
    86   150   152   ar
    87   150   148   ar
    88   170   169    1
    89   170   171    1
    90   167   173   am
    91   152   153   ar
    92    95    92    1
    93   176   175    2
    94   147   148    1
    95   147   144    1
    96    28    22   am
    97    28    29    1
    98    22    23    2
    99    93    92    1
   100    33    32    1
   101    92    91    1
   102   148   149   ar
   103   145   144    1
   104   145   146    2
   105   175   174    1
   106   143   144    1
   107    40    39    1
   108    32    29    1
   109    32    34    1
   110   173   174    1
   111   153   154    1
   112   153   151   ar
   113   205   203   ar
   114   205   204   ar
   115   174   177    1
   116   203   201   ar
   117    29    30    1
   118    86    85    2
   119     8     7    1
   120    91    85   am
   121   149   151   ar
   122   204   202   ar
   123    39    36    1
   124   195   196    1
   125    85    84    1
   126   201   200   ar
   127    89    87    1
   128    30    31    2
   129    35    36    1
   130   202   200   ar
   131   177   178    1
   132    74    76   ar
   133    74    72   ar
   134   200   199    1
   135    80    79    2
   136   196   199    1
   137   196   197    1
   138    36    37    1
   139   158   157    2
   140     6     7    1
   141     6     5    1
   142   179   178    1
   143    76    75   ar
   144    87    84    1
   145    87    88    1
   146    84    83    1
   147    81    82    1
   148    81    78    1
   149   155   156    1
   150   178   180    1
   151    72    71   ar
   152   157   156    1
   153   156   159    1
   154    79    78    1
   155   197   198    2
   156    43    37   am
   157    43    44    1
   158    37    38    2
   159    78    77    1
   160    75    73   ar
   161    47    44    1
   162     5     2    1
   163     4     3    2
   164   212   211    1
   165    88    90    1
   166   162   160   ar
   167   162   164   ar
   168    71    73   ar
   169    71    70    1
   170   159   160    1
   171    44    45    1
   172    56    54   ar
   173    56    57   ar
   174   226   227   ar
   175   226   224   ar
   176   160   161   ar
   177     3     2    1
   178    65    64    1
   179   164   163   ar
   180   227   225   ar
   181     2     1    1
   182    54    53   ar
   183    69    68    2
   184    70    67    1
   185   161   163   ar
   186    64    63    1
   187    57    55   ar
   188   224   221   ar
   189    67    68    1
   190    67    66    1
   191   211   210    1
   192   211   213    1
   193    45    46    2
   194   225   223   ar
   195   210   207    1
   196    63    62    1
   197    61    60    2
   198    53    55   ar
   199    53    52    1
   200    66    60   am
   201   221   223   ar
   202   221   219   ar
   203    60    59    1
   204   223   222   ar
   205    62    59    1
   206    52    49    1
   207   207   208    1
   208   207   206    1
   209    48    49    1
   210   208   209    2
   211   219   218    1
   212   219   220   ar
   213    59    58    1
   214   222   220   ar
   215   218   215    1
   216    49    50    1
   217   217   216    2
   218   215   216    1
   219   215   214    1
   220    50    51    2
