@<TRIPOS>MOLECULE
tmp/5y1kA00.pdb
 173 164 0 0 0
SMALL
GASTEIGER

@<TRIPOS>ATOM
      1  N         15.0010   21.5570   17.1140 N.3   122  GLN122     -0.1245
      2  CA        14.4390   20.3160   16.6200 C.3   122  GLN122      0.1566
      3  C         13.0840   20.1000   17.2600 C.2   122  GLN122      0.2260
      4  O         13.0010   19.8290   18.4760 O.2   122  GLN122     -0.2867
      5  CB        15.3560   19.1080   16.8710 C.3   122  GLN122      0.0367
      6  CG        14.7470   17.7870   16.5570 C.3   122  GLN122      0.0905
      7  CD        14.3430   17.6780   15.1390 C.2   122  GLN122      0.2608
      8  OE1       15.0490   18.1880   14.2590 O.2   122  GLN122     -0.2717
      9  NE2       13.2600   16.9760   14.8920 N.am  122  GLN122     -0.0878
     10  N         10.2680   18.1040   15.6000 N.3   124  GLU124     -0.1231
     11  CA         9.6330   16.7810   15.4620 C.3   124  GLU124      0.1699
     12  C         10.1800   15.7900   16.5340 C.2   124  GLU124      0.2592
     13  O         11.3870   15.7360   16.7000 O.2   124  GLU124     -0.2718
     14  CB         9.8370   16.2180   14.0570 C.3   124  GLU124      0.0402
     15  CG         9.0190   14.9620   13.8410 C.3   124  GLU124      0.1161
     16  CD         9.0530   14.3790   12.4700 C.2   124  GLU124      0.3649
     17  OE1        9.6490   15.0130   11.5900 O.co2 124  GLU124     -0.2457
     18  OE2        8.4100   13.2980   12.2680 O.co2 124  GLU124     -0.2457
     19  N          9.3510   15.0290   17.2500 N.am  125  ALA125     -0.1980
     20  CA         7.8660   15.0510   17.1860 C.3   125  ALA125      0.1597
     21  C          7.1910   16.0180   18.1960 C.2   125  ALA125      0.2287
     22  O          6.1920   16.6330   17.9290 O.2   125  ALA125     -0.2864
     23  CB         7.3370   13.6600   17.4450 C.3   125  ALA125      0.0319
     24  N         23.3400   16.3710   16.8020 N.3   262  PHE262     -0.1241
     25  CA        22.0000   16.0810   16.2310 C.3   262  PHE262      0.1605
     26  C         21.6580   14.6520   16.5230 C.2   262  PHE262      0.2264
     27  O         22.4830   13.7700   16.3440 O.2   262  PHE262     -0.2867
     28  CB        21.9700   16.3800   14.6980 C.3   262  PHE262      0.0534
     29  CG        20.5650   16.6020   14.1330 C.ar  262  PHE262     -0.0203
     30  CD1       19.8840   17.7920   14.3460 C.ar  262  PHE262     -0.0042
     31  CD2       19.9310   15.6190   13.4040 C.ar  262  PHE262     -0.0042
     32  CE1       18.5940   17.9750   13.8550 C.ar  262  PHE262     -0.0003
     33  CE2       18.6610   15.7930   12.8750 C.ar  262  PHE262     -0.0003
     34  CZ        17.9900   16.9740   13.0920 C.ar  262  PHE262     -0.0000
     35  N         19.6080   12.3740   15.0670 N.3   264  VAL264     -0.1231
     36  CA        19.4550   11.4300   13.9900 C.3   264  VAL264      0.1692
     37  C         20.1790   11.9970   12.7490 C.2   264  VAL264      0.2593
     38  O         21.2470   12.6000   12.8650 O.2   264  VAL264     -0.2718
     39  CB        17.9440   11.0840   13.8140 C.3   264  VAL264      0.0266
     40  CG1       17.4460   10.2710   15.0230 C.3   264  VAL264      0.0020
     41  CG2       17.1000   12.3180   13.6090 C.3   264  VAL264      0.0020
     42  N         19.6530   11.7720   11.5820 N.am  265  GLY265     -0.1942
     43  CA        20.3060   12.2250   10.3170 C.3   265  GLY265      0.2014
     44  C         20.0200   13.6440    9.8800 C.2   265  GLY265      0.2639
     45  O         20.9240   14.4190    9.7650 O.2   265  GLY265     -0.2714
     46  N         18.7380   13.9810    9.7380 N.am  266  ALA266     -0.1963
     47  CA        18.2960   15.3140    9.3400 C.3   266  ALA266      0.1728
     48  C         16.7910   15.4830    9.5140 C.2   266  ALA266      0.2616
     49  O         16.0850   14.5300    9.8680 O.2   266  ALA266     -0.2715
     50  CB        18.6550   15.5760    7.8580 C.3   266  ALA266      0.0334
     51  N         16.3080   16.6920    9.2670 N.am  267  MET267     -0.1963
     52  CA        14.9020   17.0980    9.5080 C.3   267  MET267      0.1736
     53  C         14.4270   18.0470    8.4270 C.2   267  MET267      0.2616
     54  O         15.1560   18.9660    8.0160 O.2   267  MET267     -0.2715
     55  CB        14.7880   17.7240   10.9040 C.3   267  MET267      0.0427
     56  CG        13.4270   18.2960   11.2550 C.3   267  MET267      0.0599
     57  SD        12.3220   16.9300   11.3670 S.3   267  MET267     -0.1393
     58  CE        10.8070   17.7450   10.8270 C.3   267  MET267      0.0692
     59  N         13.2130   17.8470    7.9990 N.am  268  GLU268     -0.1977
     60  CA        12.6130   18.4880    6.8040 C.3   268  GLU268      0.1602
     61  C         11.8700   19.8210    7.0790 C.2   268  GLU268      0.2287
     62  O         10.9130   20.1440    6.3670 O.2   268  GLU268     -0.2864
     63  CB        11.6170   17.5140    6.1450 C.3   268  GLU268      0.0415
     64  CG        10.2950   17.2390    6.9800 C.3   268  GLU268      0.1163
     65  CD        10.3100   15.9930    7.8320 C.2   268  GLU268      0.3649
     66  OE1       11.4110   15.5080    8.2510 O.co2 268  GLU268     -0.2457
     67  OE2        9.2040   15.4460    8.0630 O.co2 268  GLU268     -0.2457
     68  N         25.6350    8.5660    1.8040 N.3   294  ARG294     -0.1245
     69  CA        24.8150    8.9690    2.9270 C.3   294  ARG294      0.1563
     70  C         24.2420   10.3790    2.6680 C.2   294  ARG294      0.2260
     71  O         23.0620   10.6230    2.8600 O.2   294  ARG294     -0.2867
     72  CB        25.6630    8.9150    4.1860 C.3   294  ARG294      0.0307
     73  CG        25.0800    9.5250    5.4350 C.3   294  ARG294      0.0489
     74  CD        23.9160    8.7010    5.9150 C.3   294  ARG294      0.2205
     75  NE        23.3470    9.2830    7.1100 N.pl3 294  ARG294     -0.0865
     76  CZ        22.2230    8.8950    7.6610 C.cat 294  ARG294      0.5346
     77  NH1       21.7990    9.5410    8.6980 N.pl3 294  ARG294      0.1354
     78  NH2       21.5080    7.8850    7.1360 N.pl3 294  ARG294      0.1354
     79  N         20.3030   11.4000    2.3410 N.3   298  VAL298     -0.1245
     80  CA        19.6410   12.1930    3.4080 C.3   298  VAL298      0.1561
     81  C         19.1490   13.5380    2.8310 C.2   298  VAL298      0.2260
     82  O         18.0220   13.9980    3.1280 O.2   298  VAL298     -0.2867
     83  CB        20.5760   12.3930    4.6090 C.3   298  VAL298      0.0252
     84  CG1       19.9380   13.3310    5.6120 C.3   298  VAL298      0.0019
     85  CG2       20.9350   11.0580    5.2080 C.3   298  VAL298      0.0019
     86  N         16.1380   12.6110    0.9000 N.3   301  HIS301     -0.1226
     87  CA        15.0390   12.3050    1.8390 C.3   301  HIS301      0.1752
     88  C         14.3830   13.5890    2.3370 C.2   301  HIS301      0.2595
     89  O         13.1700   13.7330    2.2830 O.2   301  HIS301     -0.2718
     90  CB        15.5960   11.4310    2.9390 C.3   301  HIS301      0.0759
     91  CG        14.5820   11.0240    3.9710 C.ar  301  HIS301      0.0818
     92  ND1       14.0140    9.7570    4.0010 N.ar  301  HIS301     -0.2268
     93  CD2       14.0850   11.6890    5.0490 C.ar  301  HIS301      0.1154
     94  CE1       13.2180    9.6800    5.0580 C.ar  301  HIS301      0.1986
     95  NE2       13.2000   10.8560    5.6620 N.ar  301  HIS301     -0.2212
     96  N         15.1540   14.5100    2.8940 N.am  302  GLU302     -0.1979
     97  CA        14.5240   15.7180    3.4530 C.3   302  GLU302      0.1602
     98  C         13.8400   16.5270    2.3350 C.2   302  GLU302      0.2287
     99  O         12.7740   17.1050    2.5560 O.2   302  GLU302     -0.2864
    100  CB        15.5350   16.6120    4.2420 C.3   302  GLU302      0.0415
    101  CG        16.2990   15.8620    5.3370 C.3   302  GLU302      0.1163
    102  CD        15.4970   14.8870    6.1420 C.2   302  GLU302      0.3649
    103  OE1       14.2700   15.1130    6.4210 O.co2 302  GLU302     -0.2457
    104  OE2       16.0990   13.8740    6.5900 O.co2 302  GLU302     -0.2457
    105  N         10.4080   15.0300    1.4320 N.3   305  HIS305     -0.1241
    106  CA         9.4040   15.3730    2.4180 C.3   305  HIS305      0.1621
    107  C          8.6210   16.6630    2.1070 C.2   305  HIS305      0.2264
    108  O          7.5420   16.9060    2.6900 O.2   305  HIS305     -0.2867
    109  CB        10.0500   15.5620    3.7810 C.3   305  HIS305      0.0745
    110  CG        10.1400   14.3490    4.6170 C.ar  305  HIS305      0.0817
    111  ND1        9.0710   13.5060    4.8480 N.ar  305  HIS305     -0.2268
    112  CD2       11.1440   13.9080    5.4180 C.ar  305  HIS305      0.1154
    113  CE1        9.4340   12.5900    5.7260 C.ar  305  HIS305      0.1986
    114  NE2       10.6860   12.8030    6.0770 N.ar  305  HIS305     -0.2212
    115  N          7.0670    8.8560    6.4380 N.3   324  GLU324     -0.1245
    116  CA         8.4090    8.2540    6.4380 C.3   324  GLU324      0.1567
    117  C          8.5820    7.1140    5.5180 C.2   324  GLU324      0.2260
    118  O          9.5650    7.0620    4.8030 O.2   324  GLU324     -0.2867
    119  CB         8.8730    7.9100    7.8920 C.3   324  GLU324      0.0388
    120  CG         8.9040    9.0970    8.8030 C.3   324  GLU324      0.1160
    121  CD         9.8450   10.1990    8.3840 C.2   324  GLU324      0.3649
    122  OE1       10.7230   10.0040    7.5050 O.co2 324  GLU324     -0.2457
    123  OE2        9.6510   11.3050    8.9070 O.co2 324  GLU324     -0.2457
    124  N          8.3180    9.0710   20.1050 N.3   377  GLU377     -0.1245
    125  CA         9.6930    8.9620   19.7170 C.3   377  GLU377      0.1567
    126  C         10.2080    7.5110   19.5220 C.2   377  GLU377      0.2260
    127  O         11.1120    7.2760   18.7080 O.2   377  GLU377     -0.2867
    128  CB        10.6250    9.6830   20.7030 C.3   377  GLU377      0.0388
    129  CG        10.4920   11.1990   20.7570 C.3   377  GLU377      0.1160
    130  CD         9.3220   11.6860   21.5960 C.2   377  GLU377      0.3649
    131  OE1        8.9780   12.8730   21.4620 O.co2 377  GLU377     -0.2457
    132  OE2        8.7060   10.8760   22.3390 O.co2 377  GLU377     -0.2457
    133  N          9.8890    5.8080   15.8430 N.3   380  TYR380     -0.1241
    134  CA        10.6990    6.1680   14.6640 C.3   380  TYR380      0.1605
    135  C         11.6320    4.9820   14.4220 C.2   380  TYR380      0.2264
    136  O         12.8160    5.0210   14.7410 O.2   380  TYR380     -0.2867
    137  CB        11.4560    7.4700   14.8830 C.3   380  TYR380      0.0534
    138  CG        10.5350    8.6620   14.7680 C.ar  380  TYR380     -0.0201
    139  CD1        9.6770    9.0190   15.8140 C.ar  380  TYR380     -0.0009
    140  CD2       10.5370    9.4420   13.6900 C.ar  380  TYR380     -0.0009
    141  CE1        8.7920   10.0800   15.6890 C.ar  380  TYR380      0.0417
    142  CE2        9.6910   10.5450   13.5650 C.ar  380  TYR380      0.0417
    143  CZ         8.8360   10.8850   14.5800 C.ar  380  TYR380      0.1957
    144  OH         7.9520   11.9180   14.4230 O.3   380  TYR380     -0.2866
    145  N          9.9550    3.0080    8.9980 N.3   385  TYR385     -0.1241
    146  CA        10.6950    3.5590    7.8990 C.3   385  TYR385      0.1605
    147  C         10.9070    2.5700    6.7640 C.2   385  TYR385      0.2264
    148  O         10.5680    2.8710    5.5790 O.2   385  TYR385     -0.2867
    149  CB        12.0740    4.0630    8.3760 C.3   385  TYR385      0.0534
    150  CG        12.0250    5.4640    8.9990 C.ar  385  TYR385     -0.0201
    151  CD1       11.3320    5.6970   10.1720 C.ar  385  TYR385     -0.0009
    152  CD2       12.6100    6.5150    8.3990 C.ar  385  TYR385     -0.0009
    153  CE1       11.2830    6.9460   10.7350 C.ar  385  TYR385      0.0417
    154  CE2       12.5510    7.7810    8.9310 C.ar  385  TYR385      0.0417
    155  CZ        11.9280    7.9770   10.1540 C.ar  385  TYR385      0.1957
    156  OH        11.8710    9.2500   10.6050 O.3   385  TYR385     -0.2866
    157  N         16.7690   10.0230   23.8360 N.3   839  MET839     -0.1245
    158  CA        16.6250    9.4420   22.5120 C.3   839  MET839      0.1570
    159  C         17.8400    8.6540   22.1100 C.2   839  MET839      0.2261
    160  O         17.7290    7.5330   21.5800 O.2   839  MET839     -0.2867
    161  CB        16.3000   10.5430   21.5130 C.3   839  MET839      0.0387
    162  CG        14.8030   10.8900   21.6100 C.3   839  MET839      0.0595
    163  SD        14.3700   12.2900   20.5320 S.3   839  MET839     -0.1393
    164  CE        15.2950   11.8120   19.0290 C.3   839  MET839      0.0692
    165  N         18.6260    4.6050   21.3740 N.3   843  GLN843     -0.1245
    166  CA        19.4410    4.1170   20.2350 C.3   843  GLN843      0.1566
    167  C         20.5270    3.1330   20.6700 C.2   843  GLN843      0.2260
    168  O         20.7520    2.1270   19.9930 O.2   843  GLN843     -0.2867
    169  CB        20.0810    5.2500   19.4810 C.3   843  GLN843      0.0367
    170  CG        19.1080    6.0670   18.6700 C.3   843  GLN843      0.0905
    171  CD        19.7290    7.3010   18.0800 C.2   843  GLN843      0.2608
    172  OE1       20.9120    7.4480   18.0350 O.2   843  GLN843     -0.2717
    173  NE2       18.9040    8.2270   17.7060 N.am  843  GLN843     -0.0878
@<TRIPOS>BOND
     1    86    87    1
     2   105   106    1
     3    68    69    1
     4    87    88    1
     5    87    90    1
     6   107   106    1
     7   107   108    2
     8    89    88    2
     9    98    99    2
    10    98    97    1
    11    88    96   am
    12    79    80    1
    13   106   109    1
    14    70    71    2
    15    70    69    1
    16    81    82    2
    17    81    80    1
    18    96    97    1
    19    69    72    1
    20    90    91    1
    21    80    83    1
    22    97   100    1
    23   109   110    1
    24    91    92   ar
    25    91    93   ar
    26    92    94   ar
    27    72    73    1
    28   100   101    1
    29    83    85    1
    30    83    84    1
    31   110   111   ar
    32   110   112   ar
    33   118   117    2
    34   111   113   ar
    35    93    95   ar
    36    94    95   ar
    37   101   102    1
    38   112   114   ar
    39    73    74    1
    40   117   116    1
    41   148   147    2
    42   113   114   ar
    43    74    75    1
    44   102   103   ar
    45   102   104   ar
    46    63    60    1
    47    63    64    1
    48    62    61    2
    49   116   115    1
    50   116   119    1
    51   147   146    1
    52    60    61    1
    53    60    59    1
    54    64    65    1
    55    75    76    2
    56    78    76    1
    57   122   121   ar
    58    76    77    1
    59    65    67   ar
    60    65    66   ar
    61    50    47    1
    62   119   120    1
    63   146   149    1
    64   146   145    1
    65    59    53   am
    66    54    53    2
    67   149   150    1
    68   121   120    1
    69   121   123   ar
    70   152   154   ar
    71   152   150   ar
    72    53    52    1
    73   154   155   ar
    74   150   151   ar
    75    51    52    1
    76    51    48   am
    77    47    48    1
    78    47    46    1
    79    52    55    1
    80    48    49    2
    81    46    44   am
    82    45    44    2
    83    44    43    1
    84   155   156    1
    85   155   153   ar
    86   151   153   ar
    87    43    42    1
    88    58    57    1
    89    55    56    1
    90    56    57    1
    91    42    37   am
    92    17    16   ar
    93    18    16   ar
    94    16    15    1
    95    37    38    2
    96    37    36    1
    97    33    34   ar
    98    33    31   ar
    99    34    32   ar
   100    31    29   ar
   101   142   140   ar
   102   142   143   ar
   103    41    39    1
   104   140   138   ar
   105    39    36    1
   106    39    40    1
   107    15    14    1
   108    32    30   ar
   109    36    35    1
   110    14    11    1
   111    29    30   ar
   112    29    28    1
   113     8     7    2
   114   135   134    1
   115   135   136    2
   116   144   143    1
   117   143   141   ar
   118   134   137    1
   119   134   133    1
   120    28    25    1
   121   138   137    1
   122   138   139   ar
   123     9     7   am
   124     7     6    1
   125    11    10    1
   126    11    12    1
   127   141   139   ar
   128    25    26    1
   129    25    24    1
   130    27    26    2
   131    12    13    2
   132    12    19   am
   133     6     5    1
   134     2     5    1
   135     2     1    1
   136     2     3    1
   137    20    19    1
   138    20    23    1
   139    20    21    1
   140     3     4    2
   141   173   171   am
   142    22    21    2
   143   172   171    2
   144   171   170    1
   145   170   169    1
   146   127   126    2
   147   164   163    1
   148   169   166    1
   149   126   125    1
   150   125   124    1
   151   125   128    1
   152   168   167    2
   153   166   167    1
   154   166   165    1
   155   163   162    1
   156   128   129    1
   157   129   130    1
   158   131   130   ar
   159   161   162    1
   160   161   158    1
   161   160   159    2
   162   130   132   ar
   163   159   158    1
   164   158   157    1
