@<TRIPOS>MOLECULE
tmp/5y1rA00.pdb
 157 152 0 0 0
SMALL
GASTEIGER

@<TRIPOS>ATOM
      1  N         14.9620   21.5290   17.1660 N.3   122  GLN122     -0.1245
      2  CA        14.4360   20.2850   16.6410 C.3   122  GLN122      0.1566
      3  C         13.0970   20.1330   17.2730 C.2   122  GLN122      0.2260
      4  O         12.9740   19.8720   18.4720 O.2   122  GLN122     -0.2867
      5  CB        15.3300   19.0760   16.9270 C.3   122  GLN122      0.0367
      6  CG        14.6960   17.7780   16.5370 C.3   122  GLN122      0.0905
      7  CD        14.3600   17.6840   15.1090 C.2   122  GLN122      0.2608
      8  OE1       15.0930   18.1620   14.2560 O.2   122  GLN122     -0.2717
      9  NE2       13.2730   16.9890   14.8380 N.am  122  GLN122     -0.0878
     10  N         10.2470   18.0670   15.6710 N.3   124  GLU124     -0.1245
     11  CA         9.5950   16.7690   15.5150 C.3   124  GLU124      0.1567
     12  C         10.1450   15.7900   16.5620 C.2   124  GLU124      0.2260
     13  O         11.3540   15.7310   16.7570 O.2   124  GLU124     -0.2867
     14  CB         9.7790   16.2580   14.1270 C.3   124  GLU124      0.0388
     15  CG         8.9870   14.9760   13.9220 C.3   124  GLU124      0.1160
     16  CD         9.0140   14.4050   12.5430 C.2   124  GLU124      0.3649
     17  OE1        9.6530   14.9990   11.6650 O.co2 124  GLU124     -0.2457
     18  OE2        8.3700   13.3300   12.3190 O.co2 124  GLU124     -0.2457
     19  N         23.3090   16.4090   16.7820 N.3   262  PHE262     -0.1241
     20  CA        21.9930   16.1070   16.2170 C.3   262  PHE262      0.1605
     21  C         21.6570   14.6830   16.5130 C.2   262  PHE262      0.2264
     22  O         22.5130   13.7890   16.3800 O.2   262  PHE262     -0.2867
     23  CB        21.9430   16.4010   14.7050 C.3   262  PHE262      0.0534
     24  CG        20.5890   16.6250   14.1600 C.ar  262  PHE262     -0.0203
     25  CD1       19.9250   17.8130   14.3490 C.ar  262  PHE262     -0.0042
     26  CD2       19.9680   15.6110   13.4460 C.ar  262  PHE262     -0.0042
     27  CE1       18.6230   17.9860   13.7970 C.ar  262  PHE262     -0.0003
     28  CE2       18.7170   15.7610   12.9090 C.ar  262  PHE262     -0.0003
     29  CZ        18.0500   16.9540   13.0790 C.ar  262  PHE262     -0.0000
     30  N         19.6090   12.4140   15.1450 N.3   264  VAL264     -0.1231
     31  CA        19.4510   11.4460   14.1000 C.3   264  VAL264      0.1692
     32  C         20.1110   12.0230   12.8080 C.2   264  VAL264      0.2593
     33  O         21.2420   12.5710   12.9930 O.2   264  VAL264     -0.2718
     34  CB        18.0080   10.9940   13.9630 C.3   264  VAL264      0.0266
     35  CG1       17.6340   10.1050   15.1490 C.3   264  VAL264      0.0020
     36  CG2       17.1220   12.1640   13.7610 C.3   264  VAL264      0.0020
     37  N         19.5570   11.8760   11.6140 N.am  265  GLY265     -0.1942
     38  CA        20.2230   12.2330   10.3720 C.3   265  GLY265      0.2014
     39  C         19.9590   13.6560    9.9090 C.2   265  GLY265      0.2639
     40  O         20.8600   14.4380    9.7440 O.2   265  GLY265     -0.2714
     41  N         18.6590   14.0240    9.8450 N.am  266  ALA266     -0.1963
     42  CA        18.2460   15.3720    9.4220 C.3   266  ALA266      0.1728
     43  C         16.7540   15.5290    9.5750 C.2   266  ALA266      0.2616
     44  O         16.0690   14.5780    9.9210 O.2   266  ALA266     -0.2715
     45  CB        18.6390   15.6230    7.9560 C.3   266  ALA266      0.0334
     46  N         16.2700   16.7190    9.2970 N.am  267  MET267     -0.1963
     47  CA        14.8970   17.1360    9.5480 C.3   267  MET267      0.1736
     48  C         14.4070   18.0580    8.4850 C.2   267  MET267      0.2616
     49  O         15.0890   18.9840    8.1060 O.2   267  MET267     -0.2715
     50  CB        14.7900   17.8140   10.9300 C.3   267  MET267      0.0427
     51  CG        13.4110   18.2890   11.3200 C.3   267  MET267      0.0599
     52  SD        12.2470   16.9160   11.4180 S.3   267  MET267     -0.1393
     53  CE        10.7580   17.7360   10.8800 C.3   267  MET267      0.0692
     54  N         13.1770   17.8140    8.0590 N.am  268  GLU268     -0.1977
     55  CA        12.5600   18.4660    6.9230 C.3   268  GLU268      0.1602
     56  C         11.8070   19.7850    7.1400 C.2   268  GLU268      0.2287
     57  O         10.8570   20.0980    6.4260 O.2   268  GLU268     -0.2864
     58  CB        11.6110   17.4700    6.2290 C.3   268  GLU268      0.0415
     59  CG        10.3110   17.1650    7.0470 C.3   268  GLU268      0.1163
     60  CD        10.2920   15.9180    7.8820 C.2   268  GLU268      0.3649
     61  OE1       11.4050   15.5160    8.3470 O.co2 268  GLU268     -0.2457
     62  OE2        9.1690   15.3970    8.1440 O.co2 268  GLU268     -0.2457
     63  N         25.5950    8.6550    1.6720 N.3   294  ARG294     -0.1245
     64  CA        24.7740    9.0270    2.8180 C.3   294  ARG294      0.1563
     65  C         24.2050   10.4310    2.6180 C.2   294  ARG294      0.2260
     66  O         22.9830   10.6300    2.7730 O.2   294  ARG294     -0.2867
     67  CB        25.6330    9.0160    4.0770 C.3   294  ARG294      0.0307
     68  CG        24.9750    9.6360    5.2490 C.3   294  ARG294      0.0489
     69  CD        24.2010    8.6200    5.9660 C.3   294  ARG294      0.2205
     70  NE        23.5280    9.2680    7.0950 N.pl3 294  ARG294     -0.0865
     71  CZ        22.3450    8.8730    7.5490 C.cat 294  ARG294      0.5346
     72  NH1       21.8080    9.5400    8.5640 N.pl3 294  ARG294      0.1354
     73  NH2       21.6870    7.7950    6.9860 N.pl3 294  ARG294      0.1354
     74  N         15.9980   12.6070    0.8990 N.3   301  HIS301     -0.1226
     75  CA        14.9310   12.2890    1.8700 C.3   301  HIS301      0.1752
     76  C         14.2870   13.5540    2.3960 C.2   301  HIS301      0.2595
     77  O         13.0350   13.7040    2.3090 O.2   301  HIS301     -0.2718
     78  CB        15.4880   11.4240    2.9570 C.3   301  HIS301      0.0759
     79  CG        14.4840   11.0440    3.9950 C.ar  301  HIS301      0.0818
     80  ND1       13.9620    9.7710    4.0630 N.ar  301  HIS301     -0.2268
     81  CD2       13.9850   11.7170    5.0740 C.ar  301  HIS301      0.1154
     82  CE1       13.1540    9.6990    5.1010 C.ar  301  HIS301      0.1986
     83  NE2       13.1230   10.8680    5.6900 N.ar  301  HIS301     -0.2212
     84  N         15.0670   14.4900    2.9600 N.am  302  GLU302     -0.1979
     85  CA        14.4600   15.7460    3.4760 C.3   302  GLU302      0.1602
     86  C         13.7840   16.5160    2.3840 C.2   302  GLU302      0.2287
     87  O         12.7530   17.1240    2.6430 O.2   302  GLU302     -0.2864
     88  CB        15.4210   16.6260    4.2570 C.3   302  GLU302      0.0415
     89  CG        16.2200   15.9170    5.3450 C.3   302  GLU302      0.1163
     90  CD        15.4770   14.9120    6.2190 C.2   302  GLU302      0.3649
     91  OE1       14.2660   15.1050    6.5010 O.co2 302  GLU302     -0.2457
     92  OE2       16.0640   13.9110    6.6680 O.co2 302  GLU302     -0.2457
     93  N         10.3540   15.0350    1.4890 N.3   305  HIS305     -0.1241
     94  CA         9.3590   15.3550    2.4770 C.3   305  HIS305      0.1621
     95  C          8.6070   16.6610    2.1470 C.2   305  HIS305      0.2264
     96  O          7.4810   16.8870    2.7160 O.2   305  HIS305     -0.2867
     97  CB         9.9260   15.5460    3.8870 C.3   305  HIS305      0.0745
     98  CG        10.0560   14.3110    4.6880 C.ar  305  HIS305      0.0817
     99  ND1        8.9970   13.4550    4.9760 N.ar  305  HIS305     -0.2268
    100  CD2       11.0810   13.9070    5.4510 C.ar  305  HIS305      0.1154
    101  CE1        9.4190   12.5310    5.8160 C.ar  305  HIS305      0.1986
    102  NE2       10.6750   12.8010    6.1400 N.ar  305  HIS305     -0.2212
    103  N          6.9900    8.7910    6.4500 N.3   324  GLU324     -0.1245
    104  CA         8.3820    8.2100    6.5410 C.3   324  GLU324      0.1567
    105  C          8.5600    7.0340    5.5840 C.2   324  GLU324      0.2260
    106  O          9.5330    6.9760    4.8120 O.2   324  GLU324     -0.2867
    107  CB         8.7930    7.8710    7.9600 C.3   324  GLU324      0.0388
    108  CG         8.8490    9.0800    8.8450 C.3   324  GLU324      0.1160
    109  CD         9.7980   10.1890    8.3770 C.2   324  GLU324      0.3649
    110  OE1       10.6960    9.9910    7.4950 O.co2 324  GLU324     -0.2457
    111  OE2        9.6480   11.3090    8.9270 O.co2 324  GLU324     -0.2457
    112  N          9.9050    5.7520   15.8500 N.3   380  TYR380     -0.1227
    113  CA        10.6860    6.0810   14.7010 C.3   380  TYR380      0.1736
    114  C         11.6530    4.9260   14.5090 C.2   380  TYR380      0.2596
    115  O         12.8080    4.9760   14.8490 O.2   380  TYR380     -0.2718
    116  CB        11.4120    7.3970   14.9130 C.3   380  TYR380      0.0548
    117  CG        10.5110    8.6170   14.8210 C.ar  380  TYR380     -0.0200
    118  CD1        9.6030    8.9390   15.7980 C.ar  380  TYR380     -0.0009
    119  CD2       10.5800    9.4550   13.7850 C.ar  380  TYR380     -0.0009
    120  CE1        8.7420    9.9920   15.6970 C.ar  380  TYR380      0.0417
    121  CE2        9.7090   10.5610   13.6560 C.ar  380  TYR380      0.0417
    122  CZ         8.7830   10.8370   14.5830 C.ar  380  TYR380      0.1957
    123  OH         7.9430   11.9150   14.4860 O.3   380  TYR380     -0.2866
    124  N         11.1320    3.8890   13.9030 N.am  381  THR381     -0.1939
    125  CA        11.7830    2.5950   13.8620 C.3   381  THR381      0.2028
    126  C         12.0570    2.1370   12.4390 C.2   381  THR381      0.2642
    127  O         11.4590    2.6390   11.4810 O.2   381  THR381     -0.2714
    128  CB        10.8860    1.5520   14.4890 C.3   381  THR381      0.1808
    129  OG1        9.6250    1.5050   13.7730 O.3   381  THR381     -0.2208
    130  CG2       10.6800    1.8560   15.9430 C.3   381  THR381      0.0379
    131  N         12.9360    1.1770   12.3170 N.am  382  THR382     -0.1950
    132  CA        13.2060    0.5710   10.9970 C.3   382  THR382      0.1897
    133  C         11.9140   -0.1240   10.4560 C.2   382  THR382      0.2313
    134  O         11.6850   -0.1890    9.2550 O.2   382  THR382     -0.2863
    135  CB        14.3530   -0.4130   11.0870 C.3   382  THR382      0.1794
    136  OG1       14.5570   -0.9050    9.7880 O.3   382  THR382     -0.2208
    137  CG2       14.1070   -1.5300   11.9200 C.3   382  THR382      0.0378
    138  N          9.9400    2.9440    9.0290 N.3   385  TYR385     -0.1227
    139  CA        10.6510    3.5210    7.9340 C.3   385  TYR385      0.1736
    140  C         10.8960    2.5280    6.7830 C.2   385  TYR385      0.2595
    141  O         10.5030    2.7920    5.6250 O.2   385  TYR385     -0.2718
    142  CB        12.0510    4.0400    8.4180 C.3   385  TYR385      0.0548
    143  CG        12.0130    5.4460    8.9960 C.ar  385  TYR385     -0.0200
    144  CD1       11.3300    5.7220   10.1710 C.ar  385  TYR385     -0.0009
    145  CD2       12.6170    6.5100    8.3530 C.ar  385  TYR385     -0.0009
    146  CE1       11.3310    6.9860   10.7200 C.ar  385  TYR385      0.0417
    147  CE2       12.5930    7.8010    8.9090 C.ar  385  TYR385      0.0417
    148  CZ        11.9180    8.0300   10.0680 C.ar  385  TYR385      0.1957
    149  OH        11.8570    9.2400   10.6410 O.3   385  TYR385     -0.2866
    150  N         11.5750    1.4170    7.0860 N.am  386  ASP386     -0.1974
    151  CA        12.0880    0.5020    6.0510 C.3   386  ASP386      0.1709
    152  C         11.0570   -0.5100    5.6660 C.2   386  ASP386      0.2293
    153  O         10.8420   -0.7350    4.4640 O.2   386  ASP386     -0.2864
    154  CB        13.3990   -0.1020    6.4740 C.3   386  ASP386      0.1436
    155  CG        14.4040    0.9530    6.7350 C.2   386  ASP386      0.3671
    156  OD1       14.5640    1.9040    5.9100 O.co2 386  ASP386     -0.2456
    157  OD2       14.9280    1.0550    7.8780 O.co2 386  ASP386     -0.2456
@<TRIPOS>BOND
     1    74    75    1
     2    93    94    1
     3    63    64    1
     4    75    76    1
     5    75    78    1
     6    95    94    1
     7    95    96    2
     8    77    76    2
     9    86    87    2
    10    86    85    1
    11    76    84   am
    12    94    97    1
    13    65    66    2
    14    65    64    1
    15    64    67    1
    16    78    79    1
    17    84    85    1
    18    85    88    1
    19    97    98    1
    20    79    80   ar
    21    79    81   ar
    22    80    82   ar
    23    67    68    1
    24    88    89    1
    25   153   152    2
    26    98    99   ar
    27    98   100   ar
    28   106   105    2
    29    99   101   ar
    30    81    83   ar
    31    82    83   ar
    32    68    69    1
    33    89    90    1
    34   100   102   ar
    35   105   104    1
    36   141   140    2
    37   152   151    1
    38   101   102   ar
    39   156   155   ar
    40    69    70    1
    41   151   154    1
    42   151   150    1
    43    90    91   ar
    44    90    92   ar
    45    58    55    1
    46    58    59    1
    47    57    56    2
    48   103   104    1
    49   154   155    1
    50   104   107    1
    51   155   157   ar
    52   140   150   am
    53   140   139    1
    54    55    56    1
    55    55    54    1
    56    73    71    1
    57    59    60    1
    58    70    71    2
    59   110   109   ar
    60    71    72    1
    61    60    62   ar
    62    60    61   ar
    63   139   142    1
    64   139   138    1
    65    45    42    1
    66   107   108    1
    67    54    48   am
    68    49    48    2
    69   145   147   ar
    70   145   143   ar
    71   109   108    1
    72   109   111   ar
    73   142   143    1
    74    48    47    1
    75   147   148   ar
    76   143   144   ar
    77   134   133    2
    78    46    47    1
    79    46    43   am
    80    42    43    1
    81    42    41    1
    82    47    50    1
    83    43    44    2
    84    40    39    2
    85   136   135    1
    86    41    39   am
    87    39    38    1
    88   148   149    1
    89   148   146   ar
    90   144   146   ar
    91    38    37    1
    92   133   132    1
    93    53    52    1
    94    50    51    1
    95   132   135    1
    96   132   131    1
    97   135   137    1
    98    51    52    1
    99   127   126    2
   100    37    32   am
   101    17    16   ar
   102   131   126   am
   103    18    16   ar
   104   126   125    1
   105    16    15    1
   106    32    33    2
   107    32    31    1
   108    28    29   ar
   109    28    26   ar
   110    29    27   ar
   111    26    24   ar
   112   121   119   ar
   113   121   122   ar
   114    36    34    1
   115   129   128    1
   116   119   117   ar
   117    27    25   ar
   118   125   124    1
   119   125   128    1
   120   124   114   am
   121    15    14    1
   122    34    31    1
   123    34    35    1
   124    31    30    1
   125    14    11    1
   126    24    25   ar
   127    24    23    1
   128     8     7    2
   129   123   122    1
   130   128   130    1
   131   114   113    1
   132   114   115    2
   133   122   120   ar
   134   113   116    1
   135   113   112    1
   136    23    20    1
   137   117   116    1
   138   117   118   ar
   139     9     7   am
   140     7     6    1
   141    11    10    1
   142    11    12    1
   143   120   118   ar
   144    20    21    1
   145    20    19    1
   146    22    21    2
   147     6     5    1
   148    12    13    2
   149     2     5    1
   150     2     1    1
   151     2     3    1
   152     3     4    2
