@<TRIPOS>MOLECULE
tmp/5y1sA00.pdb
 185 174 0 0 0
SMALL
GASTEIGER

@<TRIPOS>ATOM
      1  N        -15.0730   21.5640  -17.2540 N.3   122  GLN122     -0.1245
      2  CA       -14.5330   20.3200  -16.7020 C.3   122  GLN122      0.1566
      3  C        -13.2240   20.1210  -17.3360 C.2   122  GLN122      0.2260
      4  O        -13.1050   19.8830  -18.5230 O.2   122  GLN122     -0.2867
      5  CB       -15.4530   19.1370  -16.9320 C.3   122  GLN122      0.0367
      6  CG       -14.8210   17.8130  -16.6150 C.3   122  GLN122      0.0905
      7  CD       -14.4380   17.7210  -15.2140 C.2   122  GLN122      0.2608
      8  OE1      -15.1580   18.2250  -14.3390 O.2   122  GLN122     -0.2717
      9  NE2      -13.4020   16.9830  -14.9640 N.am  122  GLN122     -0.0878
     10  N        -10.3880   18.0630  -15.7910 N.3   124  GLU124     -0.1231
     11  CA        -9.7220   16.7440  -15.6130 C.3   124  GLU124      0.1699
     12  C        -10.2660   15.7730  -16.6840 C.2   124  GLU124      0.2592
     13  O        -11.5040   15.7290  -16.8790 O.2   124  GLU124     -0.2718
     14  CB        -9.9520   16.2090  -14.2020 C.3   124  GLU124      0.0402
     15  CG        -9.1470   14.9520  -14.0070 C.3   124  GLU124      0.1161
     16  CD        -9.1590   14.3890  -12.6180 C.2   124  GLU124      0.3649
     17  OE1       -9.8110   14.9900  -11.7770 O.co2 124  GLU124     -0.2457
     18  OE2       -8.4960   13.3610  -12.3820 O.co2 124  GLU124     -0.2457
     19  N         -9.4520   15.0050  -17.3910 N.am  125  ALA125     -0.1980
     20  CA        -7.9380   15.0390  -17.3100 C.3   125  ALA125      0.1597
     21  C         -7.3360   16.0190  -18.3080 C.2   125  ALA125      0.2287
     22  O         -6.4240   16.7270  -17.9270 O.2   125  ALA125     -0.2864
     23  CB        -7.3320   13.6590  -17.5540 C.3   125  ALA125      0.0319
     24  N        -19.6020   12.5900  -15.2560 N.3   264  VAL264     -0.1231
     25  CA       -19.3840   11.6730  -14.1680 C.3   264  VAL264      0.1692
     26  C        -20.0610   12.2070  -12.9030 C.2   264  VAL264      0.2593
     27  O        -21.1490   12.7790  -13.0530 O.2   264  VAL264     -0.2718
     28  CB       -17.8510   11.5220  -14.0500 C.3   264  VAL264      0.0266
     29  CG1      -17.2780   11.0100  -15.4090 C.3   264  VAL264      0.0020
     30  CG2      -17.1580   12.7580  -13.6590 C.3   264  VAL264      0.0020
     31  N        -19.5520   11.9510  -11.7160 N.am  265  GLY265     -0.1942
     32  CA       -20.2620   12.3060  -10.5070 C.3   265  GLY265      0.2014
     33  C        -20.0070   13.7110   -9.9920 C.2   265  GLY265      0.2639
     34  O        -20.9140   14.4720   -9.7400 O.2   265  GLY265     -0.2714
     35  N        -18.7130   14.0660   -9.8800 N.am  266  ALA266     -0.1963
     36  CA       -18.3460   15.3880   -9.4350 C.3   266  ALA266      0.1728
     37  C        -16.8390   15.5390   -9.5930 C.2   266  ALA266      0.2616
     38  O        -16.1670   14.5720   -9.9680 O.2   266  ALA266     -0.2715
     39  CB       -18.7280   15.6450   -7.9660 C.3   266  ALA266      0.0334
     40  N        -16.3470   16.7190   -9.3290 N.am  267  MET267     -0.1963
     41  CA       -14.9480   17.1210   -9.5600 C.3   267  MET267      0.1736
     42  C        -14.4360   18.0790   -8.5160 C.2   267  MET267      0.2616
     43  O        -15.1180   19.0320   -8.1470 O.2   267  MET267     -0.2715
     44  CB       -14.8440   17.7690  -10.9750 C.3   267  MET267      0.0427
     45  CG       -13.4900   18.3410  -11.3720 C.3   267  MET267      0.0599
     46  SD       -12.3460   16.9510  -11.4950 S.3   267  MET267     -0.1393
     47  CE       -10.8640   17.7760  -10.9280 C.3   267  MET267      0.0692
     48  N        -13.2290   17.8260   -8.0780 N.am  268  GLU268     -0.1977
     49  CA       -12.6420   18.4720   -6.9200 C.3   268  GLU268      0.1602
     50  C        -11.9020   19.7910   -7.2070 C.2   268  GLU268      0.2287
     51  O        -10.9380   20.1320   -6.5060 O.2   268  GLU268     -0.2864
     52  CB       -11.6790   17.5060   -6.1970 C.3   268  GLU268      0.0415
     53  CG       -10.3830   17.1630   -7.0130 C.3   268  GLU268      0.1163
     54  CD       -10.4290   15.9330   -7.9240 C.2   268  GLU268      0.3649
     55  OE1      -11.5210   15.5140   -8.3960 O.co2 268  GLU268     -0.2457
     56  OE2       -9.3330   15.4090   -8.2450 O.co2 268  GLU268     -0.2457
     57  N        -25.6170    8.7050   -1.6800 N.3   294  ARG294     -0.1245
     58  CA       -24.7970    9.1180   -2.8190 C.3   294  ARG294      0.1563
     59  C        -24.2350   10.5120   -2.6430 C.2   294  ARG294      0.2260
     60  O        -23.0390   10.7000   -2.8030 O.2   294  ARG294     -0.2867
     61  CB       -25.6350    9.0740   -4.1120 C.3   294  ARG294      0.0307
     62  CG       -24.9370    9.6080   -5.3040 C.3   294  ARG294      0.0489
     63  CD       -23.8900    8.6780   -5.7890 C.3   294  ARG294      0.2205
     64  NE       -23.3570    9.2780   -7.0380 N.pl3 294  ARG294     -0.0865
     65  CZ       -22.2140    8.9040   -7.6110 C.cat 294  ARG294      0.5346
     66  NH1      -21.8720    9.5700   -8.6850 N.pl3 294  ARG294      0.1354
     67  NH2      -21.3900    7.9170   -7.1020 N.pl3 294  ARG294      0.1354
     68  N        -21.4980   10.4300    0.0280 N.3   297  THR297     -0.1203
     69  CA       -20.2380    9.8850   -0.5140 C.3   297  THR297      0.1994
     70  C        -19.6000   10.8660   -1.4810 C.2   297  THR297      0.2617
     71  O        -18.3600   10.9930   -1.4510 O.2   297  THR297     -0.2717
     72  CB       -20.3640    8.5070   -1.2330 C.3   297  THR297      0.1784
     73  OG1      -21.2100    8.5220   -2.3310 O.3   297  THR297     -0.2211
     74  CG2      -20.8710    7.5090   -0.4050 C.3   297  THR297      0.0376
     75  N        -20.3480   11.4820   -2.3800 N.am  298  VAL298     -0.1979
     76  CA       -19.6930   12.3100   -3.3410 C.3   298  VAL298      0.1595
     77  C        -19.1750   13.6400   -2.8100 C.2   298  VAL298      0.2287
     78  O        -18.0150   14.0480   -3.1280 O.2   298  VAL298     -0.2864
     79  CB       -20.5930   12.5090   -4.5620 C.3   298  VAL298      0.0276
     80  CG1      -19.9350   13.4670   -5.5850 C.3   298  VAL298      0.0022
     81  CG2      -20.9140   11.1550   -5.1900 C.3   298  VAL298      0.0022
     82  N        -16.0890   12.6490   -0.8670 N.3   301  HIS301     -0.1226
     83  CA       -15.0140   12.3470   -1.8340 C.3   301  HIS301      0.1752
     84  C        -14.3710   13.6100   -2.3750 C.2   301  HIS301      0.2595
     85  O        -13.1270   13.7500   -2.3110 O.2   301  HIS301     -0.2718
     86  CB       -15.5460   11.4790   -2.9440 C.3   301  HIS301      0.0759
     87  CG       -14.5280   11.0640   -3.9530 C.ar  301  HIS301      0.0818
     88  ND1      -14.0150    9.7880   -4.0310 N.ar  301  HIS301     -0.2268
     89  CD2      -14.0610   11.7260   -5.0410 C.ar  301  HIS301      0.1154
     90  CE1      -13.2190    9.7280   -5.0860 C.ar  301  HIS301      0.1986
     91  NE2      -13.1790   10.9060   -5.6360 N.ar  301  HIS301     -0.2212
     92  N        -15.1840   14.5170   -2.9570 N.am  302  GLU302     -0.1979
     93  CA       -14.5410   15.7670   -3.4770 C.3   302  GLU302      0.1602
     94  C        -13.8310   16.5640   -2.4120 C.2   302  GLU302      0.2287
     95  O        -12.7590   17.1140   -2.6520 O.2   302  GLU302     -0.2864
     96  CB       -15.4840   16.6680   -4.2500 C.3   302  GLU302      0.0415
     97  CG       -16.2690   15.9340   -5.3360 C.3   302  GLU302      0.1163
     98  CD       -15.4950   14.9740   -6.2420 C.2   302  GLU302      0.3649
     99  OE1      -14.2810   15.1810   -6.5090 O.co2 302  GLU302     -0.2457
    100  OE2      -16.1240   13.9960   -6.7260 O.co2 302  GLU302     -0.2457
    101  N        -10.4120   15.0370   -1.5150 N.3   305  HIS305     -0.1297
    102  CA        -9.4020   15.3820   -2.4850 C.3   305  HIS305      0.1306
    103  C         -8.6530   16.6740   -2.1330 C.3   305  HIS305      0.2013
    104  O         -7.5460   16.9090   -2.7470 O.3   305  HIS305     -0.2188
    105  CB        -9.9790   15.5710   -3.8910 C.3   305  HIS305      0.0691
    106  CG       -10.1340   14.3140   -4.6940 C.ar  305  HIS305      0.0814
    107  ND1       -9.0910   13.4640   -4.9940 N.ar  305  HIS305     -0.2268
    108  CD2      -11.1570   13.9170   -5.4870 C.ar  305  HIS305      0.1154
    109  CE1       -9.4950   12.5360   -5.8290 C.ar  305  HIS305      0.1986
    110  NE2      -10.7590   12.7950   -6.1320 N.ar  305  HIS305     -0.2212
    111  N         -7.0900    8.7960   -6.5230 N.3   324  GLU324     -0.1245
    112  CA        -8.4670    8.2000   -6.5340 C.3   324  GLU324      0.1567
    113  C         -8.6230    7.0370   -5.5700 C.2   324  GLU324      0.2260
    114  O         -9.6070    7.0070   -4.7990 O.2   324  GLU324     -0.2867
    115  CB        -8.9100    7.8630   -7.9500 C.3   324  GLU324      0.0388
    116  CG        -8.9820    9.0640   -8.8250 C.3   324  GLU324      0.1160
    117  CD        -9.9030   10.1810   -8.3820 C.2   324  GLU324      0.3649
    118  OE1      -10.7330    9.9940   -7.4860 O.co2 324  GLU324     -0.2457
    119  OE2       -9.8250   11.2870   -8.9430 O.co2 324  GLU324     -0.2457
    120  N        -11.0730    7.4560   -2.4000 N.3   328  VAL328     -0.1245
    121  CA       -12.1500    6.4590   -2.1820 C.3   328  VAL328      0.1561
    122  C        -12.0140    5.8060   -0.8060 C.2   328  VAL328      0.2260
    123  O        -13.0360    5.6930   -0.0690 O.2   328  VAL328     -0.2867
    124  CB       -12.2290    5.4230   -3.3310 C.3   328  VAL328      0.0252
    125  CG1      -13.2660    4.3580   -3.0180 C.3   328  VAL328      0.0019
    126  CG2      -12.5760    6.1030   -4.6420 C.3   328  VAL328      0.0019
    127  N        -13.1030    8.3660    1.6940 N.3   331  GLU331     -0.1245
    128  CA       -14.5520    8.5200    1.6920 C.3   331  GLU331      0.1567
    129  C        -15.2500    7.2900    2.2830 C.2   331  GLU331      0.2260
    130  O        -16.2800    7.4360    2.9310 O.2   331  GLU331     -0.2867
    131  CB       -15.1440    8.8210    0.3480 C.3   331  GLU331      0.0388
    132  CG       -16.6850    8.8000    0.2970 C.3   331  GLU331      0.1160
    133  CD       -17.2490    7.3920    0.1230 C.2   331  GLU331      0.3649
    134  OE1      -16.6390    6.5810   -0.6090 O.co2 331  GLU331     -0.2457
    135  OE2      -18.3080    7.1370    0.7390 O.co2 331  GLU331     -0.2457
    136  N         -8.3640    8.9970  -20.3060 N.3   377  GLU377     -0.1245
    137  CA        -9.7510    8.9740  -19.8340 C.3   377  GLU377      0.1567
    138  C        -10.3270    7.5570  -19.6520 C.2   377  GLU377      0.2260
    139  O        -11.2560    7.2710  -18.8490 O.2   377  GLU377     -0.2867
    140  CB       -10.6580    9.7100  -20.8100 C.3   377  GLU377      0.0388
    141  CG       -10.5440   11.2170  -20.8560 C.3   377  GLU377      0.1160
    142  CD        -9.5110   11.7340  -21.8450 C.2   377  GLU377      0.3649
    143  OE1       -9.6110   12.9170  -22.2170 O.co2 377  GLU377     -0.2457
    144  OE2       -8.5940   10.9780  -22.2520 O.co2 377  GLU377     -0.2457
    145  N         -9.9900    5.7530  -15.9310 N.3   380  TYR380     -0.1241
    146  CA       -10.7790    6.0540  -14.8010 C.3   380  TYR380      0.1605
    147  C        -11.7200    4.8920  -14.5210 C.2   380  TYR380      0.2264
    148  O        -12.9010    4.9890  -14.7000 O.2   380  TYR380     -0.2867
    149  CB       -11.5260    7.3750  -14.9610 C.3   380  TYR380      0.0534
    150  CG       -10.6200    8.5890  -14.8680 C.ar  380  TYR380     -0.0201
    151  CD1       -9.7650    8.9670  -15.9070 C.ar  380  TYR380     -0.0009
    152  CD2      -10.5830    9.3740  -13.7810 C.ar  380  TYR380     -0.0009
    153  CE1       -8.9180   10.0360  -15.7850 C.ar  380  TYR380      0.0417
    154  CE2       -9.7490   10.4930  -13.6550 C.ar  380  TYR380      0.0417
    155  CZ        -8.8850   10.8230  -14.6470 C.ar  380  TYR380      0.1957
    156  OH        -8.0470   11.8760  -14.5460 O.3   380  TYR380     -0.2866
    157  N        -10.0010    2.9180   -9.0830 N.3   385  TYR385     -0.1241
    158  CA       -10.7470    3.4390   -7.9700 C.3   385  TYR385      0.1605
    159  C        -10.9730    2.4530   -6.8300 C.2   385  TYR385      0.2264
    160  O        -10.6080    2.7520   -5.6870 O.2   385  TYR385     -0.2867
    161  CB       -12.1180    3.9660   -8.4360 C.3   385  TYR385      0.0534
    162  CG       -12.0930    5.3730   -9.0350 C.ar  385  TYR385     -0.0201
    163  CD1      -11.4760    5.6350  -10.2530 C.ar  385  TYR385     -0.0009
    164  CD2      -12.6390    6.4620   -8.3720 C.ar  385  TYR385     -0.0009
    165  CE1      -11.4890    6.8930  -10.8130 C.ar  385  TYR385      0.0417
    166  CE2      -12.6340    7.7240   -8.9150 C.ar  385  TYR385      0.0417
    167  CZ       -12.0150    7.9590  -10.1410 C.ar  385  TYR385      0.1957
    168  OH       -11.9710    9.2130  -10.6490 O.3   385  TYR385     -0.2866
    169  N        -16.9610   10.1630  -24.0400 N.3   839  MET839     -0.1245
    170  CA       -16.8570    9.5760  -22.6950 C.3   839  MET839      0.1570
    171  C        -18.0970    8.8070  -22.3330 C.2   839  MET839      0.2261
    172  O        -18.0240    7.6820  -21.8440 O.2   839  MET839     -0.2867
    173  CB       -16.5810   10.6720  -21.6720 C.3   839  MET839      0.0387
    174  CG       -15.1610   11.1480  -21.8910 C.3   839  MET839      0.0595
    175  SD       -14.5360   12.3700  -20.6870 S.3   839  MET839     -0.1393
    176  CE       -15.3620   11.7120  -19.1910 C.3   839  MET839      0.0692
    177  N        -18.8400    4.7140  -21.5480 N.3   843  GLN843     -0.1245
    178  CA       -19.6620    4.2190  -20.4320 C.3   843  GLN843      0.1566
    179  C        -20.7230    3.2390  -20.8400 C.2   843  GLN843      0.2260
    180  O        -20.9260    2.2040  -20.1750 O.2   843  GLN843     -0.2867
    181  CB       -20.3420    5.3410  -19.6110 C.3   843  GLN843      0.0367
    182  CG       -19.3230    6.2550  -18.9770 C.3   843  GLN843      0.0905
    183  CD       -19.9890    7.4730  -18.3540 C.2   843  GLN843      0.2608
    184  OE1      -21.1740    7.6740  -18.4700 O.2   843  GLN843     -0.2717
    185  NE2      -19.1650    8.3740  -17.8530 N.am  843  GLN843     -0.0878
@<TRIPOS>BOND
     1   169   170    1
     2   170   171    1
     3   170   173    1
     4   171   172    2
     5   144   142   ar
     6   143   142   ar
     7   174   173    1
     8   174   175    1
     9   142   141    1
    10   177   178    1
    11   141   140    1
    12   179   178    1
    13   179   180    2
    14   140   137    1
    15   175   176    1
    16   178   181    1
    17   136   137    1
    18   137   138    1
    19   138   139    2
    20   181   182    1
    21   182   183    1
    22     4     3    2
    23   184   183    2
    24   183   185   am
    25    21    22    2
    26    21    20    1
    27    23    20    1
    28    19    20    1
    29    19    12   am
    30     3     2    1
    31     1     2    1
    32     5     2    1
    33     5     6    1
    34    13    12    2
    35    12    11    1
    36     6     7    1
    37   145   146    1
    38   151   153   ar
    39   151   150   ar
    40    10    11    1
    41   153   155   ar
    42    11    14    1
    43    29    28    1
    44    24    25    1
    45     7     9   am
    46     7     8    2
    47   149   150    1
    48   149   146    1
    49   150   152   ar
    50   146   147    1
    51   148   147    2
    52   155   156    1
    53   155   154   ar
    54    14    15    1
    55    25    28    1
    56    25    26    1
    57    28    30    1
    58    15    16    1
    59   152   154   ar
    60    27    26    2
    61    26    31   am
    62    16    18   ar
    63    16    17   ar
    64    31    32    1
    65    46    45    1
    66    46    47    1
    67    45    44    1
    68    44    41    1
    69   165   163   ar
    70   165   167   ar
    71   168   167    1
    72    32    33    1
    73   163   162   ar
    74   167   166   ar
    75    33    35   am
    76    33    34    2
    77    38    37    2
    78    35    36    1
    79    37    36    1
    80    37    40   am
    81    41    40    1
    82    41    42    1
    83    36    39    1
    84   157   158    1
    85   162   161    1
    86   162   164   ar
    87   119   117   ar
    88   166   164   ar
    89   116   117    1
    90   116   115    1
    91    66    65    1
    92    42    43    2
    93    42    48   am
    94   161   158    1
    95    55    54   ar
    96   117   118   ar
    97    56    54   ar
    98    48    49    1
    99   158   159    1
   100   115   112    1
   101    54    53    1
   102    65    67    1
   103    65    64    2
   104    50    49    1
   105    50    51    2
   106    64    63    1
   107    53    52    1
   108    49    52    1
   109   159   160    2
   110   100    98   ar
   111   112   111    1
   112   112   113    1
   113    99    98   ar
   114    98    97    1
   115   110   109   ar
   116   110   108   ar
   117   109   107   ar
   118    63    62    1
   119    91    90   ar
   120    91    89   ar
   121    80    79    1
   122   113   114    2
   123   108   106   ar
   124    97    96    1
   125    62    61    1
   126    81    79    1
   127    90    88   ar
   128    89    87   ar
   129   107   106   ar
   130   106   105    1
   131   126   124    1
   132    79    76    1
   133    96    93    1
   134    61    58    1
   135    88    87   ar
   136    87    86    1
   137   105   102    1
   138    93    92    1
   139    93    94    1
   140    76    77    1
   141    76    75    1
   142   124   125    1
   143   124   121    1
   144    78    77    2
   145    92    84   am
   146    86    83    1
   147    58    59    1
   148    58    57    1
   149    60    59    2
   150   104   103    1
   151    95    94    2
   152   102   103    1
   153   102   101    1
   154   120   121    1
   155    75    70   am
   156    84    85    2
   157    84    83    1
   158    73    72    1
   159   121   122    1
   160    83    82    1
   161    70    71    2
   162    70    69    1
   163    72    69    1
   164    72    74    1
   165   122   123    2
   166   134   133   ar
   167    69    68    1
   168   133   132    1
   169   133   135   ar
   170   132   131    1
   171   131   128    1
   172   128   127    1
   173   128   129    1
   174   129   130    2
