@<TRIPOS>MOLECULE
tmp/5y1vA00.pdb
 186 177 0 0 0
SMALL
GASTEIGER

@<TRIPOS>ATOM
      1  N         14.9170   21.5490   17.1270 N.3   122  GLN122     -0.1245
      2  CA        14.3950   20.3140   16.6100 C.3   122  GLN122      0.1566
      3  C         13.0570   20.1070   17.2430 C.2   122  GLN122      0.2260
      4  O         12.9390   19.8470   18.4270 O.2   122  GLN122     -0.2867
      5  CB        15.3260   19.1260   16.8390 C.3   122  GLN122      0.0367
      6  CG        14.6920   17.7950   16.5360 C.3   122  GLN122      0.0905
      7  CD        14.2920   17.6540   15.0650 C.2   122  GLN122      0.2608
      8  OE1       14.9480   18.1760   14.1990 O.2   122  GLN122     -0.2717
      9  NE2       13.2220   16.9550   14.8090 N.am  122  GLN122     -0.0878
     10  N         10.2020   17.9750   15.6980 N.3   124  GLU124     -0.1245
     11  CA         9.5120   16.7050   15.4890 C.3   124  GLU124      0.1567
     12  C         10.0910   15.7190   16.5280 C.2   124  GLU124      0.2260
     13  O         11.3180   15.6160   16.6950 O.2   124  GLU124     -0.2867
     14  CB         9.7490   16.1480   14.0730 C.3   124  GLU124      0.0388
     15  CG         8.9130   14.8910   13.8880 C.3   124  GLU124      0.1160
     16  CD         8.9010   14.3020   12.5140 C.2   124  GLU124      0.3649
     17  OE1        9.5420   14.9000   11.6460 O.co2 124  GLU124     -0.2457
     18  OE2        8.2850   13.3020   12.2730 O.co2 124  GLU124     -0.2457
     19  N         23.2450   16.4900   16.7050 N.3   262  PHE262     -0.1241
     20  CA        21.9030   16.1480   16.1860 C.3   262  PHE262      0.1605
     21  C         21.5910   14.6930   16.4820 C.2   262  PHE262      0.2264
     22  O         22.4140   13.7890   16.3200 O.2   262  PHE262     -0.2867
     23  CB        21.8410   16.4040   14.6670 C.3   262  PHE262      0.0534
     24  CG        20.4700   16.6160   14.1250 C.ar  262  PHE262     -0.0203
     25  CD1       19.8420   17.8310   14.3430 C.ar  262  PHE262     -0.0042
     26  CD2       19.8520   15.6430   13.3760 C.ar  262  PHE262     -0.0042
     27  CE1       18.5780   18.0220   13.8510 C.ar  262  PHE262     -0.0003
     28  CE2       18.5820   15.8270   12.8450 C.ar  262  PHE262     -0.0003
     29  CZ        17.9640   17.0310   13.1050 C.ar  262  PHE262     -0.0000
     30  N         19.4630   12.4940   15.1590 N.3   264  VAL264     -0.1231
     31  CA        19.2640   11.5260   14.1260 C.3   264  VAL264      0.1692
     32  C         19.9910   12.0290   12.8420 C.2   264  VAL264      0.2593
     33  O         21.1230   12.6000   13.0450 O.2   264  VAL264     -0.2718
     34  CB        17.7760   11.2440   13.9320 C.3   264  VAL264      0.0266
     35  CG1       17.2040   10.6950   15.2740 C.3   264  VAL264      0.0020
     36  CG2       17.0200   12.4470   13.5370 C.3   264  VAL264      0.0020
     37  N         19.4370   11.9120   11.6140 N.am  265  GLY265     -0.1942
     38  CA        20.0910   12.2820   10.4040 C.3   265  GLY265      0.2014
     39  C         19.8340   13.7050    9.9340 C.2   265  GLY265      0.2639
     40  O         20.6830   14.4940    9.6750 O.2   265  GLY265     -0.2714
     41  N         18.5480   14.0440    9.8740 N.am  266  ALA266     -0.1963
     42  CA        18.1460   15.3680    9.3750 C.3   266  ALA266      0.1728
     43  C         16.6280   15.5420    9.5620 C.2   266  ALA266      0.2616
     44  O         15.9780   14.5930    9.9570 O.2   266  ALA266     -0.2715
     45  CB        18.4590   15.5630    7.8990 C.3   266  ALA266      0.0334
     46  N         16.1030   16.7050    9.2450 N.am  267  MET267     -0.1963
     47  CA        14.7280   17.1130    9.5200 C.3   267  MET267      0.1736
     48  C         14.2140   18.0310    8.4540 C.2   267  MET267      0.2616
     49  O         14.9270   18.9750    8.0570 O.2   267  MET267     -0.2715
     50  CB        14.6750   17.7900   10.9020 C.3   267  MET267      0.0427
     51  CG        13.3300   18.2480   11.2630 C.3   267  MET267      0.0599
     52  SD        12.1420   16.9220   11.4290 S.3   267  MET267     -0.1393
     53  CE        10.6420   17.7080   10.8910 C.3   267  MET267      0.0692
     54  N         12.9950   17.7710    8.0120 N.am  268  GLU268     -0.1977
     55  CA        12.3910   18.4230    6.8280 C.3   268  GLU268      0.1602
     56  C         11.6610   19.7610    7.0960 C.2   268  GLU268      0.2287
     57  O         10.7010   20.0690    6.4150 O.2   268  GLU268     -0.2864
     58  CB        11.4620   17.4440    6.1210 C.3   268  GLU268      0.0415
     59  CG        10.1620   17.1530    6.9380 C.3   268  GLU268      0.1163
     60  CD        10.1910   15.9370    7.8180 C.2   268  GLU268      0.3649
     61  OE1       11.2740   15.5290    8.3160 O.co2 268  GLU268     -0.2457
     62  OE2        9.0730   15.4390    8.1470 O.co2 268  GLU268     -0.2457
     63  N         20.1130   11.4700    2.3350 N.3   298  VAL298     -0.1245
     64  CA        19.4740   12.2710    3.3360 C.3   298  VAL298      0.1561
     65  C         18.9570   13.5940    2.7670 C.2   298  VAL298      0.2260
     66  O         17.8420   14.0020    3.0640 O.2   298  VAL298     -0.2867
     67  CB        20.3760   12.4250    4.5440 C.3   298  VAL298      0.0252
     68  CG1       19.7380   13.3800    5.5960 C.3   298  VAL298      0.0019
     69  CG2       20.6650   11.0600    5.1710 C.3   298  VAL298      0.0019
     70  N         15.8190   12.5700    0.8480 N.3   301  HIS301     -0.1226
     71  CA        14.7380   12.2640    1.7460 C.3   301  HIS301      0.1752
     72  C         14.0860   13.5300    2.2770 C.2   301  HIS301      0.2595
     73  O         12.8580   13.6390    2.2610 O.2   301  HIS301     -0.2718
     74  CB        15.3160   11.4490    2.9080 C.3   301  HIS301      0.0759
     75  CG        14.3430   11.0150    3.9440 C.ar  301  HIS301      0.0818
     76  ND1       13.8400    9.7440    4.0140 N.ar  301  HIS301     -0.2268
     77  CD2       13.8180   11.6830    4.9990 C.ar  301  HIS301      0.1154
     78  CE1       13.0190    9.6360    5.0570 C.ar  301  HIS301      0.1986
     79  NE2       12.9740   10.8160    5.6410 N.ar  301  HIS301     -0.2212
     80  N         14.8720   14.4550    2.8490 N.am  302  GLU302     -0.1979
     81  CA        14.2870   15.6430    3.4270 C.3   302  GLU302      0.1602
     82  C         13.6190   16.5060    2.3620 C.2   302  GLU302      0.2287
     83  O         12.5420   17.0880    2.6430 O.2   302  GLU302     -0.2864
     84  CB        15.2260   16.5210    4.2320 C.3   302  GLU302      0.0415
     85  CG        16.0590   15.7630    5.3100 C.3   302  GLU302      0.1163
     86  CD        15.2890   14.8330    6.1820 C.2   302  GLU302      0.3649
     87  OE1       14.0430   15.0660    6.4820 O.co2 302  GLU302     -0.2457
     88  OE2       15.8640   13.8590    6.6750 O.co2 302  GLU302     -0.2457
     89  N         10.1850   14.9900    1.4830 N.3   305  HIS305     -0.1241
     90  CA         9.1650   15.2940    2.4480 C.3   305  HIS305      0.1621
     91  C          8.4170   16.6290    2.1300 C.2   305  HIS305      0.2264
     92  O          7.3180   16.8260    2.6650 O.2   305  HIS305     -0.2867
     93  CB         9.7530   15.4850    3.8470 C.3   305  HIS305      0.0745
     94  CG         9.8960   14.2490    4.6600 C.ar  305  HIS305      0.0817
     95  ND1        8.8690   13.3860    4.9410 N.ar  305  HIS305     -0.2268
     96  CD2       10.9270   13.8790    5.4390 C.ar  305  HIS305      0.1154
     97  CE1        9.2740   12.4780    5.8060 C.ar  305  HIS305      0.1986
     98  NE2       10.5350   12.7540    6.1200 N.ar  305  HIS305     -0.2212
     99  N          6.8390    8.6590    6.3770 N.3   324  GLU324     -0.1245
    100  CA         8.2530    8.1430    6.4400 C.3   324  GLU324      0.1567
    101  C          8.4110    6.9730    5.4760 C.2   324  GLU324      0.2260
    102  O          9.3810    6.8860    4.7390 O.2   324  GLU324     -0.2867
    103  CB         8.6710    7.7950    7.8530 C.3   324  GLU324      0.0388
    104  CG         8.7070    8.9980    8.7700 C.3   324  GLU324      0.1160
    105  CD         9.6200   10.1130    8.3340 C.2   324  GLU324      0.3649
    106  OE1       10.5110    9.9110    7.4550 O.co2 324  GLU324     -0.2457
    107  OE2        9.5080   11.2280    8.8860 O.co2 324  GLU324     -0.2457
    108  N         10.8640    7.3910    2.3930 N.3   328  VAL328     -0.1245
    109  CA        11.9880    6.4240    2.1480 C.3   328  VAL328      0.1561
    110  C         11.8130    5.7590    0.7980 C.2   328  VAL328      0.2260
    111  O         12.8100    5.6310    0.0560 O.2   328  VAL328     -0.2867
    112  CB        12.0570    5.3750    3.2740 C.3   328  VAL328      0.0252
    113  CG1       13.0950    4.3000    2.9820 C.3   328  VAL328      0.0019
    114  CG2       12.3950    6.0560    4.5940 C.3   328  VAL328      0.0019
    115  N          8.4510    9.0920   20.0400 N.3   377  GLU377     -0.1245
    116  CA         9.8480    9.0180   19.6280 C.3   377  GLU377      0.1567
    117  C         10.3440    7.5330   19.5590 C.2   377  GLU377      0.2260
    118  O         11.2290    7.2000   18.7080 O.2   377  GLU377     -0.2867
    119  CB        10.7820    9.9910   20.4480 C.3   377  GLU377      0.0388
    120  CG        10.2450   10.7370   21.7160 C.3   377  GLU377      0.1160
    121  CD         9.4600   12.0520   21.4720 C.2   377  GLU377      0.3649
    122  OE1        8.9040   12.5690   22.4510 O.co2 377  GLU377     -0.2457
    123  OE2        9.3920   12.6010   20.3390 O.co2 377  GLU377     -0.2457
    124  N          9.8200    5.7190   15.7730 N.3   380  TYR380     -0.1227
    125  CA        10.5700    6.0500   14.6520 C.3   380  TYR380      0.1736
    126  C         11.5120    4.9000   14.4720 C.2   380  TYR380      0.2596
    127  O         12.7020    4.9840   14.7170 O.2   380  TYR380     -0.2718
    128  CB        11.3350    7.3790   14.8010 C.3   380  TYR380      0.0548
    129  CG        10.4280    8.6060   14.7520 C.ar  380  TYR380     -0.0200
    130  CD1        9.4960    8.8940   15.7450 C.ar  380  TYR380     -0.0009
    131  CD2       10.4700    9.4370   13.6830 C.ar  380  TYR380     -0.0009
    132  CE1        8.6710    9.9530   15.6620 C.ar  380  TYR380      0.0417
    133  CE2        9.5950   10.5130   13.5580 C.ar  380  TYR380      0.0417
    134  CZ         8.6800   10.7720   14.5740 C.ar  380  TYR380      0.1957
    135  OH         7.8390   11.8480   14.4580 O.3   380  TYR380     -0.2866
    136  N         10.9520    3.8590   13.9200 N.am  381  THR381     -0.1939
    137  CA        11.6330    2.5540   13.8280 C.3   381  THR381      0.2028
    138  C         11.8920    2.1010   12.4130 C.2   381  THR381      0.2642
    139  O         11.2730    2.5630   11.4930 O.2   381  THR381     -0.2714
    140  CB        10.7330    1.4920   14.4440 C.3   381  THR381      0.1808
    141  OG1        9.4680    1.4250   13.7960 O.3   381  THR381     -0.2208
    142  CG2       10.5160    1.7870   15.9380 C.3   381  THR381      0.0379
    143  N         12.7450    1.1060   12.3010 N.am  382  THR382     -0.1950
    144  CA        13.0440    0.5130   10.9530 C.3   382  THR382      0.1897
    145  C         11.7850   -0.1790   10.4470 C.2   382  THR382      0.2313
    146  O         11.5440   -0.2430    9.2080 O.2   382  THR382     -0.2863
    147  CB        14.2080   -0.4850   11.0620 C.3   382  THR382      0.1794
    148  OG1       14.4080   -1.0730    9.7960 O.3   382  THR382     -0.2208
    149  CG2       13.9960   -1.5710   12.0310 C.3   382  THR382      0.0378
    150  N          9.7510    2.8370    9.0350 N.3   385  TYR385     -0.1227
    151  CA        10.5130    3.4150    7.8960 C.3   385  TYR385      0.1736
    152  C         10.7640    2.4480    6.7650 C.2   385  TYR385      0.2595
    153  O         10.3900    2.7150    5.6040 O.2   385  TYR385     -0.2718
    154  CB        11.8680    3.9730    8.3850 C.3   385  TYR385      0.0548
    155  CG        11.8330    5.3980    8.9580 C.ar  385  TYR385     -0.0200
    156  CD1       11.2210    5.6440   10.1760 C.ar  385  TYR385     -0.0009
    157  CD2       12.4310    6.4940    8.3390 C.ar  385  TYR385     -0.0009
    158  CE1       11.1220    6.8900   10.6720 C.ar  385  TYR385      0.0417
    159  CE2       12.3910    7.7490    8.8690 C.ar  385  TYR385      0.0417
    160  CZ        11.7280    7.9340   10.0540 C.ar  385  TYR385      0.1957
    161  OH        11.7270    9.1900   10.5690 O.3   385  TYR385     -0.2866
    162  N         11.4380    1.3380    7.0750 N.am  386  ASP386     -0.1974
    163  CA        11.9570    0.4190    6.0150 C.3   386  ASP386      0.1709
    164  C         10.9200   -0.5890    5.6270 C.2   386  ASP386      0.2293
    165  O         10.7120   -0.8020    4.4200 O.2   386  ASP386     -0.2864
    166  CB        13.2450   -0.1930    6.4560 C.3   386  ASP386      0.1436
    167  CG        14.2580    0.8770    6.8100 C.2   386  ASP386      0.3671
    168  OD1       14.4320    1.7940    5.9650 O.co2 386  ASP386     -0.2456
    169  OD2       14.7900    0.9290    7.9570 O.co2 386  ASP386     -0.2456
    170  N         16.8400   10.2460   23.9630 N.3   839  MET839     -0.1245
    171  CA        16.6330    9.6410   22.6510 C.3   839  MET839      0.1570
    172  C         17.8960    8.8690   22.2580 C.2   839  MET839      0.2261
    173  O         17.8520    7.7770   21.7230 O.2   839  MET839     -0.2867
    174  CB        16.3020   10.7370   21.6730 C.3   839  MET839      0.0387
    175  CG        14.8470   11.1430   21.8310 C.3   839  MET839      0.0595
    176  SD        14.5240   12.5110   20.6990 S.3   839  MET839     -0.1393
    177  CE        14.9900   11.6440   19.1490 C.3   839  MET839      0.0692
    178  N         18.7180    4.8530   21.5700 N.3   843  GLN843     -0.1245
    179  CA        19.4670    4.3310   20.3890 C.3   843  GLN843      0.1566
    180  C         20.5350    3.3220   20.7850 C.2   843  GLN843      0.2260
    181  O         20.7760    2.3240   20.0710 O.2   843  GLN843     -0.2867
    182  CB        20.0980    5.4620   19.5690 C.3   843  GLN843      0.0367
    183  CG        19.1000    6.3040   18.8680 C.3   843  GLN843      0.0905
    184  CD        19.7630    7.4870   18.2190 C.2   843  GLN843      0.2608
    185  OE1       20.9120    7.4780   18.1290 O.2   843  GLN843     -0.2717
    186  NE2       19.0310    8.4990   17.8410 N.am  843  GLN843     -0.0878
@<TRIPOS>BOND
     1   111   110    2
     2   110   109    1
     3    70    71    1
     4    89    90    1
     5    71    72    1
     6    71    74    1
     7    91    90    1
     8    91    92    2
     9   109   108    1
    10   109   112    1
    11    73    72    2
    12    72    80   am
    13    63    64    1
    14    82    83    2
    15    82    81    1
    16    90    93    1
    17    65    66    2
    18    65    64    1
    19    80    81    1
    20    74    75    1
    21   113   112    1
    22   112   114    1
    23    64    67    1
    24    81    84    1
    25    93    94    1
    26    75    76   ar
    27    75    77   ar
    28    76    78   ar
    29    84    85    1
    30   165   164    2
    31    67    69    1
    32    67    68    1
    33    94    95   ar
    34    94    96   ar
    35   102   101    2
    36    95    97   ar
    37    77    79   ar
    38    78    79   ar
    39    85    86    1
    40    96    98   ar
    41   101   100    1
    42   153   152    2
    43   164   163    1
    44    97    98   ar
    45   168   167   ar
    46   163   166    1
    47   163   162    1
    48    58    55    1
    49    58    59    1
    50    86    87   ar
    51    86    88   ar
    52    99   100    1
    53    57    56    2
    54   100   103    1
    55   166   167    1
    56   152   162   am
    57   152   151    1
    58   167   169   ar
    59    55    56    1
    60    55    54    1
    61    59    60    1
    62   106   105   ar
    63    60    62   ar
    64    60    61   ar
    65   103   104    1
    66   151   154    1
    67   151   150    1
    68    45    42    1
    69    54    48   am
    70    49    48    2
    71   105   104    1
    72   105   107   ar
    73   157   159   ar
    74   157   155   ar
    75   154   155    1
    76    48    47    1
    77   159   160   ar
    78   155   156   ar
    79   146   145    2
    80    46    47    1
    81    46    43   am
    82    42    43    1
    83    42    41    1
    84    47    50    1
    85    43    44    2
    86    40    39    2
    87   148   147    1
    88    41    39   am
    89    39    38    1
    90   160   161    1
    91   160   158   ar
    92   156   158   ar
    93    38    37    1
    94   145   144    1
    95    53    52    1
    96    50    51    1
    97   144   147    1
    98   144   143    1
    99   147   149    1
   100    51    52    1
   101   139   138    2
   102    37    32   am
   103    17    16   ar
   104    18    16   ar
   105   143   138   am
   106   138   137    1
   107    16    15    1
   108    32    33    2
   109    32    31    1
   110    28    29   ar
   111    28    26   ar
   112    29    27   ar
   113    26    24   ar
   114    36    34    1
   115   133   131   ar
   116   133   134   ar
   117   131   129   ar
   118   141   140    1
   119   137   136    1
   120   137   140    1
   121    27    25   ar
   122    15    14    1
   123   136   126   am
   124    34    31    1
   125    34    35    1
   126    14    11    1
   127    24    25   ar
   128    24    23    1
   129    31    30    1
   130     8     7    2
   131   140   142    1
   132   135   134    1
   133   126   125    1
   134   126   127    2
   135   134   132   ar
   136   125   128    1
   137   125   124    1
   138    23    20    1
   139   129   128    1
   140   129   130   ar
   141     9     7   am
   142     7     6    1
   143    11    10    1
   144    11    12    1
   145   132   130   ar
   146    20    21    1
   147    20    19    1
   148    22    21    2
   149    12    13    2
   150     6     5    1
   151     2     5    1
   152     2     1    1
   153     2     3    1
   154     3     4    2
   155   186   184   am
   156   185   184    2
   157   184   183    1
   158   118   117    2
   159   183   182    1
   160   177   176    1
   161   117   116    1
   162   182   179    1
   163   116   115    1
   164   116   119    1
   165   181   180    2
   166   123   121   ar
   167   179   180    1
   168   179   178    1
   169   119   120    1
   170   176   175    1
   171   121   120    1
   172   121   122   ar
   173   174   175    1
   174   174   171    1
   175   173   172    2
   176   172   171    1
   177   171   170    1
