@<TRIPOS>MOLECULE
tmp/5y1xA00.pdb
 211 200 0 0 0
SMALL
GASTEIGER

@<TRIPOS>ATOM
      1  N         27.6480  -17.8250   15.8850 N.3   125  GLU125     -0.1301
      2  CA        28.3600  -16.5200   15.7290 C.3   125  GLU125      0.1252
      3  C         27.8780  -15.5030   16.7530 C.3   125  GLU125      0.2009
      4  O         26.5860  -15.4890   16.9830 O.3   125  GLU125     -0.2188
      5  CB        28.1010  -15.8830   14.3760 C.3   125  GLU125      0.0335
      6  CG        29.0980  -14.8010   14.0370 C.3   125  GLU125      0.1156
      7  CD        28.8840  -14.1520   12.6680 C.2   125  GLU125      0.3649
      8  OE1       28.2960  -14.7810   11.7720 O.co2 125  GLU125     -0.2457
      9  OE2       29.4600  -13.0800   12.4440 O.co2 125  GLU125     -0.2457
     10  N         17.5610  -14.4630   16.9080 N.3   264  ASN264     -0.1225
     11  CA        17.8330  -13.1150   17.4150 C.3   264  ASN264      0.1785
     12  C         18.0650  -12.1250   16.2780 C.2   264  ASN264      0.2597
     13  O         17.8980  -10.9360   16.5050 O.2   264  ASN264     -0.2718
     14  CB        19.0960  -13.1500   18.2400 C.3   264  ASN264      0.1169
     15  CG        18.8840  -13.7930   19.6020 C.2   264  ASN264      0.2627
     16  OD1       17.7850  -13.8330   20.0920 O.2   264  ASN264     -0.2716
     17  ND2       19.9530  -14.2210   20.2150 N.am  264  ASN264     -0.0877
     18  N         18.5670  -12.6130   15.1370 N.am  265  VAL265     -0.1966
     19  CA        18.8470  -11.7290   14.0200 C.3   265  VAL265      0.1727
     20  C         18.1580  -12.2890   12.7710 C.2   265  VAL265      0.2617
     21  O         17.1720  -13.0020   12.9060 O.2   265  VAL265     -0.2715
     22  CB        20.3960  -11.5630   13.8470 C.3   265  VAL265      0.0290
     23  CG1       20.9760  -10.9830   15.1200 C.3   265  VAL265      0.0023
     24  CG2       21.0540  -12.8640   13.4080 C.3   265  VAL265      0.0023
     25  N         18.5240  -11.8680   11.5880 N.am  266  GLY266     -0.1940
     26  CA        17.8360  -12.3210   10.4100 C.3   266  GLY266      0.2014
     27  C         18.0880  -13.7380    9.9450 C.2   266  GLY266      0.2639
     28  O         17.1720  -14.4260    9.5280 O.2   266  GLY266     -0.2714
     29  N         19.3590  -14.1280    9.9210 N.am  267  ALA267     -0.1963
     30  CA        19.7830  -15.4070    9.4780 C.3   267  ALA267      0.1728
     31  C         21.2790  -15.4960    9.6880 C.2   267  ALA267      0.2616
     32  O         21.8670  -14.5750   10.2000 O.2   267  ALA267     -0.2715
     33  CB        19.5230  -15.5500    7.9780 C.3   267  ALA267      0.0334
     34  N         21.8590  -16.6750    9.3530 N.am  268  MET268     -0.1963
     35  CA        23.2450  -17.0350    9.6440 C.3   268  MET268      0.1736
     36  C         23.7820  -17.9570    8.5700 C.2   268  MET268      0.2616
     37  O         23.0890  -18.8380    8.1770 O.2   268  MET268     -0.2715
     38  CB        23.3010  -17.7770   10.9830 C.3   268  MET268      0.0427
     39  CG        24.7290  -18.2370   11.3400 C.3   268  MET268      0.0599
     40  SD        25.8620  -16.9150   11.5800 S.3   268  MET268     -0.1393
     41  CE        27.3680  -17.6820   11.0250 C.3   268  MET268      0.0692
     42  N         25.0360  -17.7730    8.1990 N.am  269  GLU269     -0.1977
     43  CA        25.6270  -18.3580    7.0130 C.3   269  GLU269      0.1602
     44  C         26.3600  -19.6650    7.2890 C.2   269  GLU269      0.2287
     45  O         27.4260  -19.8630    6.6640 O.2   269  GLU269     -0.2864
     46  CB        26.6050  -17.3610    6.3420 C.3   269  GLU269      0.0415
     47  CG        27.8760  -16.9610    7.1590 C.3   269  GLU269      0.1163
     48  CD        27.7790  -15.7080    8.0460 C.2   269  GLU269      0.3649
     49  OE1       26.6650  -15.3390    8.4730 O.co2 269  GLU269     -0.2457
     50  OE2       28.8510  -15.1230    8.3420 O.co2 269  GLU269     -0.2457
     51  N         15.8540  -16.7270   10.6040 N.3   277  ASN277     -0.1240
     52  CA        14.6220  -16.3060   11.1760 C.3   277  ASN277      0.1653
     53  C         13.5170  -16.5930   10.2020 C.2   277  ASN277      0.2266
     54  O         13.5770  -16.2120    9.0060 O.2   277  ASN277     -0.2867
     55  CB        14.6930  -14.7930   11.4810 C.3   277  ASN277      0.1155
     56  CG        13.5610  -14.2260   12.2690 C.2   277  ASN277      0.2627
     57  OD1       12.4080  -14.6060   12.1230 O.2   277  ASN277     -0.2716
     58  ND2       13.8740  -13.2430   13.1090 N.am  277  ASN277     -0.0877
     59  N         10.8460  -15.2290    9.5920 N.3   279  ASN279     -0.1296
     60  CA        10.4050  -13.9910    8.9250 C.3   279  ASN279      0.1339
     61  C         11.2240  -13.5600    7.7810 C.3   279  ASN279      0.2014
     62  O         10.7520  -12.5930    7.0530 O.3   279  ASN279     -0.2188
     63  CB        10.1450  -12.8200    9.9120 C.3   279  ASN279      0.1102
     64  CG        11.3980  -12.1550   10.4470 C.2   279  ASN279      0.2623
     65  OD1       12.4550  -12.3040    9.9480 O.2   279  ASN279     -0.2716
     66  ND2       11.2130  -11.3700   11.4830 N.am  279  ASN279     -0.0877
     67  N         12.5420   -8.8710    1.4130 N.3   295  ARG295     -0.1245
     68  CA        13.2640   -9.3290    2.6190 C.3   295  ARG295      0.1563
     69  C         13.9490  -10.6810    2.4340 C.2   295  ARG295      0.2260
     70  O         15.1750  -10.8530    2.6910 O.2   295  ARG295     -0.2867
     71  CB        12.4210   -9.2780    3.8920 C.3   295  ARG295      0.0307
     72  CG        13.1530   -9.8680    5.0900 C.3   295  ARG295      0.0489
     73  CD        14.3020   -8.9400    5.5570 C.3   295  ARG295      0.2205
     74  NE        14.8510   -9.4230    6.8480 N.pl3 295  ARG295     -0.0865
     75  CZ        15.8700   -8.7970    7.4770 C.cat 295  ARG295      0.5346
     76  NH1       16.3330   -9.2480    8.6390 N.pl3 295  ARG295      0.1354
     77  NH2       16.4220   -7.7160    6.9200 N.pl3 295  ARG295      0.1354
     78  N         16.7590  -10.5260   -0.1580 N.3   298  THR298     -0.1203
     79  CA        17.9160   -9.9310    0.5130 C.3   298  THR298      0.1994
     80  C         18.6160  -10.9370    1.4560 C.2   298  THR298      0.2617
     81  O         19.8650  -11.0720    1.4210 O.2   298  THR298     -0.2717
     82  CB        17.4390   -8.7070    1.3060 C.3   298  THR298      0.1784
     83  OG1       17.2300   -7.6150    0.3700 O.3   298  THR298     -0.2211
     84  CG2       18.4440   -8.2630    2.2830 C.3   298  THR298      0.0376
     85  N         17.8700  -11.6240    2.2840 N.am  299  VAL299     -0.1979
     86  CA        18.5400  -12.4110    3.3260 C.3   299  VAL299      0.1595
     87  C         19.1060  -13.7480    2.7710 C.2   299  VAL299      0.2287
     88  O         20.2680  -14.0950    3.1000 O.2   299  VAL299     -0.2864
     89  CB        17.6430  -12.6100    4.5670 C.3   299  VAL299      0.0276
     90  CG1       18.3680  -13.4150    5.6250 C.3   299  VAL299      0.0022
     91  CG2       17.2240  -11.2310    5.1430 C.3   299  VAL299      0.0022
     92  N         22.1510  -12.5760    0.9090 N.3   302  HIS302     -0.1226
     93  CA        23.1990  -12.2220    1.8480 C.3   302  HIS302      0.1752
     94  C         23.8550  -13.5260    2.3810 C.2   302  HIS302      0.2595
     95  O         25.1630  -13.6670    2.3470 O.2   302  HIS302     -0.2718
     96  CB        22.6230  -11.4060    2.9630 C.3   302  HIS302      0.0759
     97  CG        23.6050  -10.9480    3.9620 C.ar  302  HIS302      0.0818
     98  ND1       24.0060   -9.6240    4.0740 N.ar  302  HIS302     -0.2268
     99  CD2       24.1230  -11.5780    5.0360 C.ar  302  HIS302      0.1154
    100  CE1       24.8230   -9.5100    5.0880 C.ar  302  HIS302      0.1986
    101  NE2       24.9340  -10.6770    5.6760 N.ar  302  HIS302     -0.2212
    102  N         23.0560  -14.4700    2.8420 N.am  303  GLU303     -0.1979
    103  CA        23.7260  -15.6250    3.4870 C.3   303  GLU303      0.1602
    104  C         24.4430  -16.4970    2.4410 C.2   303  GLU303      0.2287
    105  O         25.5060  -17.0420    2.7320 O.2   303  GLU303     -0.2864
    106  CB        22.7370  -16.5140    4.2880 C.3   303  GLU303      0.0415
    107  CG        21.9160  -15.7140    5.2980 C.3   303  GLU303      0.1163
    108  CD        22.7210  -14.9700    6.3380 C.2   303  GLU303      0.3649
    109  OE1       23.9950  -15.2100    6.5510 O.co2 303  GLU303     -0.2457
    110  OE2       22.1240  -14.0600    6.9580 O.co2 303  GLU303     -0.2457
    111  N         27.8600  -14.9040    1.5910 N.3   306  HIS306     -0.1241
    112  CA        28.8460  -15.1980    2.6060 C.3   306  HIS306      0.1621
    113  C         29.6750  -16.4830    2.3520 C.2   306  HIS306      0.2264
    114  O         30.8190  -16.5920    2.8890 O.2   306  HIS306     -0.2867
    115  CB        28.2700  -15.3770    3.9580 C.3   306  HIS306      0.0745
    116  CG        28.0740  -14.1170    4.7450 C.ar  306  HIS306      0.0817
    117  ND1       29.0960  -13.2770    5.0820 N.ar  306  HIS306     -0.2268
    118  CD2       27.0080  -13.7020    5.4280 C.ar  306  HIS306      0.1154
    119  CE1       28.6570  -12.3600    5.9220 C.ar  306  HIS306      0.1986
    120  NE2       27.3540  -12.5860    6.1120 N.ar  306  HIS306     -0.2212
    121  N         30.9680   -8.5550    6.5700 N.3   325  GLU325     -0.1245
    122  CA        29.5820   -8.0020    6.5570 C.3   325  GLU325      0.1567
    123  C         29.3930   -6.8280    5.5890 C.2   325  GLU325      0.2260
    124  O         28.4040   -6.8320    4.7800 O.2   325  GLU325     -0.2867
    125  CB        29.0830   -7.6000    7.9440 C.3   325  GLU325      0.0388
    126  CG        29.0140   -8.7470    8.8950 C.3   325  GLU325      0.1160
    127  CD        28.0950   -9.8890    8.4530 C.2   325  GLU325      0.3649
    128  OE1       27.2440   -9.7270    7.5340 O.co2 325  GLU325     -0.2457
    129  OE2       28.2280  -10.9990    9.0380 O.co2 325  GLU325     -0.2457
    130  N         27.0410   -7.2730    2.3680 N.3   329  VAL329     -0.1245
    131  CA        25.8970   -6.3990    2.1450 C.3   329  VAL329      0.1561
    132  C         25.9950   -5.7290    0.7270 C.2   329  VAL329      0.2260
    133  O         25.0530   -5.6640   -0.0060 O.2   329  VAL329     -0.2867
    134  CB        25.7130   -5.3340    3.2150 C.3   329  VAL329      0.0252
    135  CG1       24.5980   -4.3760    2.8680 C.3   329  VAL329      0.0019
    136  CG2       25.4160   -5.9380    4.5840 C.3   329  VAL329      0.0019
    137  N         25.0520   -8.2890   -1.8570 N.3   332  GLU332     -0.1301
    138  CA        23.6040   -8.4620   -1.8770 C.3   332  GLU332      0.1252
    139  C         22.9420   -7.2560   -2.5220 C.3   332  GLU332      0.2009
    140  O         21.8160   -7.3770   -3.1460 O.3   332  GLU332     -0.2188
    141  CB        23.0180   -8.7280   -0.4760 C.3   332  GLU332      0.0335
    142  CG        21.4930   -8.7510   -0.4050 C.3   332  GLU332      0.1156
    143  CD        20.8540   -7.3890   -0.2460 C.2   332  GLU332      0.3649
    144  OE1       21.4080   -6.5220    0.4370 O.co2 332  GLU332     -0.2457
    145  OE2       19.7270   -7.2050   -0.7580 O.co2 332  GLU332     -0.2457
    146  N         27.6780   -5.7090   15.8870 N.3   381  TYR381     -0.1227
    147  CA        26.9600   -6.0240   14.7110 C.3   381  TYR381      0.1736
    148  C         26.0270   -4.8550   14.4460 C.2   381  TYR381      0.2596
    149  O         24.7610   -4.9400   14.4670 O.2   381  TYR381     -0.2718
    150  CB        26.2250   -7.3510   14.7780 C.3   381  TYR381      0.0548
    151  CG        27.1980   -8.5230   14.7200 C.ar  381  TYR381     -0.0200
    152  CD1       28.0540   -8.8280   15.8090 C.ar  381  TYR381     -0.0009
    153  CD2       27.2780   -9.3340   13.6200 C.ar  381  TYR381     -0.0009
    154  CE1       28.9270   -9.8660   15.7770 C.ar  381  TYR381      0.0417
    155  CE2       28.2110  -10.3310   13.5730 C.ar  381  TYR381      0.0417
    156  CZ        29.0030  -10.6170   14.6650 C.ar  381  TYR381      0.1957
    157  OH        29.9460  -11.6430   14.6160 O.3   381  TYR381     -0.2866
    158  N         26.6580   -3.7860   13.9810 N.am  382  THR382     -0.1939
    159  CA        26.0170   -2.4630   13.8860 C.3   382  THR382      0.2028
    160  C         25.7340   -1.9510   12.5000 C.2   382  THR382      0.2642
    161  O         26.2460   -2.4470   11.5210 O.2   382  THR382     -0.2714
    162  CB        26.8870   -1.3610   14.4850 C.3   382  THR382      0.1808
    163  OG1       28.1850   -1.3020   13.8680 O.3   382  THR382     -0.2208
    164  CG2       27.1000   -1.6590   15.9900 C.3   382  THR382      0.0379
    165  N         24.8210   -0.9790   12.4310 N.am  383  THR383     -0.1950
    166  CA        24.5510   -0.3340   11.1290 C.3   383  THR383      0.1897
    167  C         25.7990    0.3150   10.5860 C.2   383  THR383      0.2313
    168  O         25.9510    0.3440    9.3520 O.2   383  THR383     -0.2863
    169  CB        23.4100    0.6620   11.2220 C.3   383  THR383      0.1794
    170  OG1       23.2080    1.3120    9.9720 O.3   383  THR383     -0.2208
    171  CG2       23.6890    1.6950   12.2330 C.3   383  THR383      0.0378
    172  N         27.7970   -2.8040    9.0760 N.3   386  TYR386     -0.1227
    173  CA        27.0830   -3.3220    7.9530 C.3   386  TYR386      0.1736
    174  C         26.8920   -2.2760    6.8230 C.2   386  TYR386      0.2595
    175  O         27.2730   -2.5700    5.6880 O.2   386  TYR386     -0.2718
    176  CB        25.6850   -3.8320    8.3980 C.3   386  TYR386      0.0548
    177  CG        25.7590   -5.2440    9.0100 C.ar  386  TYR386     -0.0200
    178  CD1       26.2610   -5.4530   10.2500 C.ar  386  TYR386     -0.0009
    179  CD2       25.1480   -6.2870    8.3620 C.ar  386  TYR386     -0.0009
    180  CE1       26.3270   -6.7160   10.7980 C.ar  386  TYR386      0.0417
    181  CE2       25.1170   -7.5510    8.9010 C.ar  386  TYR386      0.0417
    182  CZ        25.7580   -7.7890   10.0960 C.ar  386  TYR386      0.1957
    183  OH        25.7990   -9.0590   10.6290 O.3   386  TYR386     -0.2866
    184  N         26.2270   -1.1780    7.1810 N.am  387  ASP387     -0.1974
    185  CA        25.6810   -0.2100    6.2080 C.3   387  ASP387      0.1709
    186  C         26.7800    0.7700    5.7500 C.2   387  ASP387      0.2293
    187  O         26.9530    0.9430    4.5410 O.2   387  ASP387     -0.2864
    188  CB        24.3100    0.3510    6.6410 C.3   387  ASP387      0.1436
    189  CG        23.3470   -0.7590    6.9830 C.2   387  ASP387      0.3671
    190  OD1       23.1780   -1.6530    6.1350 O.co2 387  ASP387     -0.2456
    191  OD2       22.8340   -0.7170    8.1060 O.co2 387  ASP387     -0.2456
    192  N          9.6180   -7.6730   19.5960 N.3   803  ARG803     -0.1245
    193  CA        10.0340   -6.6190   18.7220 C.3   803  ARG803      0.1563
    194  C          8.8470   -6.0020   17.9710 C.2   803  ARG803      0.2260
    195  O          8.8010   -4.8210   17.7610 O.2   803  ARG803     -0.2867
    196  CB        11.0770   -7.0860   17.7620 C.3   803  ARG803      0.0307
    197  CG        12.4610   -7.2710   18.3980 C.3   803  ARG803      0.0489
    198  CD        13.5250   -7.5720   17.3680 C.3   803  ARG803      0.2205
    199  NE        13.3590   -8.9310   16.7510 N.pl3 803  ARG803     -0.0865
    200  CZ        14.2520   -9.9020   16.6140 C.cat 803  ARG803      0.5346
    201  NH1       13.8950  -11.0220   15.9200 N.pl3 803  ARG803      0.1354
    202  NH2       15.4810   -9.8320   17.1110 N.pl3 803  ARG803      0.1354
    203  N         18.8910   -4.7000   21.5720 N.3   844  GLN844     -0.1245
    204  CA        18.1370   -4.2450   20.3930 C.3   844  GLN844      0.1566
    205  C         16.9760   -3.2560   20.7230 C.2   844  GLN844      0.2260
    206  O         16.8000   -2.2410   20.0650 O.2   844  GLN844     -0.2867
    207  CB        17.5800   -5.4430   19.6120 C.3   844  GLN844      0.0367
    208  CG        18.5840   -6.2700   18.8770 C.3   844  GLN844      0.0905
    209  CD        18.0150   -7.5320   18.2570 C.2   844  GLN844      0.2608
    210  OE1       16.8190   -7.7230   18.2040 O.2   844  GLN844     -0.2717
    211  NE2       18.8850   -8.4070   17.8570 N.am  844  GLN844     -0.0878
@<TRIPOS>BOND
     1   140   139    1
     2   139   138    1
     3   138   137    1
     4   138   141    1
     5   145   143   ar
     6   141   142    1
     7   142   143    1
     8   143   144   ar
     9    78    79    1
    10   133   132    2
    11    83    82    1
    12    79    82    1
    13    79    80    1
    14   132   131    1
    15    92    93    1
    16    82    84    1
    17    67    68    1
    18    81    80    2
    19    80    85   am
    20   111   112    1
    21    93    94    1
    22    93    96    1
    23   131   130    1
    24   131   134    1
    25    85    86    1
    26    95    94    2
    27   113   112    1
    28   113   114    2
    29    94   102   am
    30    69    68    1
    31    69    70    2
    32   104   105    2
    33   104   103    1
    34   112   115    1
    35    68    71    1
    36    87    88    2
    37    87    86    1
    38   102   103    1
    39   135   134    1
    40    96    97    1
    41   134   136    1
    42    86    89    1
    43   103   106    1
    44    71    72    1
    45   115   116    1
    46    97    98   ar
    47    97    99   ar
    48    98   100   ar
    49   106   107    1
    50   187   186    2
    51    89    91    1
    52    89    90    1
    53   116   117   ar
    54   116   118   ar
    55   124   123    2
    56    99   101   ar
    57   117   119   ar
    58   100   101   ar
    59    72    73    1
    60   107   108    1
    61   118   120   ar
    62    73    74    1
    63   123   122    1
    64   175   174    2
    65   186   185    1
    66   119   120   ar
    67   190   189   ar
    68   185   188    1
    69   185   184    1
    70   108   109   ar
    71   108   110   ar
    72    46    43    1
    73    46    47    1
    74   122   121    1
    75   122   125    1
    76   188   189    1
    77    45    44    2
    78   174   184   am
    79   174   173    1
    80    74    75    2
    81    77    75    1
    82   189   191   ar
    83    43    44    1
    84    43    42    1
    85    62    61    1
    86    47    48    1
    87    75    76    1
    88   128   127   ar
    89    61    60    1
    90   125   126    1
    91   173   176    1
    92   173   172    1
    93    33    30    1
    94    48    50   ar
    95    48    49   ar
    96    37    36    2
    97    42    36   am
    98   179   181   ar
    99   179   177   ar
   100   176   177    1
   101   127   126    1
   102   127   129   ar
   103    36    35    1
   104   181   182   ar
   105    60    59    1
   106    60    63    1
   107    54    53    2
   108   177   178   ar
   109   168   167    2
   110    34    35    1
   111    34    31   am
   112    30    31    1
   113    30    29    1
   114    28    27    2
   115    35    38    1
   116    31    32    2
   117    63    64    1
   118    29    27   am
   119    27    26    1
   120    65    64    2
   121   170   169    1
   122   182   183    1
   123   182   180   ar
   124    53    52    1
   125   178   180   ar
   126    26    25    1
   127    64    66   am
   128   167   166    1
   129    51    52    1
   130    38    39    1
   131    41    40    1
   132   166   169    1
   133   166   165    1
   134    52    55    1
   135   169   171    1
   136    39    40    1
   137    55    56    1
   138   161   160    2
   139    25    20   am
   140     8     7   ar
   141    57    56    2
   142    56    58   am
   143   165   160   am
   144     9     7   ar
   145   160   159    1
   146     7     6    1
   147    20    21    2
   148    20    19    1
   149    24    22    1
   150   155   153   ar
   151   155   156   ar
   152   153   151   ar
   153    22    19    1
   154    22    23    1
   155   163   162    1
   156   159   158    1
   157   159   162    1
   158   158   148   am
   159    19    18    1
   160     6     5    1
   161     5     2    1
   162   148   149    2
   163   148   147    1
   164   162   164    1
   165   157   156    1
   166   156   154   ar
   167   147   150    1
   168   147   146    1
   169   151   150    1
   170   151   152   ar
   171    18    12   am
   172     2     1    1
   173     2     3    1
   174   154   152   ar
   175   201   200    1
   176    12    13    2
   177    12    11    1
   178   200   199    2
   179   200   202    1
   180   199   198    1
   181     3     4    1
   182    10    11    1
   183   198   197    1
   184    11    14    1
   185   195   194    2
   186   196   197    1
   187   196   193    1
   188   211   209   am
   189   194   193    1
   190   210   209    2
   191    14    15    1
   192   209   208    1
   193   193   192    1
   194   208   207    1
   195    15    16    2
   196    15    17   am
   197   207   204    1
   198   206   205    2
   199   204   205    1
   200   204   203    1
