@<TRIPOS>MOLECULE
tmp/5y1yA00.pdb
 118 115 0 0 0
SMALL
GASTEIGER

@<TRIPOS>ATOM
      1  N         -2.2930   -0.3730   -0.9710 N.3    39  TRP39      -0.1228
      2  CA        -2.0390   -1.6770   -1.5840 C.3    39  TRP39       0.1722
      3  C         -3.2880   -2.5030   -1.8830 C.2    39  TRP39       0.2437
      4  O         -3.2990   -3.1740   -2.9290 O.2    39  TRP39      -0.2733
      5  CB        -1.0590   -2.4920   -0.7200 C.3    39  TRP39       0.0563
      6  CG        -1.5440   -2.8050    0.6360 C.ar   39  TRP39       0.0003
      7  CD1       -1.3020   -2.0990    1.7730 C.ar   39  TRP39       0.0946
      8  CD2       -2.3520   -3.9250    1.0200 C.ar   39  TRP39       0.0152
      9  NE1       -1.9120   -2.7020    2.8450 N.ar   39  TRP39      -0.2442
     10  CE2       -2.5630   -3.8270    2.4100 C.ar   39  TRP39       0.0810
     11  CE3       -2.9180   -5.0010    0.3220 C.ar   39  TRP39       0.0012
     12  CZ2       -3.3220   -4.7590    3.1180 C.ar   39  TRP39       0.0191
     13  CZ3       -3.6710   -5.9280    1.0250 C.ar   39  TRP39       0.0001
     14  CH2       -3.8610   -5.8050    2.4080 C.ar   39  TRP39       0.0015
     15  N         -4.3520   -2.5160   -1.0630 N.am   40  PRO40      -0.2718
     16  CA        -5.5090   -3.3420   -1.4330 C.3    40  PRO40       0.1535
     17  C         -6.1980   -2.8620   -2.6840 C.2    40  PRO40       0.2598
     18  O         -6.9830   -3.6180   -3.2650 O.2    40  PRO40      -0.2715
     19  CB        -6.4430   -3.2210   -0.2230 C.3    40  PRO40       0.0310
     20  CG        -5.6020   -2.6960    0.8710 C.3    40  PRO40       0.0237
     21  CD        -4.6180   -1.8090    0.2040 C.3    40  PRO40       0.0939
     22  N         -5.9340   -1.6250   -3.1050 N.am   41  PHE41      -0.1974
     23  CA        -6.6580   -0.9830   -4.1910 C.3    41  PHE41       0.1639
     24  C         -5.8040   -0.7920   -5.4360 C.2    41  PHE41       0.2290
     25  O         -6.2390   -0.1200   -6.3840 O.2    41  PHE41      -0.2864
     26  CB        -7.2100    0.3510   -3.6810 C.3    41  PHE41       0.0560
     27  CG        -7.9510    0.2160   -2.3770 C.ar   41  PHE41      -0.0200
     28  CD1       -9.2550   -0.2520   -2.3570 C.ar   41  PHE41      -0.0042
     29  CD2       -7.3300    0.5040   -1.1710 C.ar   41  PHE41      -0.0042
     30  CE1       -9.9420   -0.4060   -1.1710 C.ar   41  PHE41      -0.0003
     31  CE2       -8.0130    0.3600    0.0310 C.ar   41  PHE41      -0.0003
     32  CZ        -9.3230   -0.1000    0.0340 C.ar   41  PHE41      -0.0000
     33  N         -4.8680   -3.0620   -7.5880 N.3    43  GLN43      -0.1245
     34  CA        -5.1730   -4.0690   -8.5950 C.3    43  GLN43       0.1566
     35  C         -6.6060   -4.5300   -8.3740 C.2    43  GLN43       0.2260
     36  O         -7.1740   -4.2890   -7.3050 O.2    43  GLN43      -0.2867
     37  CB        -4.1950   -5.2610   -8.5100 C.3    43  GLN43       0.0367
     38  CG        -4.1930   -5.9930   -7.1810 C.3    43  GLN43       0.0905
     39  CD        -3.5220   -5.1980   -6.0780 C.2    43  GLN43       0.2608
     40  OE1       -2.4380   -4.6500   -6.2680 O.2    43  GLN43      -0.2717
     41  NE2       -4.1700   -5.1210   -4.9250 N.am   43  GLN43      -0.0878
     42  N         -9.7430   -6.6200   -7.2360 N.3    45  VAL45      -0.1231
     43  CA        -9.9390   -7.5460   -6.1240 C.3    45  VAL45       0.1692
     44  C         -9.7910   -8.9690   -6.6400 C.2    45  VAL45       0.2592
     45  O        -10.4930   -9.3820   -7.5710 O.2    45  VAL45      -0.2718
     46  CB       -11.3050   -7.3360   -5.4650 C.3    45  VAL45       0.0266
     47  CG1      -11.5370   -8.3750   -4.3570 C.3    45  VAL45       0.0020
     48  CG2      -11.4100   -5.9440   -4.8940 C.3    45  VAL45       0.0020
     49  N         -8.8580   -9.7180   -6.0530 N.am   46  ASP46      -0.1974
     50  CA        -8.6450  -11.1250   -6.4040 C.3    46  ASP46       0.1709
     51  C         -9.4710  -11.9460   -5.4260 C.2    46  ASP46       0.2293
     52  O         -9.0020  -12.3400   -4.3640 O.2    46  ASP46      -0.2864
     53  CB        -7.1640  -11.4870   -6.3500 C.3    46  ASP46       0.1436
     54  CG        -6.8770  -12.8960   -6.8770 C.2    46  ASP46       0.3671
     55  OD1       -7.8090  -13.7220   -6.9870 O.co2  46  ASP46      -0.2456
     56  OD2       -5.7040  -13.1840   -7.1810 O.co2  46  ASP46      -0.2456
     57  N         -8.0970  -14.0810   -2.0390 N.3    50  LEU50      -0.1245
     58  CA        -8.6070  -13.6150   -0.7550 C.3    50  LEU50       0.1561
     59  C         -9.6650  -14.5330   -0.1580 C.2    50  LEU50       0.2260
     60  O        -10.1330  -14.2570    0.9520 O.2    50  LEU50      -0.2867
     61  CB        -9.1890  -12.2070   -0.9070 C.3    50  LEU50       0.0270
     62  CG        -8.2220  -11.1060   -1.3300 C.3    50  LEU50       0.0019
     63  CD1       -8.9920   -9.8760   -1.8110 C.3    50  LEU50       0.0001
     64  CD2       -7.2730  -10.7430   -0.1990 C.3    50  LEU50       0.0001
     65  N        -12.7770  -14.8660   -1.1060 N.3    52  LEU52      -0.1245
     66  CA       -14.0050  -14.0790   -1.0560 C.3    52  LEU52       0.1561
     67  C        -14.8640  -14.4720   -2.2510 C.2    52  LEU52       0.2260
     68  O        -15.0900  -13.6650   -3.1650 O.2    52  LEU52      -0.2867
     69  CB       -13.6990  -12.5830   -1.0660 C.3    52  LEU52       0.0270
     70  CG       -12.7840  -12.1120    0.0690 C.3    52  LEU52       0.0019
     71  CD1      -12.3320  -10.6830   -0.1730 C.3    52  LEU52       0.0001
     72  CD2      -13.4830  -12.2420    1.4210 C.3    52  LEU52       0.0001
     73  N        -17.5960  -12.0640   -3.4220 N.3    55  TYR55      -0.1241
     74  CA       -17.3240  -10.6700   -3.7710 C.3    55  TYR55       0.1605
     75  C        -18.0020  -10.2890   -5.0790 C.2    55  TYR55       0.2264
     76  O        -18.7920   -9.3400   -5.1310 O.2    55  TYR55      -0.2867
     77  CB       -15.8190  -10.4040   -3.8680 C.3    55  TYR55       0.0534
     78  CG       -15.5230   -8.9280   -4.0780 C.ar   55  TYR55      -0.0201
     79  CD1      -15.5520   -8.0360   -3.0050 C.ar   55  TYR55      -0.0009
     80  CD2      -15.2640   -8.4180   -5.3460 C.ar   55  TYR55      -0.0009
     81  CE1      -15.3050   -6.6740   -3.1860 C.ar   55  TYR55       0.0417
     82  CE2      -15.0090   -7.0450   -5.5400 C.ar   55  TYR55       0.0417
     83  CZ       -15.0320   -6.1820   -4.4520 C.ar   55  TYR55       0.1957
     84  OH       -14.7890   -4.8210   -4.6320 O.3    55  TYR55      -0.2866
     85  N        -16.1200   -0.8990   -1.9380 N.3    94  CYS94      -0.1235
     86  CA       -15.5390   -1.3160   -0.6660 C.3    94  CYS94       0.1677
     87  C        -16.5260   -1.1430    0.4860 C.2    94  CYS94       0.2270
     88  O        -16.6460   -2.0280    1.3470 O.2    94  CYS94      -0.2867
     89  CB       -14.2540   -0.5230   -0.4200 C.3    94  CYS94       0.0956
     90  SG       -13.2790   -1.0180    1.0250 S.3    94  CYS94      -0.0801
     91  N        -19.3730   -3.8810    0.0210 N.3    97  TYR97      -0.1227
     92  CA       -19.0260   -5.2590    0.3580 C.3    97  TYR97       0.1736
     93  C        -18.7080   -5.4240    1.8390 C.2    97  TYR97       0.2595
     94  O        -18.9590   -6.4930    2.4120 O.2    97  TYR97      -0.2718
     95  CB       -17.8360   -5.7440   -0.4590 C.3    97  TYR97       0.0548
     96  CG       -17.5130   -7.2020   -0.1760 C.ar   97  TYR97      -0.0200
     97  CD1      -18.3160   -8.2240   -0.6730 C.ar   97  TYR97      -0.0009
     98  CD2      -16.4230   -7.5490    0.6090 C.ar   97  TYR97      -0.0009
     99  CE1      -18.0340   -9.5660   -0.3970 C.ar   97  TYR97       0.0417
    100  CE2      -16.1310   -8.8730    0.8880 C.ar   97  TYR97       0.0417
    101  CZ       -16.9310   -9.8770    0.3760 C.ar   97  TYR97       0.1957
    102  OH       -16.6250  -11.1870    0.6780 O.3    97  TYR97      -0.2866
    103  N        -18.1410   -4.4030    2.4610 N.am   98  ASN98      -0.1974
    104  CA       -17.6550   -4.4920    3.8240 C.3    98  ASN98       0.1688
    105  C        -18.6000   -3.7510    4.7640 C.2    98  ASN98       0.2292
    106  O        -19.6960   -3.3380    4.3680 O.2    98  ASN98      -0.2864
    107  CB       -16.2180   -3.9830    3.8730 C.3    98  ASN98       0.1181
    108  CG       -15.2900   -4.8010    2.9800 C.2    98  ASN98       0.2629
    109  OD1      -14.8860   -5.9110    3.3440 O.2    98  ASN98      -0.2716
    110  ND2      -14.9580   -4.2600    1.7960 N.am   98  ASN98      -0.0877
    111  N        -10.4180   -2.8610    6.1480 N.3   104  ILE104     -0.1245
    112  CA       -10.3740   -2.4280    4.7530 C.3   104  ILE104      0.1561
    113  C        -11.1570   -1.1300    4.5590 C.2   104  ILE104      0.2260
    114  O        -10.7800   -0.2770    3.7430 O.2   104  ILE104     -0.2867
    115  CB       -10.8820   -3.5590    3.8300 C.3   104  ILE104      0.0252
    116  CG1      -10.7660   -3.1570    2.3560 C.3   104  ILE104      0.0019
    117  CG2      -12.2990   -3.9570    4.1770 C.3   104  ILE104      0.0019
    118  CD1       -9.3560   -3.2140    1.8350 C.3   104  ILE104      0.0001
@<TRIPOS>BOND
     1    34    37    1
     2    34    35    1
     3    34    33    1
     4    37    38    1
     5    35    36    2
     6    45    44    2
     7    42    43    1
     8    56    54   ar
     9    38    39    1
    10    55    54   ar
    11    54    53    1
    12    44    43    1
    13    44    49   am
    14    50    53    1
    15    50    49    1
    16    50    51    1
    17    25    24    2
    18    40    39    2
    19    43    46    1
    20    39    41   am
    21    82    80   ar
    22    82    83   ar
    23    46    48    1
    24    46    47    1
    25    24    23    1
    26    51    52    2
    27    80    78   ar
    28    76    75    2
    29    75    74    1
    30    84    83    1
    31    83    81   ar
    32    23    26    1
    33    23    22    1
    34    78    77    1
    35    78    79   ar
    36    77    74    1
    37    74    73    1
    38    26    27    1
    39    18    17    2
    40    81    79   ar
    41    68    67    2
    42    22    17   am
    43     4     3    2
    44    17    16    1
    45    27    28   ar
    46    27    29   ar
    47    28    30   ar
    48    67    66    1
    49    57    58    1
    50    85    86    1
    51     3     2    1
    52     3    15   am
    53    63    62    1
    54     2     1    1
    55     2     5    1
    56    16    15    1
    57    16    19    1
    58    62    61    1
    59    62    64    1
    60    30    32   ar
    61    29    31   ar
    62    65    66    1
    63    69    66    1
    64    69    70    1
    65    15    21    1
    66    61    58    1
    67    58    59    1
    68     5     6    1
    69    97    99   ar
    70    97    96   ar
    71    86    89    1
    72    86    87    1
    73    95    96    1
    74    95    92    1
    75    89    90    1
    76    99   101   ar
    77    19    20    1
    78    96    98   ar
    79    71    70    1
    80    59    60    2
    81    91    92    1
    82    31    32   ar
    83    70    72    1
    84    21    20    1
    85    11     8   ar
    86    11    13   ar
    87    92    93    1
    88   101   102    1
    89   101   100   ar
    90    87    88    2
    91    98   100   ar
    92     6     8   ar
    93     6     7   ar
    94     8    10   ar
    95    13    14   ar
    96     7     9   ar
    97   110   108   am
    98   118   116    1
    99    93    94    2
   100    93   103   am
   101   116   115    1
   102    14    12   ar
   103    10     9   ar
   104    10    12   ar
   105   103   104    1
   106   108   109    2
   107   108   107    1
   108   114   113    2
   109   104   107    1
   110   104   105    1
   111   115   117    1
   112   115   112    1
   113   106   105    2
   114   113   112    1
   115   112   111    1
