@<TRIPOS>MOLECULE
tmp/5y25A00.pdb
 186 174 0 0 0
SMALL
GASTEIGER

@<TRIPOS>ATOM
      1  N          5.0800   47.5170  -20.1720 N.3    22  LEU22      -0.1231
      2  CA         3.9360   48.3120  -19.7490 C.3    22  LEU22       0.1693
      3  C          2.6150   47.5870  -19.9520 C.2    22  LEU22       0.2592
      4  O          1.6020   47.9970  -19.3710 O.2    22  LEU22      -0.2718
      5  CB         3.9050   49.6530  -20.4950 C.3    22  LEU22       0.0284
      6  CG         4.8640   50.7630  -20.0430 C.3    22  LEU22       0.0019
      7  CD1        4.7800   51.9660  -20.9710 C.3    22  LEU22       0.0001
      8  CD2        4.5630   51.1770  -18.6200 C.3    22  LEU22       0.0001
      9  N          2.5970   46.5200  -20.7440 N.am   23  GLY23      -0.1957
     10  CA         1.3570   45.8090  -20.9710 C.3    23  GLY23       0.1869
     11  C          1.4520   44.7850  -22.0770 C.2    23  GLY23       0.2309
     12  O          1.3010   45.1220  -23.2540 O.2    23  GLY23      -0.2863
     13  N          3.9370   46.2980  -24.9170 N.3    30  VAL30      -0.1245
     14  CA         4.3210   47.7040  -24.8580 C.3    30  VAL30       0.1561
     15  C          5.3320   47.8740  -23.7350 C.2    30  VAL30       0.2260
     16  O          5.1120   47.3930  -22.6170 O.2    30  VAL30      -0.2867
     17  CB         3.1070   48.6240  -24.6380 C.3    30  VAL30       0.0252
     18  CG1        3.5490   50.0750  -24.6290 C.3    30  VAL30       0.0019
     19  CG2        2.0660   48.3910  -25.7090 C.3    30  VAL30       0.0019
     20  N          7.5730   55.0100  -25.3300 N.3    47  ALA47      -0.1245
     21  CA         6.9500   53.7000  -25.2730 C.3    47  ALA47       0.1562
     22  C          7.1620   53.0060  -26.6120 C.2    47  ALA47       0.2260
     23  O          7.2310   53.6570  -27.6590 O.2    47  ALA47      -0.2867
     24  CB         5.4580   53.7990  -24.9550 C.3    47  ALA47       0.0290
     25  N          6.0440   49.6190  -29.0140 N.3    49  LYS49      -0.1245
     26  CA         5.0260   48.5960  -29.2400 C.3    49  LYS49       0.1561
     27  C          5.5150   47.6240  -30.3050 C.2    49  LYS49       0.2260
     28  O          5.6670   48.0020  -31.4720 O.2    49  LYS49      -0.2867
     29  CB         3.6960   49.2160  -29.6580 C.3    49  LYS49       0.0271
     30  CG         2.5400   48.2500  -29.5270 C.3    49  LYS49       0.0035
     31  CD         1.6500   48.2430  -30.7520 C.3    49  LYS49       0.0206
     32  CE         0.6190   49.3420  -30.7060 C.3    49  LYS49       0.1093
     33  NZ        -0.4100   49.1440  -31.7640 N.3    49  LYS49      -0.1314
     34  N         -1.5560   51.7920  -39.1570 N.3    63  GLU63      -0.1245
     35  CA        -1.6920   52.5430  -37.9160 C.3    63  GLU63       0.1567
     36  C         -0.6010   53.5970  -37.8060 C.2    63  GLU63       0.2260
     37  O         -0.8730   54.7600  -37.4850 O.2    63  GLU63      -0.2867
     38  CB        -1.6460   51.5990  -36.7130 C.3    63  GLU63       0.0388
     39  CG        -1.8250   52.3100  -35.3650 C.3    63  GLU63       0.1160
     40  CD        -1.4550   51.4420  -34.1660 C.2    63  GLU63       0.3649
     41  OE1       -1.4010   50.2010  -34.3160 O.co2  63  GLU63      -0.2457
     42  OE2       -1.2140   52.0070  -33.0740 O.co2  63  GLU63      -0.2457
     43  N         -0.8000   57.7900  -37.2750 N.3    67  MET67      -0.1245
     44  CA        -0.2170   58.4340  -36.1030 C.3    67  MET67       0.1570
     45  C          1.0030   59.2760  -36.4370 C.2    67  MET67       0.2261
     46  O          1.5230   59.9660  -35.5520 O.2    67  MET67      -0.2867
     47  CB         0.1560   57.3890  -35.0520 C.3    67  MET67       0.0387
     48  CG        -0.9740   56.4340  -34.7440 C.3    67  MET67       0.0595
     49  SD        -1.0730   55.9610  -33.0110 S.3    67  MET67      -0.1393
     50  CE        -1.4140   57.5690  -32.2840 C.3    67  MET67       0.0692
     51  N          3.2330   59.8000  -33.3380 N.3    78  LEU78      -0.1245
     52  CA         4.2850   58.8210  -33.5510 C.3    78  LEU78       0.1561
     53  C          5.6290   59.5300  -33.6250 C.2    78  LEU78       0.2260
     54  O          5.7560   60.5790  -34.2630 O.2    78  LEU78      -0.2867
     55  CB         4.0290   58.0360  -34.8360 C.3    78  LEU78       0.0270
     56  CG         5.0400   56.9460  -35.1760 C.3    78  LEU78       0.0019
     57  CD1        5.0490   55.8820  -34.0960 C.3    78  LEU78       0.0001
     58  CD2        4.7220   56.3420  -36.5330 C.3    78  LEU78       0.0001
     59  N          6.8280   50.3920  -33.0930 N.3    89  LEU89      -0.1245
     60  CA         6.3420   51.7660  -33.0460 C.3    89  LEU89       0.1561
     61  C          6.9130   52.4720  -31.8250 C.2    89  LEU89       0.2260
     62  O          6.8800   51.9320  -30.7150 O.2    89  LEU89      -0.2867
     63  CB         4.8180   51.7930  -32.9980 C.3    89  LEU89       0.0270
     64  CG         4.1900   50.9970  -34.1310 C.3    89  LEU89       0.0019
     65  CD1        2.6920   50.8580  -33.9330 C.3    89  LEU89       0.0001
     66  CD2        4.5000   51.7070  -35.4200 C.3    89  LEU89       0.0001
     67  N          6.5880   55.7970  -29.6250 N.3    91  MET91      -0.1230
     68  CA         5.7560   56.9380  -29.2830 C.3    91  MET91       0.1702
     69  C          6.2630   57.6000  -28.0130 C.2    91  MET91       0.2592
     70  O          7.0140   57.0040  -27.2350 O.2    91  MET91      -0.2718
     71  CB         4.2960   56.5350  -29.0780 C.3    91  MET91       0.0401
     72  CG         3.6350   55.9140  -30.2760 C.3    91  MET91       0.0596
     73  SD         1.8610   56.1850  -30.2000 S.3    91  MET91      -0.1393
     74  CE         1.5410   56.0730  -28.4250 C.3    91  MET91       0.0692
     75  N          5.8290   58.8450  -27.8160 N.am   92  GLN92      -0.1966
     76  CA         6.1330   59.5670  -26.5880 C.3    92  GLN92       0.1733
     77  C          5.5630   58.8300  -25.3840 C.2    92  GLN92       0.2616
     78  O          4.4520   58.2930  -25.4330 O.2    92  GLN92      -0.2715
     79  CB         5.5590   60.9770  -26.6510 C.3    92  GLN92       0.0408
     80  CG         5.7580   61.7860  -25.3890 C.3    92  GLN92       0.0908
     81  CD         4.9490   63.0670  -25.3940 C.2    92  GLN92       0.2608
     82  OE1        3.7970   63.0870  -25.8340 O.2    92  GLN92      -0.2717
     83  NE2        5.5580   64.1510  -24.9240 N.am   92  GLN92      -0.0878
     84  N          6.3380   58.7960  -24.3020 N.am   93  LEU93      -0.1963
     85  CA         5.9320   58.0920  -23.0930 C.3    93  LEU93       0.1728
     86  C          4.9570   58.9580  -22.3120 C.2    93  LEU93       0.2616
     87  O          5.2710   60.1060  -21.9730 O.2    93  LEU93      -0.2715
     88  CB         7.1440   57.7410  -22.2310 C.3    93  LEU93       0.0311
     89  CG         6.8140   57.0780  -20.8880 C.3    93  LEU93       0.0022
     90  CD1        6.0480   55.7760  -21.1020 C.3    93  LEU93       0.0001
     91  CD2        8.0670   56.8300  -20.0760 C.3    93  LEU93       0.0001
     92  N          3.7780   58.4160  -22.0410 N.am   94  MET94      -0.1964
     93  CA         2.8110   59.0710  -21.1750 C.3    94  MET94       0.1722
     94  C          2.8950   58.4130  -19.8060 C.2    94  MET94       0.2458
     95  O          2.2150   57.4100  -19.5540 O.2    94  MET94      -0.2730
     96  CB         1.4080   58.9710  -21.7620 C.3    94  MET94       0.0427
     97  CG         1.3430   59.4580  -23.1860 C.3    94  MET94       0.0599
     98  SD         1.6570   61.2280  -23.3160 S.3    94  MET94      -0.1393
     99  CE        -0.0280   61.8300  -23.2650 C.3    94  MET94       0.0692
    100  N          3.7170   58.9520  -18.9010 N.am   95  PRO95      -0.2716
    101  CA         4.1100   58.1820  -17.7130 C.3    95  PRO95       0.1536
    102  C          2.9530   57.7010  -16.8530 C.2    95  PRO95       0.2599
    103  O          3.1180   56.6980  -16.1500 O.2    95  PRO95      -0.2715
    104  CB         5.0090   59.1620  -16.9500 C.3    95  PRO95       0.0310
    105  CG         5.5200   60.0880  -17.9970 C.3    95  PRO95       0.0237
    106  CD         4.3980   60.2560  -18.9620 C.3    95  PRO95       0.0939
    107  N          1.7850   58.3460  -16.8980 N.am   96  PHE96      -0.1960
    108  CA         0.6950   58.0110  -15.9850 C.3    96  PHE96       0.1771
    109  C         -0.3380   57.0630  -16.5720 C.2    96  PHE96       0.2620
    110  O         -1.1780   56.5530  -15.8230 O.2    96  PHE96      -0.2715
    111  CB        -0.0050   59.2810  -15.5060 C.3    96  PHE96       0.0574
    112  CG         0.8810   60.1790  -14.7180 C.ar   96  PHE96      -0.0200
    113  CD1        1.5700   61.2010  -15.3370 C.ar   96  PHE96      -0.0042
    114  CD2        1.0440   59.9850  -13.3590 C.ar   96  PHE96      -0.0042
    115  CE1        2.3990   62.0240  -14.6140 C.ar   96  PHE96      -0.0003
    116  CE2        1.8640   60.8000  -12.6340 C.ar   96  PHE96      -0.0003
    117  CZ         2.5430   61.8260  -13.2590 C.ar   96  PHE96      -0.0000
    118  N         -0.3100   56.8230  -17.8720 N.am   97  GLY97      -0.1940
    119  CA        -1.1330   55.7820  -18.4480 C.3    97  GLY97       0.2014
    120  C         -2.5150   56.2470  -18.8540 C.2    97  GLY97       0.2639
    121  O         -2.7990   57.4370  -19.0130 O.2    97  GLY97      -0.2714
    122  N         -3.3900   55.2660  -19.0350 N.am   98  CYS98      -0.1967
    123  CA        -4.7360   55.5590  -19.4890 C.3    98  CYS98       0.1712
    124  C         -5.4970   56.3270  -18.4200 C.2    98  CYS98       0.2296
    125  O         -5.3460   56.0760  -17.2200 O.2    98  CYS98      -0.2864
    126  CB        -5.4800   54.2770  -19.8470 C.3    98  CYS98       0.0983
    127  SG        -5.6170   53.0950  -18.4990 S.3    98  CYS98      -0.0798
    128  N         -8.6100   56.1820  -17.8010 N.3   100  LEU100     -0.1231
    129  CA        -9.6220   55.3580  -17.1410 C.3   100  LEU100      0.1693
    130  C         -9.0810   54.7150  -15.8700 C.2   100  LEU100      0.2592
    131  O         -9.7670   54.6840  -14.8430 O.2   100  LEU100     -0.2718
    132  CB       -10.1400   54.2900  -18.1000 C.3   100  LEU100      0.0284
    133  CG       -11.2400   53.3660  -17.5730 C.3   100  LEU100      0.0019
    134  CD1      -12.3110   54.1470  -16.8290 C.3   100  LEU100      0.0001
    135  CD2      -11.8650   52.6000  -18.7330 C.3   100  LEU100      0.0001
    136  N         -7.8580   54.1990  -15.9130 N.am  101  ASP101     -0.1974
    137  CA        -7.2590   53.6650  -14.7010 C.3   101  ASP101      0.1709
    138  C         -6.6530   54.7430  -13.8250 C.2   101  ASP101      0.2293
    139  O         -6.3090   54.4610  -12.6730 O.2   101  ASP101     -0.2864
    140  CB        -6.2020   52.6170  -15.0430 C.3   101  ASP101      0.1436
    141  CG        -6.7990   51.2290  -15.1960 C.2   101  ASP101      0.3671
    142  OD1       -7.1240   50.5930  -14.1600 O.co2 101  ASP101     -0.2456
    143  OD2       -6.9580   50.7840  -16.3530 O.co2 101  ASP101     -0.2456
    144  N         -7.8610   54.9180   -9.8360 N.3   105  GLU105     -0.1245
    145  CA        -6.8250   54.7450   -8.8300 C.3   105  GLU105      0.1567
    146  C         -6.4090   56.0530   -8.1700 C.2   105  GLU105      0.2260
    147  O         -5.4470   56.0620   -7.4000 O.2   105  GLU105     -0.2867
    148  CB        -5.6040   54.0490   -9.4500 C.3   105  GLU105      0.0388
    149  CG        -5.7500   52.5240   -9.5930 C.3   105  GLU105      0.1160
    150  CD        -5.0680   51.9740  -10.8440 C.2   105  GLU105      0.3649
    151  OE1       -5.7630   51.3660  -11.6870 O.co2 105  GLU105     -0.2457
    152  OE2       -3.8390   52.1470  -10.9880 O.co2 105  GLU105     -0.2457
    153  N        -10.1230   54.8170  -21.9160 N.3   142  ARG142     -0.1245
    154  CA        -8.9140   54.0110  -22.0580 C.3   142  ARG142      0.1563
    155  C         -8.0230   54.5160  -23.1910 C.2   142  ARG142      0.2260
    156  O         -6.7980   54.3540  -23.1340 O.2   142  ARG142     -0.2867
    157  CB        -9.2870   52.5430  -22.2810 C.3   142  ARG142      0.0307
    158  CG       -10.0740   52.2980  -23.5580 C.3   142  ARG142      0.0489
    159  CD       -10.6380   50.8850  -23.6170 C.3   142  ARG142      0.2205
    160  NE       -12.0830   50.9060  -23.8100 N.pl3 142  ARG142     -0.0865
    161  CZ       -12.6790   51.1670  -24.9720 C.cat 142  ARG142      0.5346
    162  NH1      -11.9480   51.4030  -26.0630 N.pl3 142  ARG142      0.1354
    163  NH2      -14.0090   51.1750  -25.0470 N.pl3 142  ARG142      0.1354
    164  N         -4.4560   59.1900  -22.7850 N.3   145  LEU145     -0.1245
    165  CA        -3.2390   58.9460  -22.0230 C.3   145  LEU145      0.1561
    166  C         -2.8190   60.1940  -21.2540 C.2   145  LEU145      0.2260
    167  O         -2.9590   61.3180  -21.7460 O.2   145  LEU145     -0.2867
    168  CB        -2.1010   58.4890  -22.9380 C.3   145  LEU145      0.0270
    169  CG        -2.2220   57.0680  -23.4890 C.3   145  LEU145      0.0019
    170  CD1       -1.1000   56.7700  -24.4530 C.3   145  LEU145      0.0001
    171  CD2       -2.2070   56.0780  -22.3500 C.3   145  LEU145      0.0001
    172  N         -5.3760   58.8690  -27.9550 N.3   155  THR155     -0.1203
    173  CA        -4.5960   57.8490  -28.6460 C.3   155  THR155      0.1994
    174  C         -5.5360   56.7910  -29.2190 C.2   155  THR155      0.2617
    175  O         -6.7630   56.9060  -29.1400 O.2   155  THR155     -0.2717
    176  CB        -3.5700   57.1990  -27.7050 C.3   155  THR155      0.1784
    177  OG1       -2.7020   56.3310  -28.4500 O.3   155  THR155     -0.2211
    178  CG2       -4.2730   56.3850  -26.6420 C.3   155  THR155      0.0376
    179  N         -4.9350   55.7580  -29.8130 N.am  156  ASP156     -0.1973
    180  CA        -5.6310   54.5720  -30.3190 C.3   156  ASP156      0.1709
    181  C         -6.7040   54.9320  -31.3510 C.2   156  ASP156      0.2293
    182  O         -7.8830   54.6050  -31.2090 O.2   156  ASP156     -0.2864
    183  CB        -6.2280   53.7590  -29.1670 C.3   156  ASP156      0.1436
    184  CG        -6.4150   52.2900  -29.5200 C.2   156  ASP156      0.3671
    185  OD1       -7.2480   51.9770  -30.4020 O.co2 156  ASP156     -0.2456
    186  OD2       -5.7270   51.4470  -28.9010 O.co2 156  ASP156     -0.2456
@<TRIPOS>BOND
     1    34    35    1
     2    35    36    1
     3    35    38    1
     4    36    37    2
     5    43    44    1
     6    38    39    1
     7    58    56    1
     8    45    44    1
     9    45    46    2
    10    44    47    1
    11    66    64    1
    12    39    40    1
    13    56    55    1
    14    56    57    1
    15    47    48    1
    16    55    52    1
    17    48    49    1
    18    41    40   ar
    19    54    53    2
    20    40    42   ar
    21    64    65    1
    22    64    63    1
    23    53    52    1
    24    52    51    1
    25    59    60    1
    26    60    63    1
    27    60    61    1
    28    49    50    1
    29    61    62    2
    30    33    32    1
    31    28    27    2
    32   181   182    2
    33   181   180    1
    34    31    32    1
    35    31    30    1
    36   185   184   ar
    37   180   179    1
    38   180   183    1
    39    27    26    1
    40    72    73    1
    41    72    71    1
    42    73    74    1
    43   179   174   am
    44    29    30    1
    45    29    26    1
    46    67    68    1
    47   184   183    1
    48   184   186   ar
    49    68    71    1
    50    68    69    1
    51    26    25    1
    52   174   175    2
    53   174   173    1
    54   173   172    1
    55   173   176    1
    56   177   176    1
    57    69    75   am
    58    69    70    2
    59    75    76    1
    60   176   178    1
    61    23    22    2
    62    79    76    1
    63    79    80    1
    64    22    21    1
    65    76    77    1
    66   162   161    1
    67    82    81    2
    68    19    17    1
    69    78    77    2
    70    81    80    1
    71    81    83   am
    72    77    84   am
    73    20    21    1
    74    21    24    1
    75   163   161    1
    76   161   160    2
    77    13    14    1
    78    14    17    1
    79    14    15    1
    80    17    18    1
    81   170   169    1
    82    84    85    1
    83   160   159    1
    84    15    16    2
    85   159   158    1
    86   158   157    1
    87   169   168    1
    88   169   171    1
    89    98    99    1
    90    98    97    1
    91    12    11    2
    92   155   156    2
    93   155   154    1
    94    97    96    1
    95    85    86    1
    96    85    88    1
    97   168   165    1
    98   164   165    1
    99    86    92   am
   100    86    87    2
   101   157   154    1
   102    88    89    1
   103    11    10    1
   104   154   153    1
   105    92    93    1
   106   165   166    1
   107    96    93    1
   108   167   166    2
   109    93    94    1
   110    90    89    1
   111     7     6    1
   112    10     9    1
   113    89    91    1
   114     9     3   am
   115     5     6    1
   116     5     2    1
   117     1     2    1
   118     6     8    1
   119     3     2    1
   120     3     4    2
   121   126   123    1
   122   126   127    1
   123    94    95    2
   124    94   100   am
   125   123   122    1
   126   123   124    1
   127   122   120   am
   128   121   120    2
   129   106   100    1
   130   106   105    1
   131   100   101    1
   132   120   119    1
   133   135   133    1
   134   119   118    1
   135   124   125    2
   136   132   133    1
   137   132   129    1
   138   105   104    1
   139   118   109   am
   140   128   129    1
   141   101   104    1
   142   101   102    1
   143   133   134    1
   144   129   130    1
   145   107   102   am
   146   107   108    1
   147   102   103    2
   148   109   108    1
   149   109   110    2
   150   143   141   ar
   151   108   111    1
   152   136   130   am
   153   136   137    1
   154   130   131    2
   155   111   112    1
   156   113   112   ar
   157   113   115   ar
   158   141   140    1
   159   141   142   ar
   160   140   137    1
   161   112   114   ar
   162   137   138    1
   163   115   117   ar
   164   138   139    2
   165   114   116   ar
   166   117   116   ar
   167   151   150   ar
   168   152   150   ar
   169   150   149    1
   170   144   145    1
   171   149   148    1
   172   148   145    1
   173   145   146    1
   174   146   147    2
