@<TRIPOS>MOLECULE
tmp/5y2bA07.pdb
 95 94 0 0 0
SMALL
GASTEIGER

@<TRIPOS>ATOM
      1  N        -10.0210    4.2590    8.5180 N.3   134  GLN134     -0.1231
      2  CA        -9.8320    5.5570    7.8750 C.3   134  GLN134      0.1698
      3  C         -9.0430    5.4280    6.5740 C.2   134  GLN134      0.2592
      4  O         -8.2140    6.2730    6.2460 O.2   134  GLN134     -0.2718
      5  CB        -9.1790    6.5220    8.8610 C.3   134  GLN134      0.0381
      6  CG       -10.1980    6.9290    9.9400 C.3   134  GLN134      0.0905
      7  CD        -9.7780    8.1650   10.7520 C.2   134  GLN134      0.2608
      8  OE1       -8.5920    8.4350   10.9300 O.2   134  GLN134     -0.2717
      9  NE2      -10.7580    8.9170   11.2400 N.am  134  GLN134     -0.0878
     10  N         -9.3290    4.3630    5.8290 N.am  135  VAL135     -0.1980
     11  CA        -8.8770    4.1260    4.4640 C.3   135  VAL135      0.1595
     12  C         -7.4540    3.5620    4.4660 C.2   135  VAL135      0.2287
     13  O         -6.9080    3.2670    3.4030 O.2   135  VAL135     -0.2864
     14  CB        -8.9870    5.3860    3.5700 C.3   135  VAL135      0.0276
     15  CG1       -8.8750    5.0220    2.0950 C.3   135  VAL135      0.0022
     16  CG2      -10.3300    6.0520    3.7470 C.3   135  VAL135      0.0022
     17  N        -14.3440    3.2200   -2.7110 N.3   173  ASN173     -0.1240
     18  CA       -12.9710    2.9550   -3.1180 C.3   173  ASN173      0.1653
     19  C        -12.7790    1.4460   -3.3550 C.2   173  ASN173      0.2266
     20  O        -12.8110    0.6390   -2.4090 O.2   173  ASN173     -0.2867
     21  CB       -12.0240    3.4950   -2.0440 C.3   173  ASN173      0.1155
     22  CG       -10.5280    3.3870   -2.4440 C.2   173  ASN173      0.2627
     23  OD1      -10.1220    2.5540   -3.2730 O.2   173  ASN173     -0.2716
     24  ND2       -9.7180    4.2370   -1.8420 N.am  173  ASN173     -0.0877
     25  N        -10.3180   -0.3380   -3.5300 N.3   175  MET175     -0.1245
     26  CA        -9.3430   -1.0200   -2.6890 C.3   175  MET175      0.1570
     27  C         -9.9530   -1.3870   -1.3440 C.2   175  MET175      0.2261
     28  O         -9.6670   -2.4560   -0.7890 O.2   175  MET175     -0.2867
     29  CB        -8.1070   -0.1310   -2.4980 C.3   175  MET175      0.0387
     30  CG        -7.1140   -0.6820   -1.4830 C.3   175  MET175      0.0595
     31  SD        -5.8190    0.5120   -0.9920 S.3   175  MET175     -0.1393
     32  CE        -6.8240    1.7570   -0.1470 C.3   175  MET175      0.0692
     33  N        -16.0070   12.5040   -1.8550 N.3   199  ASP199     -0.1225
     34  CA       -14.6830   12.5350   -1.2100 C.3   199  ASP199      0.1805
     35  C        -13.6560   11.6730   -1.9590 C.2   199  ASP199      0.2598
     36  O        -12.7440   11.0720   -1.3600 O.2   199  ASP199     -0.2718
     37  CB       -14.7820   12.1160    0.2540 C.3   199  ASP199      0.1424
     38  CG       -15.3660   13.2300    1.1500 C.2   199  ASP199      0.3668
     39  OD1      -15.5450   14.3930    0.6990 O.co2 199  ASP199     -0.2456
     40  OD2      -15.6530   12.9230    2.3210 O.co2 199  ASP199     -0.2456
     41  N        -13.8360   11.5830   -3.2770 N.am  200  TYR200     -0.1962
     42  CA       -12.8260   11.0020   -4.1520 C.3   200  TYR200      0.1771
     43  C        -11.5520   11.8340   -4.1710 C.2   200  TYR200      0.2619
     44  O        -10.4740   11.2820   -4.4010 O.2   200  TYR200     -0.2715
     45  CB       -13.3600   10.8890   -5.5780 C.3   200  TYR200      0.0574
     46  CG       -14.3930    9.7870   -5.7930 C.ar  200  TYR200     -0.0198
     47  CD1      -14.0160    8.4540   -5.8470 C.ar  200  TYR200     -0.0009
     48  CD2      -15.7300   10.0960   -5.9880 C.ar  200  TYR200     -0.0009
     49  CE1      -14.9460    7.4550   -6.0870 C.ar  200  TYR200      0.0417
     50  CE2      -16.6730    9.1080   -6.2260 C.ar  200  TYR200      0.0417
     51  CZ       -16.2650    7.7810   -6.2670 C.ar  200  TYR200      0.1957
     52  OH       -17.1820    6.8000   -6.5080 O.3   200  TYR200     -0.2866
     53  N        -11.6600   13.1590   -3.9880 N.am  201  HIS201     -0.1973
     54  CA       -10.5180   14.0640   -4.0970 C.3   201  HIS201      0.1656
     55  C        -10.6430   15.1430   -3.0370 C.2   201  HIS201      0.2291
     56  O        -11.7460   15.4420   -2.5700 O.2   201  HIS201     -0.2864
     57  CB       -10.3910   14.6930   -5.5100 C.3   201  HIS201      0.0771
     58  CG       -10.1480   13.6780   -6.5830 C.ar  201  HIS201      0.0820
     59  ND1       -8.9730   12.9490   -6.6700 N.ar  201  HIS201     -0.2267
     60  CD2      -10.9600   13.2040   -7.5600 C.ar  201  HIS201      0.1154
     61  CE1       -9.0670   12.0940   -7.6710 C.ar  201  HIS201      0.1986
     62  NE2      -10.2640   12.2200   -8.2200 N.ar  201  HIS201     -0.2212
     63  N         -5.7970   15.9780    0.8150 N.3   204  TRP204     -0.1227
     64  CA        -4.8450   14.8770    0.9640 C.3   204  TRP204      0.1737
     65  C         -4.1550   14.5330   -0.3590 C.2   204  TRP204      0.2595
     66  O         -3.0450   14.0140   -0.3430 O.2   204  TRP204     -0.2718
     67  CB        -5.5650   13.6400    1.5340 C.3   204  TRP204      0.0564
     68  CG        -6.7880   13.2590    0.6930 C.ar  204  TRP204      0.0003
     69  CD1       -6.7950   12.4950   -0.4270 C.ar  204  TRP204      0.0946
     70  CD2       -8.1450   13.6950    0.8870 C.ar  204  TRP204      0.0152
     71  NE1       -8.0670   12.4160   -0.9450 N.ar  204  TRP204     -0.2442
     72  CE2       -8.9170   13.1330   -0.1540 C.ar  204  TRP204      0.0810
     73  CE3       -8.7790   14.4790    1.8480 C.ar  204  TRP204      0.0012
     74  CZ2      -10.2900   13.3350   -0.2700 C.ar  204  TRP204      0.0191
     75  CZ3      -10.1450   14.6880    1.7280 C.ar  204  TRP204      0.0001
     76  CH2      -10.8880   14.1070    0.6710 C.ar  204  TRP204      0.0015
     77  N         -4.7820   14.8330   -1.5000 N.am  205  ASP205     -0.1974
     78  CA        -4.2060   14.5800   -2.8170 C.3   205  ASP205      0.1709
     79  C         -3.0080   15.4790   -3.1470 C.2   205  ASP205      0.2293
     80  O         -2.2790   15.1750   -4.1040 O.2   205  ASP205     -0.2864
     81  CB        -5.2660   14.7690   -3.9130 C.3   205  ASP205      0.1436
     82  CG        -6.2680   13.5920   -4.0100 C.2   205  ASP205      0.3671
     83  OD1       -5.9340   12.4690   -3.5740 O.co2 205  ASP205     -0.2456
     84  OD2       -7.3870   13.7890   -4.5500 O.co2 205  ASP205     -0.2456
     85  N        -11.8600    6.2120   -9.7970 N.3   225  PHE225     -0.1241
     86  CA       -12.3380    7.2030   -8.8170 C.3   225  PHE225      0.1605
     87  C        -13.4350    8.0850   -9.4100 C.2   225  PHE225      0.2264
     88  O        -13.2770    9.2870   -9.5850 O.2   225  PHE225     -0.2867
     89  CB       -11.1800    8.0570   -8.2970 C.3   225  PHE225      0.0534
     90  CG       -10.3250    7.3740   -7.2360 C.ar  225  PHE225     -0.0203
     91  CD1      -10.7170    6.1830   -6.6550 C.ar  225  PHE225     -0.0042
     92  CD2       -9.1200    7.9410   -6.8270 C.ar  225  PHE225     -0.0042
     93  CE1       -9.9280    5.5560   -5.6810 C.ar  225  PHE225     -0.0003
     94  CE2       -8.3130    7.3220   -5.8580 C.ar  225  PHE225     -0.0003
     95  CZ        -8.7240    6.1160   -5.2810 C.ar  225  PHE225     -0.0000
@<TRIPOS>BOND
     1    85    86    1
     2    88    87    2
     3    87    86    1
     4    86    89    1
     5    89    90    1
     6    62    61   ar
     7    62    60   ar
     8    61    59   ar
     9    60    58   ar
    10    90    92   ar
    11    90    91   ar
    12    92    94   ar
    13    59    58   ar
    14    91    93   ar
    15    58    57    1
    16    52    51    1
    17    51    50   ar
    18    51    49   ar
    19    50    48   ar
    20    49    47   ar
    21    48    46   ar
    22    94    95   ar
    23    47    46   ar
    24    46    45    1
    25    93    95   ar
    26    45    42    1
    27    57    54    1
    28    84    82   ar
    29    44    43    2
    30    43    42    1
    31    43    53   am
    32    42    41    1
    33    80    79    2
    34    54    53    1
    35    54    55    1
    36    82    81    1
    37    82    83   ar
    38    81    78    1
    39    25    26    1
    40    19    18    1
    41    19    20    2
    42    41    35   am
    43    23    22    2
    44    79    78    1
    45    18    17    1
    46    18    21    1
    47    55    56    2
    48    78    77    1
    49    26    29    1
    50    26    27    1
    51    29    30    1
    52    22    21    1
    53    22    24   am
    54    35    36    2
    55    35    34    1
    56    33    34    1
    57    77    65   am
    58    30    31    1
    59    27    28    2
    60    34    37    1
    61    31    32    1
    62    71    69   ar
    63    71    72   ar
    64    69    68   ar
    65    65    66    2
    66    65    64    1
    67    74    72   ar
    68    74    76   ar
    69    72    70   ar
    70    37    38    1
    71    76    75   ar
    72    68    70   ar
    73    68    67    1
    74    39    38   ar
    75    63    64    1
    76    70    73   ar
    77    64    67    1
    78    38    40   ar
    79    75    73   ar
    80    15    14    1
    81    13    12    2
    82    14    16    1
    83    14    11    1
    84    11    12    1
    85    11    10    1
    86    10     3   am
    87     4     3    2
    88     3     2    1
    89     2     1    1
    90     2     5    1
    91     5     6    1
    92     6     7    1
    93     7     8    2
    94     7     9   am
