@<TRIPOS>MOLECULE
tmp/5y2bA03.pdb
 136 135 0 0 0
SMALL
GASTEIGER

@<TRIPOS>ATOM
      1  N        -24.2040   17.7830   15.1180 N.3    16  TRP16      -0.1241
      2  CA       -23.3050   18.8880   15.4280 C.3    16  TRP16       0.1605
      3  C        -23.5640   20.1360   14.5890 C.2    16  TRP16       0.2264
      4  O        -22.9290   21.1800   14.8320 O.2    16  TRP16      -0.2867
      5  CB       -21.8450   18.4410   15.2590 C.3    16  TRP16       0.0550
      6  CG       -21.4940   18.0750   13.8610 C.ar   16  TRP16       0.0003
      7  CD1      -21.0060   18.9150   12.8890 C.ar   16  TRP16       0.0946
      8  CD2      -21.6100   16.7690   13.2420 C.ar   16  TRP16       0.0152
      9  NE1      -20.7980   18.2170   11.7320 N.ar   16  TRP16      -0.2442
     10  CE2      -21.1510   16.9040   11.9120 C.ar   16  TRP16       0.0810
     11  CE3      -22.0260   15.5030   13.6940 C.ar   16  TRP16       0.0012
     12  CZ2      -21.1060   15.8280   11.0220 C.ar   16  TRP16       0.0191
     13  CZ3      -21.9810   14.4300   12.8090 C.ar   16  TRP16       0.0001
     14  CH2      -21.5200   14.6040   11.4810 C.ar   16  TRP16       0.0015
     15  N        -23.3890   26.0120   15.2270 N.3    20  ARG20      -0.1245
     16  CA       -22.9490   26.8380   14.1160 C.3    20  ARG20       0.1563
     17  C        -23.5450   28.2310   14.2940 C.2    20  ARG20       0.2260
     18  O        -24.6760   28.3570   14.7940 O.2    20  ARG20      -0.2867
     19  CB       -23.3480   26.2530   12.7350 C.3    20  ARG20       0.0307
     20  CG       -22.4290   25.0890   12.3200 C.3    20  ARG20       0.0489
     21  CD       -22.8490   24.4300   11.0140 C.3    20  ARG20       0.2205
     22  NE       -22.0410   23.2450   10.7890 N.pl3  20  ARG20      -0.0865
     23  CZ       -22.3300   22.2670    9.9400 C.cat  20  ARG20       0.5346
     24  NH1      -23.4160   22.3340    9.1760 N.pl3  20  ARG20       0.1354
     25  NH2      -21.5000   21.2200    9.8510 N.pl3  20  ARG20       0.1354
     26  N        -24.3770   11.2640   14.7880 N.3    43  PHE43      -0.1241
     27  CA       -23.9090    9.8930   14.8320 C.3    43  PHE43       0.1605
     28  C        -24.0320    9.4640   16.2920 C.2    43  PHE43       0.2264
     29  O        -23.7850   10.2860   17.1850 O.2    43  PHE43      -0.2867
     30  CB       -22.4220    9.7650   14.4000 C.3    43  PHE43       0.0534
     31  CG       -22.2050    9.7150   12.9090 C.ar   43  PHE43      -0.0203
     32  CD1      -22.6570    8.6470   12.1650 C.ar   43  PHE43      -0.0042
     33  CD2      -21.5240   10.7450   12.2570 C.ar   43  PHE43      -0.0042
     34  CE1      -22.4910    8.6120   10.7940 C.ar   43  PHE43      -0.0003
     35  CE2      -21.3230   10.7140   10.8960 C.ar   43  PHE43      -0.0003
     36  CZ       -21.8090    9.6470   10.1560 C.ar   43  PHE43      -0.0000
     37  N        -21.1700    5.3200   14.1990 N.3    84  GLY84      -0.1210
     38  CA       -19.8210    5.4040   13.6920 C.3    84  GLY84       0.1956
     39  C        -19.4840    6.7550   13.1140 C.2    84  GLY84       0.2612
     40  O        -19.4590    7.7510   13.8420 O.2    84  GLY84      -0.2717
     41  N        -19.2230    6.8020   11.8030 N.am   85  GLY85      -0.1942
     42  CA       -18.7390    8.0010   11.1510 C.3    85  GLY85       0.2014
     43  C        -17.2170    8.0630   11.1340 C.2    85  GLY85       0.2639
     44  O        -16.5290    7.3090   11.8070 O.2    85  GLY85      -0.2714
     45  N        -16.6900    9.0040   10.3480 N.am   86  TRP86      -0.1959
     46  CA       -15.2470    9.1270   10.1530 C.3    86  TRP86       0.1771
     47  C        -14.4860    9.2620   11.4730 C.2    86  TRP86       0.2620
     48  O        -13.5020    8.5570   11.7000 O.2    86  TRP86      -0.2715
     49  CB       -14.9390   10.3260    9.2600 C.3    86  TRP86       0.0590
     50  CG       -13.4620   10.4810    8.9720 C.ar   86  TRP86       0.0006
     51  CD1      -12.6250   11.4020    9.5070 C.ar   86  TRP86       0.0946
     52  CD2      -12.6540    9.6790    8.0850 C.ar   86  TRP86       0.0152
     53  NE1      -11.3540   11.2500    9.0020 N.ar   86  TRP86      -0.2442
     54  CE2      -11.3400   10.1960    8.1370 C.ar   86  TRP86       0.0810
     55  CE3      -12.9160    8.5850    7.2470 C.ar   86  TRP86       0.0012
     56  CZ2      -10.2840    9.6540    7.3950 C.ar   86  TRP86       0.0191
     57  CZ3      -11.8610    8.0530    6.4880 C.ar   86  TRP86       0.0001
     58  CH2      -10.5660    8.5890    6.5790 C.ar   86  TRP86       0.0015
     59  N        -14.8970   10.1940   12.3370 N.am   87  ASN87      -0.1958
     60  CA       -14.1200   10.4590   13.5490 C.3    87  ASN87       0.1819
     61  C        -14.1960    9.3010   14.5370 C.2    87  ASN87       0.2621
     62  O        -13.2310    9.0570   15.2720 O.2    87  ASN87      -0.2715
     63  CB       -14.6100   11.7380   14.2380 C.3    87  ASN87       0.1195
     64  CG       -14.1540   12.9960   13.5260 C.2    87  ASN87       0.2630
     65  OD1      -13.2730   12.9660   12.6580 O.2    87  ASN87      -0.2716
     66  ND2      -14.7430   14.1190   13.9010 N.am   87  ASN87      -0.0877
     67  N        -15.3300    8.5840   14.5930 N.am   88  ASP88      -0.1971
     68  CA       -15.3650    7.4350   15.4940 C.3    88  ASP88       0.1709
     69  C        -14.5540    6.2500   14.9730 C.2    88  ASP88       0.2293
     70  O        -14.3140    5.2960   15.7290 O.2    88  ASP88      -0.2864
     71  CB       -16.8140    6.9890   15.7800 C.3    88  ASP88       0.1436
     72  CG       -16.9510    6.3950   17.1720 C.2    88  ASP88       0.3671
     73  OD1      -16.3300    6.9700   18.1040 O.co2  88  ASP88      -0.2456
     74  OD2      -17.6400    5.3650   17.3370 O.co2  88  ASP88      -0.2456
     75  N        -16.0070   12.5040   -1.8550 N.3   199  ASP199     -0.1239
     76  CA       -14.6830   12.5350   -1.2100 C.3   199  ASP199      0.1674
     77  C        -13.6560   11.6730   -1.9590 C.2   199  ASP199      0.2266
     78  O        -12.7440   11.0720   -1.3600 O.2   199  ASP199     -0.2867
     79  CB       -14.7820   12.1160    0.2540 C.3   199  ASP199      0.1410
     80  CG       -15.3660   13.2300    1.1500 C.2   199  ASP199      0.3668
     81  OD1      -15.5450   14.3930    0.6990 O.co2 199  ASP199     -0.2456
     82  OD2      -15.6530   12.9230    2.3210 O.co2 199  ASP199     -0.2456
     83  N        -21.7770   19.6140   -0.3250 N.3   251  TYR251     -0.1241
     84  CA       -20.6610   20.4250    0.1410 C.3   251  TYR251      0.1605
     85  C        -19.5400   20.2620   -0.8730 C.2   251  TYR251      0.2264
     86  O        -19.6240   19.4710   -1.8380 O.2   251  TYR251     -0.2867
     87  CB       -20.1880   20.0090    1.5390 C.3   251  TYR251      0.0534
     88  CG       -19.6440   18.6070    1.4920 C.ar  251  TYR251     -0.0201
     89  CD1      -20.5000   17.5190    1.5290 C.ar  251  TYR251     -0.0009
     90  CD2      -18.2880   18.3720    1.3290 C.ar  251  TYR251     -0.0009
     91  CE1      -20.0300   16.2520    1.4420 C.ar  251  TYR251      0.0417
     92  CE2      -17.7960   17.1190    1.2410 C.ar  251  TYR251      0.0417
     93  CZ       -18.6660   16.0580    1.2880 C.ar  251  TYR251      0.1957
     94  OH       -18.1720   14.8110    1.2030 O.3   251  TYR251     -0.2866
     95  N        -15.1590   20.2040   -1.5830 N.3   253  GLN253     -0.1245
     96  CA       -13.8000   20.0770   -1.1020 C.3   253  GLN253      0.1566
     97  C        -13.0110   21.3340   -1.5050 C.2   253  GLN253      0.2260
     98  O        -13.0090   21.7350   -2.6680 O.2   253  GLN253     -0.2867
     99  CB       -13.1530   18.8020   -1.6690 C.3   253  GLN253      0.0367
    100  CG       -13.6110   17.4680   -1.0060 C.3   253  GLN253      0.0905
    101  CD       -13.1670   17.3180    0.4550 C.2   253  GLN253      0.2608
    102  OE1      -12.2400   17.9770    0.9000 O.2   253  GLN253     -0.2717
    103  NE2      -13.8410   16.4470    1.2010 N.am  253  GLN253     -0.0878
    104  N        -13.1470   21.9460    3.6870 N.3   284  PHE284     -0.1241
    105  CA       -14.4710   21.8490    3.0640 C.3   284  PHE284      0.1605
    106  C        -15.3330   23.0840    3.3150 C.2   284  PHE284      0.2264
    107  O        -15.0630   23.9110    4.1910 O.2   284  PHE284     -0.2867
    108  CB       -15.2210   20.5570    3.4700 C.3   284  PHE284      0.0534
    109  CG       -16.1070   20.6720    4.6940 C.ar  284  PHE284     -0.0203
    110  CD1      -15.5990   20.4140    5.9570 C.ar  284  PHE284     -0.0042
    111  CD2      -17.4700   20.9410    4.5680 C.ar  284  PHE284     -0.0042
    112  CE1      -16.4380   20.4920    7.0930 C.ar  284  PHE284     -0.0003
    113  CE2      -18.2900   21.0230    5.6640 C.ar  284  PHE284     -0.0003
    114  CZ       -17.7650   20.8080    6.9440 C.ar  284  PHE284     -0.0000
    115  N        -25.2780   13.6610    1.8070 N.3   346  TRP346     -0.1241
    116  CA       -24.5050   14.1280    2.9500 C.3   346  TRP346      0.1605
    117  C        -24.3300   15.6390    2.7710 C.2   346  TRP346      0.2264
    118  O        -23.5670   16.0690    1.8910 O.2   346  TRP346     -0.2867
    119  CB       -23.1230   13.4490    3.0260 C.3   346  TRP346      0.0550
    120  CG       -22.4410   13.9040    4.2610 C.ar  346  TRP346      0.0003
    121  CD1      -21.6760   15.0330    4.4200 C.ar  346  TRP346      0.0946
    122  CD2      -22.5950   13.3350    5.5600 C.ar  346  TRP346      0.0152
    123  NE1      -21.3050   15.1640    5.7350 N.ar  346  TRP346     -0.2442
    124  CE2      -21.8520   14.1330    6.4550 C.ar  346  TRP346      0.0810
    125  CE3      -23.2640   12.2060    6.0480 C.ar  346  TRP346      0.0012
    126  CZ2      -21.7610   13.8420    7.8050 C.ar  346  TRP346      0.0191
    127  CZ3      -23.1800   11.9270    7.3890 C.ar  346  TRP346      0.0001
    128  CH2      -22.4310   12.7340    8.2540 C.ar  346  TRP346      0.0015
    129  N        -25.9930   21.0810    5.0280 N.3   350  LEU350     -0.1245
    130  CA       -24.9620   21.6940    4.1960 C.3   350  LEU350      0.1561
    131  C        -25.5250   22.2630    2.8950 C.2   350  LEU350      0.2260
    132  O        -24.8670   23.1110    2.2730 O.2   350  LEU350     -0.2867
    133  CB       -23.8400   20.6830    3.8930 C.3   350  LEU350      0.0270
    134  CG       -23.1320   20.1480    5.1470 C.3   350  LEU350      0.0019
    135  CD1      -22.2280   18.9220    4.9300 C.3   350  LEU350      0.0001
    136  CD2      -22.3420   21.3170    5.8040 C.3   350  LEU350      0.0001
@<TRIPOS>BOND
     1    98    97    2
     2    77    78    2
     3    77    76    1
     4    75    76    1
     5    86    85    2
     6    99    96    1
     7    99   100    1
     8    95    96    1
     9    97    96    1
    10    76    79    1
    11   100   101    1
    12    85    84    1
    13    83    84    1
    14    84    87    1
    15    79    80    1
    16   101   102    2
    17   101   103   am
    18    81    80   ar
    19    80    82   ar
    20    94    93    1
    21    92    93   ar
    22    92    90   ar
    23    93    91   ar
    24    90    88   ar
    25    91    89   ar
    26    88    89   ar
    27    88    87    1
    28   115   116    1
    29   118   117    2
    30   132   131    2
    31   117   116    1
    32   131   130    1
    33   116   119    1
    34   119   120    1
    35   105   106    1
    36   105   108    1
    37   105   104    1
    38   106   107    2
    39   108   109    1
    40   133   130    1
    41   133   134    1
    42   130   129    1
    43   120   121   ar
    44   120   122   ar
    45   121   123   ar
    46   111   109   ar
    47   111   113   ar
    48   109   110   ar
    49   135   134    1
    50   134   136    1
    51   122   125   ar
    52   122   124   ar
    53   113   114   ar
    54   123   124   ar
    55   110   112   ar
    56   125   127   ar
    57   124   126   ar
    58    57    58   ar
    59    57    55   ar
    60    58    56   ar
    61   114   112   ar
    62    55    52   ar
    63   127   128   ar
    64    56    54   ar
    65   126   128   ar
    66    52    54   ar
    67    52    50   ar
    68    54    53   ar
    69    50    49    1
    70    50    51   ar
    71    53    51   ar
    72    24    23    1
    73    49    46    1
    74    25    23    1
    75    23    22    2
    76    46    45    1
    77    46    47    1
    78    36    34   ar
    79    36    35   ar
    80    45    43   am
    81    22    21    1
    82    34    32   ar
    83    35    33   ar
    84    21    20    1
    85    12    14   ar
    86    12    10   ar
    87    43    42    1
    88    43    44    2
    89    42    41    1
    90    47    48    2
    91    47    59   am
    92    14    13   ar
    93     9    10   ar
    94     9     7   ar
    95    41    39   am
    96    10     8   ar
    97    32    31   ar
    98    33    31   ar
    99    20    19    1
   100    59    60    1
   101    65    64    2
   102    19    16    1
   103    13    11   ar
   104     7     6   ar
   105    31    30    1
   106    39    38    1
   107    39    40    2
   108     8    11   ar
   109     8     6   ar
   110    64    66   am
   111    64    63    1
   112    60    63    1
   113    60    61    1
   114    38    37    1
   115     6     5    1
   116    16    17    1
   117    16    15    1
   118    17    18    2
   119    30    27    1
   120    61    67   am
   121    61    62    2
   122     3     4    2
   123     3     2    1
   124    67    68    1
   125    26    27    1
   126    27    28    1
   127    69    68    1
   128    69    70    2
   129     1     2    1
   130     5     2    1
   131    68    71    1
   132    71    72    1
   133    28    29    2
   134    72    74   ar
   135    72    73   ar
