@<TRIPOS>MOLECULE
tmp/5y2bA04.pdb
 139 139 0 0 0
SMALL
GASTEIGER

@<TRIPOS>ATOM
      1  N        -28.9760   12.3270    5.4750 N.3    12  TYR12      -0.1241
      2  CA       -28.2600   12.3430    6.7340 C.3    12  TYR12       0.1605
      3  C        -28.5560   13.6520    7.4760 C.2    12  TYR12       0.2264
      4  O        -28.4730   14.7530    6.8990 O.2    12  TYR12      -0.2867
      5  CB       -26.7580   12.1410    6.4690 C.3    12  TYR12       0.0534
      6  CG       -26.3980   10.6670    6.3530 C.ar   12  TYR12      -0.0201
      7  CD1      -26.4740    9.9980    5.1250 C.ar   12  TYR12      -0.0009
      8  CD2      -26.0560    9.9200    7.4940 C.ar   12  TYR12      -0.0009
      9  CE1      -26.1760    8.6290    5.0180 C.ar   12  TYR12       0.0417
     10  CE2      -25.7560    8.5730    7.4060 C.ar   12  TYR12       0.0417
     11  CZ       -25.8120    7.9310    6.1620 C.ar   12  TYR12       0.1957
     12  OH       -25.5150    6.5920    6.0840 O.3    12  TYR12      -0.2866
     13  N        -24.2040   17.7830   15.1180 N.3    16  TRP16      -0.1241
     14  CA       -23.3050   18.8880   15.4280 C.3    16  TRP16       0.1605
     15  C        -23.5640   20.1360   14.5890 C.2    16  TRP16       0.2264
     16  O        -22.9290   21.1800   14.8320 O.2    16  TRP16      -0.2867
     17  CB       -21.8450   18.4410   15.2590 C.3    16  TRP16       0.0550
     18  CG       -21.4940   18.0750   13.8610 C.ar   16  TRP16       0.0003
     19  CD1      -21.0060   18.9150   12.8890 C.ar   16  TRP16       0.0946
     20  CD2      -21.6100   16.7690   13.2420 C.ar   16  TRP16       0.0152
     21  NE1      -20.7980   18.2170   11.7320 N.ar   16  TRP16      -0.2442
     22  CE2      -21.1510   16.9040   11.9120 C.ar   16  TRP16       0.0810
     23  CE3      -22.0260   15.5030   13.6940 C.ar   16  TRP16       0.0012
     24  CZ2      -21.1060   15.8280   11.0220 C.ar   16  TRP16       0.0191
     25  CZ3      -21.9810   14.4300   12.8090 C.ar   16  TRP16       0.0001
     26  CH2      -21.5200   14.6040   11.4810 C.ar   16  TRP16       0.0015
     27  N        -24.3770   11.2640   14.7880 N.3    43  PHE43      -0.1241
     28  CA       -23.9090    9.8930   14.8320 C.3    43  PHE43       0.1605
     29  C        -24.0320    9.4640   16.2920 C.2    43  PHE43       0.2264
     30  O        -23.7850   10.2860   17.1850 O.2    43  PHE43      -0.2867
     31  CB       -22.4220    9.7650   14.4000 C.3    43  PHE43       0.0534
     32  CG       -22.2050    9.7150   12.9090 C.ar   43  PHE43      -0.0203
     33  CD1      -22.6570    8.6470   12.1650 C.ar   43  PHE43      -0.0042
     34  CD2      -21.5240   10.7450   12.2570 C.ar   43  PHE43      -0.0042
     35  CE1      -22.4910    8.6120   10.7940 C.ar   43  PHE43      -0.0003
     36  CE2      -21.3230   10.7140   10.8960 C.ar   43  PHE43      -0.0003
     37  CZ       -21.8090    9.6470   10.1560 C.ar   43  PHE43      -0.0000
     38  N        -16.6900    9.0040   10.3480 N.3    86  TRP86      -0.1241
     39  CA       -15.2470    9.1270   10.1530 C.3    86  TRP86       0.1605
     40  C        -14.4860    9.2620   11.4730 C.2    86  TRP86       0.2264
     41  O        -13.5020    8.5570   11.7000 O.2    86  TRP86      -0.2867
     42  CB       -14.9390   10.3260    9.2600 C.3    86  TRP86       0.0550
     43  CG       -13.4620   10.4810    8.9720 C.ar   86  TRP86       0.0003
     44  CD1      -12.6250   11.4020    9.5070 C.ar   86  TRP86       0.0946
     45  CD2      -12.6540    9.6790    8.0850 C.ar   86  TRP86       0.0152
     46  NE1      -11.3540   11.2500    9.0020 N.ar   86  TRP86      -0.2442
     47  CE2      -11.3400   10.1960    8.1370 C.ar   86  TRP86       0.0810
     48  CE3      -12.9160    8.5850    7.2470 C.ar   86  TRP86       0.0012
     49  CZ2      -10.2840    9.6540    7.3950 C.ar   86  TRP86       0.0191
     50  CZ3      -11.8610    8.0530    6.4880 C.ar   86  TRP86       0.0001
     51  CH2      -10.5660    8.5890    6.5790 C.ar   86  TRP86       0.0015
     52  N        -21.8860    2.8620   10.0450 N.3   126  ASP126     -0.1239
     53  CA       -20.9980    3.7570    9.3040 C.3   126  ASP126      0.1674
     54  C        -19.5700    3.6330    9.8140 C.2   126  ASP126      0.2266
     55  O        -18.9030    4.6180   10.1550 O.2   126  ASP126     -0.2867
     56  CB       -21.4960    5.1990    9.3480 C.3   126  ASP126      0.1410
     57  CG       -20.7620    6.0890    8.3110 C.2   126  ASP126      0.3668
     58  OD1      -19.8720    5.5600    7.5960 O.co2 126  ASP126     -0.2456
     59  OD2      -21.0570    7.3040    8.1880 O.co2 126  ASP126     -0.2456
     60  N        -15.8850    3.3350    9.1070 N.3   128  GLU128     -0.1231
     61  CA       -15.0280    3.7230    7.9870 C.3   128  GLU128      0.1699
     62  C        -13.5680    3.3740    8.2830 C.2   128  GLU128      0.2592
     63  O        -12.8120    4.2360    8.7360 O.2   128  GLU128     -0.2718
     64  CB       -15.2080    5.2670    7.6840 C.3   128  GLU128      0.0402
     65  CG       -16.6870    5.5860    7.4420 C.3   128  GLU128      0.1161
     66  CD       -16.9820    7.0120    7.0150 C.2   128  GLU128      0.3649
     67  OE1      -16.0810    7.8600    7.0290 O.co2 128  GLU128     -0.2457
     68  OE2      -18.1420    7.2730    6.6540 O.co2 128  GLU128     -0.2457
     69  N        -13.1430    2.1420    8.0020 N.am  129  TYR129     -0.1976
     70  CA       -13.9270    1.0690    7.3860 C.3   129  TYR129      0.1639
     71  C        -13.3580   -0.2400    7.9210 C.2   129  TYR129      0.2290
     72  O        -12.2320   -0.2420    8.4130 O.2   129  TYR129     -0.2864
     73  CB       -13.8170    1.0700    5.8530 C.3   129  TYR129      0.0560
     74  CG       -14.0240    2.3940    5.2200 C.ar  129  TYR129     -0.0198
     75  CD1      -12.9660    3.2830    5.0710 C.ar  129  TYR129     -0.0009
     76  CD2      -15.2970    2.7770    4.7750 C.ar  129  TYR129     -0.0009
     77  CE1      -13.1670    4.5170    4.5120 C.ar  129  TYR129      0.0417
     78  CE2      -15.5010    4.0070    4.1770 C.ar  129  TYR129      0.0417
     79  CZ       -14.4370    4.8650    4.0510 C.ar  129  TYR129      0.1957
     80  OH       -14.6390    6.0840    3.4780 O.3   129  TYR129     -0.2866
     81  N        -23.4180    2.7700    5.3370 N.3   169  ALA169     -0.1245
     82  CA       -22.7140    3.6740    4.4350 C.3   169  ALA169      0.1562
     83  C        -21.3460    3.0660    4.1540 C.2   169  ALA169      0.2260
     84  O        -20.6330    2.6850    5.0830 O.2   169  ALA169     -0.2867
     85  CB       -22.5800    5.0660    5.0550 C.3   169  ALA169      0.0290
     86  N        -20.9470    5.8610   -0.6070 N.3   196  MET196     -0.1245
     87  CA       -20.5020    7.2470   -0.4010 C.3   196  MET196      0.1570
     88  C        -19.6560    7.7100   -1.5940 C.2   196  MET196      0.2261
     89  O        -18.4350    7.8920   -1.5220 O.2   196  MET196     -0.2867
     90  CB       -19.7510    7.3740    0.9140 C.3   196  MET196      0.0387
     91  CG       -20.6110    7.0370    2.0990 C.3   196  MET196      0.0595
     92  SD       -19.7200    7.2330    3.6700 S.3   196  MET196     -0.1393
     93  CE       -18.6530    5.8430    3.6540 C.3   196  MET196      0.0692
     94  N        -18.4660   10.1360   -3.0480 N.3   198  TYR198     -0.1227
     95  CA       -17.9190   11.4800   -2.9420 C.3   198  TYR198      0.1736
     96  C        -16.6440   11.3620   -2.1230 C.2   198  TYR198      0.2595
     97  O        -16.2600   10.2620   -1.7130 O.2   198  TYR198     -0.2718
     98  CB       -18.9310   12.4510   -2.3170 C.3   198  TYR198      0.0548
     99  CG       -19.6690   11.9320   -1.1090 C.ar  198  TYR198     -0.0200
    100  CD1      -19.0260   11.7860    0.1150 C.ar  198  TYR198     -0.0009
    101  CD2      -21.0170   11.6100   -1.1810 C.ar  198  TYR198     -0.0009
    102  CE1      -19.6820   11.3070    1.2280 C.ar  198  TYR198      0.0417
    103  CE2      -21.6960   11.1350   -0.0590 C.ar  198  TYR198      0.0417
    104  CZ       -21.0050   10.9870    1.1330 C.ar  198  TYR198      0.1957
    105  OH       -21.6580   10.5340    2.2390 O.3   198  TYR198     -0.2866
    106  N        -16.0070   12.5040   -1.8550 N.am  199  ASP199     -0.1974
    107  CA       -14.6830   12.5350   -1.2100 C.3   199  ASP199      0.1709
    108  C        -13.6560   11.6730   -1.9590 C.2   199  ASP199      0.2293
    109  O        -12.7440   11.0720   -1.3600 O.2   199  ASP199     -0.2864
    110  CB       -14.7820   12.1160    0.2540 C.3   199  ASP199      0.1436
    111  CG       -15.3660   13.2300    1.1500 C.2   199  ASP199      0.3671
    112  OD1      -15.5450   14.3930    0.6990 O.co2 199  ASP199     -0.2456
    113  OD2      -15.6530   12.9230    2.3210 O.co2 199  ASP199     -0.2456
    114  N        -21.7770   19.6140   -0.3250 N.3   251  TYR251     -0.1241
    115  CA       -20.6610   20.4250    0.1410 C.3   251  TYR251      0.1605
    116  C        -19.5400   20.2620   -0.8730 C.2   251  TYR251      0.2264
    117  O        -19.6240   19.4710   -1.8380 O.2   251  TYR251     -0.2867
    118  CB       -20.1880   20.0090    1.5390 C.3   251  TYR251      0.0534
    119  CG       -19.6440   18.6070    1.4920 C.ar  251  TYR251     -0.0201
    120  CD1      -20.5000   17.5190    1.5290 C.ar  251  TYR251     -0.0009
    121  CD2      -18.2880   18.3720    1.3290 C.ar  251  TYR251     -0.0009
    122  CE1      -20.0300   16.2520    1.4420 C.ar  251  TYR251      0.0417
    123  CE2      -17.7960   17.1190    1.2410 C.ar  251  TYR251      0.0417
    124  CZ       -18.6660   16.0580    1.2880 C.ar  251  TYR251      0.1957
    125  OH       -18.1720   14.8110    1.2030 O.3   251  TYR251     -0.2866
    126  N        -25.2780   13.6610    1.8070 N.3   346  TRP346     -0.1241
    127  CA       -24.5050   14.1280    2.9500 C.3   346  TRP346      0.1605
    128  C        -24.3300   15.6390    2.7710 C.2   346  TRP346      0.2264
    129  O        -23.5670   16.0690    1.8910 O.2   346  TRP346     -0.2867
    130  CB       -23.1230   13.4490    3.0260 C.3   346  TRP346      0.0550
    131  CG       -22.4410   13.9040    4.2610 C.ar  346  TRP346      0.0003
    132  CD1      -21.6760   15.0330    4.4200 C.ar  346  TRP346      0.0946
    133  CD2      -22.5950   13.3350    5.5600 C.ar  346  TRP346      0.0152
    134  NE1      -21.3050   15.1640    5.7350 N.ar  346  TRP346     -0.2442
    135  CE2      -21.8520   14.1330    6.4550 C.ar  346  TRP346      0.0810
    136  CE3      -23.2640   12.2060    6.0480 C.ar  346  TRP346      0.0012
    137  CZ2      -21.7610   13.8420    7.8050 C.ar  346  TRP346      0.0191
    138  CZ3      -23.1800   11.9270    7.3890 C.ar  346  TRP346      0.0001
    139  CH2      -22.4310   12.7340    8.2540 C.ar  346  TRP346      0.0015
@<TRIPOS>BOND
     1    94    95    1
     2    95    98    1
     3    95    96    1
     4    98    99    1
     5    96   106   am
     6    96    97    2
     7   108   109    2
     8   108   107    1
     9   106   107    1
    10   117   116    2
    11    88    89    2
    12    88    87    1
    13   107   110    1
    14   101    99   ar
    15   101   103   ar
    16    99   100   ar
    17   116   115    1
    18    86    87    1
    19    87    90    1
    20   114   115    1
    21   103   104   ar
    22   100   102   ar
    23   115   118    1
    24   110   111    1
    25   112   111   ar
    26    90    91    1
    27   104   102   ar
    28   104   105    1
    29   111   113   ar
    30   125   124    1
    31   123   124   ar
    32   123   121   ar
    33   124   122   ar
    34   121   119   ar
    35   122   120   ar
    36   119   120   ar
    37   119   118    1
    38   126   127    1
    39   129   128    2
    40    91    92    1
    41   128   127    1
    42   127   130    1
    43   130   131    1
    44    80    79    1
    45    93    92    1
    46    79    78   ar
    47    79    77   ar
    48    83    82    1
    49    83    84    2
    50    78    76   ar
    51   131   132   ar
    52   131   133   ar
    53   132   134   ar
    54    82    85    1
    55    82    81    1
    56    77    75   ar
    57    76    74   ar
    58     9     7   ar
    59     9    11   ar
    60    75    74   ar
    61     7     6   ar
    62    74    73    1
    63     1     2    1
    64   133   136   ar
    65   133   135   ar
    66   134   135   ar
    67    73    70    1
    68   136   138   ar
    69    12    11    1
    70    11    10   ar
    71     6     5    1
    72     6     8   ar
    73   135   137   ar
    74     5     2    1
    75    50    51   ar
    76    50    48   ar
    77    51    49   ar
    78    68    66   ar
    79     2     3    1
    80     4     3    2
    81    66    67   ar
    82    66    65    1
    83    48    45   ar
    84    70    71    1
    85    70    69    1
    86   138   139   ar
    87    49    47   ar
    88    10     8   ar
    89    65    64    1
    90    58    57   ar
    91    64    61    1
    92   137   139   ar
    93    71    72    2
    94    61    62    1
    95    61    60    1
    96    69    62   am
    97    45    47   ar
    98    45    43   ar
    99    47    46   ar
   100    59    57   ar
   101    62    63    2
   102    57    56    1
   103    43    42    1
   104    43    44   ar
   105    46    44   ar
   106    42    39    1
   107    53    56    1
   108    53    54    1
   109    53    52    1
   110    54    55    2
   111    39    38    1
   112    39    40    1
   113    37    35   ar
   114    37    36   ar
   115    35    33   ar
   116    36    34   ar
   117    24    26   ar
   118    24    22   ar
   119    40    41    2
   120    26    25   ar
   121    21    22   ar
   122    21    19   ar
   123    22    20   ar
   124    33    32   ar
   125    34    32   ar
   126    25    23   ar
   127    19    18   ar
   128    32    31    1
   129    20    23   ar
   130    20    18   ar
   131    18    17    1
   132    31    28    1
   133    15    16    2
   134    15    14    1
   135    27    28    1
   136    28    29    1
   137    13    14    1
   138    17    14    1
   139    29    30    2
