@<TRIPOS>MOLECULE
tmp/5y2bA02.pdb
 119 116 0 0 0
SMALL
GASTEIGER

@<TRIPOS>ATOM
      1  N        -24.2040   17.7830   15.1180 N.3    16  TRP16      -0.1241
      2  CA       -23.3050   18.8880   15.4280 C.3    16  TRP16       0.1605
      3  C        -23.5640   20.1360   14.5890 C.2    16  TRP16       0.2264
      4  O        -22.9290   21.1800   14.8320 O.2    16  TRP16      -0.2867
      5  CB       -21.8450   18.4410   15.2590 C.3    16  TRP16       0.0550
      6  CG       -21.4940   18.0750   13.8610 C.ar   16  TRP16       0.0003
      7  CD1      -21.0060   18.9150   12.8890 C.ar   16  TRP16       0.0946
      8  CD2      -21.6100   16.7690   13.2420 C.ar   16  TRP16       0.0152
      9  NE1      -20.7980   18.2170   11.7320 N.ar   16  TRP16      -0.2442
     10  CE2      -21.1510   16.9040   11.9120 C.ar   16  TRP16       0.0810
     11  CE3      -22.0260   15.5030   13.6940 C.ar   16  TRP16       0.0012
     12  CZ2      -21.1060   15.8280   11.0220 C.ar   16  TRP16       0.0191
     13  CZ3      -21.9810   14.4300   12.8090 C.ar   16  TRP16       0.0001
     14  CH2      -21.5200   14.6040   11.4810 C.ar   16  TRP16       0.0015
     15  N        -24.2460   23.4600   16.3720 N.3    19  TYR19      -0.1227
     16  CA       -23.1780   24.2830   16.9260 C.3    19  TYR19       0.1736
     17  C        -22.5640   25.1700   15.8500 C.2    19  TYR19       0.2595
     18  O        -21.3770   25.0860   15.5830 O.2    19  TYR19      -0.2718
     19  CB       -22.1080   23.3920   17.5430 C.3    19  TYR19       0.0548
     20  CG       -22.6090   22.5050   18.6380 C.ar   19  TYR19      -0.0200
     21  CD1      -22.8040   23.0140   19.9030 C.ar   19  TYR19      -0.0009
     22  CD2      -22.8660   21.1460   18.4250 C.ar   19  TYR19      -0.0009
     23  CE1      -23.2240   22.2280   20.9420 C.ar   19  TYR19       0.0417
     24  CE2      -23.3260   20.3380   19.4690 C.ar   19  TYR19       0.0417
     25  CZ       -23.4860   20.9060   20.7420 C.ar   19  TYR19       0.1957
     26  OH       -23.9140   20.1910   21.8400 O.3    19  TYR19      -0.2866
     27  N        -23.3890   26.0120   15.2270 N.am   20  ARG20      -0.1980
     28  CA       -22.9490   26.8380   14.1160 C.3    20  ARG20       0.1597
     29  C        -23.5450   28.2310   14.2940 C.2    20  ARG20       0.2287
     30  O        -24.6760   28.3570   14.7940 O.2    20  ARG20      -0.2864
     31  CB       -23.3480   26.2530   12.7350 C.3    20  ARG20       0.0334
     32  CG       -22.4290   25.0890   12.3200 C.3    20  ARG20       0.0492
     33  CD       -22.8490   24.4300   11.0140 C.3    20  ARG20       0.2205
     34  NE       -22.0410   23.2450   10.7890 N.pl3  20  ARG20      -0.0865
     35  CZ       -22.3300   22.2670    9.9400 C.cat  20  ARG20       0.5346
     36  NH1      -23.4160   22.3340    9.1760 N.pl3  20  ARG20       0.1354
     37  NH2      -21.5000   21.2200    9.8510 N.pl3  20  ARG20       0.1354
     38  N        -24.3770   11.2640   14.7880 N.3    43  PHE43      -0.1241
     39  CA       -23.9090    9.8930   14.8320 C.3    43  PHE43       0.1605
     40  C        -24.0320    9.4640   16.2920 C.2    43  PHE43       0.2264
     41  O        -23.7850   10.2860   17.1850 O.2    43  PHE43      -0.2867
     42  CB       -22.4220    9.7650   14.4000 C.3    43  PHE43       0.0534
     43  CG       -22.2050    9.7150   12.9090 C.ar   43  PHE43      -0.0203
     44  CD1      -22.6570    8.6470   12.1650 C.ar   43  PHE43      -0.0042
     45  CD2      -21.5240   10.7450   12.2570 C.ar   43  PHE43      -0.0042
     46  CE1      -22.4910    8.6120   10.7940 C.ar   43  PHE43      -0.0003
     47  CE2      -21.3230   10.7140   10.8960 C.ar   43  PHE43      -0.0003
     48  CZ       -21.8090    9.6470   10.1560 C.ar   43  PHE43      -0.0000
     49  N        -21.9810    6.6800   18.7870 N.3    45  VAL45      -0.1245
     50  CA       -20.6030    6.1750   18.7720 C.3    45  VAL45       0.1561
     51  C        -20.4890    4.9270   19.6410 C.2    45  VAL45       0.2260
     52  O        -21.4030    4.5710   20.3820 O.2    45  VAL45      -0.2867
     53  CB       -19.5540    7.2280   19.2140 C.3    45  VAL45       0.0252
     54  CG1      -19.4950    8.4240   18.2190 C.3    45  VAL45       0.0019
     55  CG2      -19.7960    7.6950   20.6350 C.3    45  VAL45       0.0019
     56  N        -23.1470   10.1760   21.0990 N.3    55  HIS55      -0.1241
     57  CA       -21.9280   10.9570   20.9530 C.3    55  HIS55       0.1621
     58  C        -21.9820   12.2660   21.7460 C.2    55  HIS55       0.2264
     59  O        -20.9560   12.7360   22.2340 O.2    55  HIS55      -0.2867
     60  CB       -21.6860   11.2560   19.4840 C.3    55  HIS55       0.0745
     61  CG       -20.6270   12.2900   19.2370 C.ar   55  HIS55       0.0817
     62  ND1      -20.8750   13.4590   18.5460 N.ar   55  HIS55      -0.2268
     63  CD2      -19.3130   12.3140   19.5600 C.ar   55  HIS55       0.1154
     64  CE1      -19.7600   14.1580   18.4520 C.ar   55  HIS55       0.1986
     65  NE2      -18.7980   13.4870   19.0600 N.ar   55  HIS55      -0.2212
     66  N        -21.1700    5.3200   14.1990 N.3    84  GLY84      -0.1225
     67  CA       -19.8210    5.4040   13.6920 C.3    84  GLY84       0.1811
     68  C        -19.4840    6.7550   13.1140 C.2    84  GLY84       0.2280
     69  O        -19.4590    7.7510   13.8420 O.2    84  GLY84      -0.2866
     70  N        -14.8970   10.1940   12.3370 N.3    87  ASN87      -0.1225
     71  CA       -14.1200   10.4590   13.5490 C.3    87  ASN87       0.1785
     72  C        -14.1960    9.3010   14.5370 C.2    87  ASN87       0.2597
     73  O        -13.2310    9.0570   15.2720 O.2    87  ASN87      -0.2718
     74  CB       -14.6100   11.7380   14.2380 C.3    87  ASN87       0.1169
     75  CG       -14.1540   12.9960   13.5260 C.2    87  ASN87       0.2627
     76  OD1      -13.2730   12.9660   12.6580 O.2    87  ASN87      -0.2716
     77  ND2      -14.7430   14.1190   13.9010 N.am   87  ASN87      -0.0877
     78  N        -15.3300    8.5840   14.5930 N.am   88  ASP88      -0.1974
     79  CA       -15.3650    7.4350   15.4940 C.3    88  ASP88       0.1709
     80  C        -14.5540    6.2500   14.9730 C.2    88  ASP88       0.2293
     81  O        -14.3140    5.2960   15.7290 O.2    88  ASP88      -0.2864
     82  CB       -16.8140    6.9890   15.7800 C.3    88  ASP88       0.1436
     83  CG       -16.9510    6.3950   17.1720 C.2    88  ASP88       0.3671
     84  OD1      -16.3300    6.9700   18.1040 O.co2  88  ASP88      -0.2456
     85  OD2      -17.6400    5.3650   17.3370 O.co2  88  ASP88      -0.2456
     86  N        -19.0730   26.4520    8.7030 N.3   279  THR279     -0.1203
     87  CA       -18.6760   25.0670    8.9300 C.3   279  THR279      0.1994
     88  C        -17.3540   24.9540    9.6900 C.2   279  THR279      0.2618
     89  O        -17.1380   23.9480   10.3560 O.2   279  THR279     -0.2717
     90  CB       -18.5970   24.3130    7.5940 C.3   279  THR279      0.1784
     91  OG1      -17.8730   25.0810    6.6350 O.3   279  THR279     -0.2211
     92  CG2      -20.0010   24.0530    7.0230 C.3   279  THR279      0.0376
     93  N        -16.5520   26.0120    9.6650 N.am  280  ARG280     -0.1965
     94  CA       -15.2990   26.0880   10.4190 C.3   280  ARG280      0.1729
     95  C        -14.3950   24.8580   10.4050 C.2   280  ARG280      0.2616
     96  O        -13.9680   24.3700   11.4510 O.2   280  ARG280     -0.2715
     97  CB       -15.5850   26.4970   11.8680 C.3   280  ARG280      0.0348
     98  CG       -16.6020   27.6180   12.0070 C.3   280  ARG280      0.0492
     99  CD       -16.7000   28.1000   13.4460 C.3   280  ARG280      0.2205
    100  NE       -17.0600   27.0210   14.3610 N.pl3 280  ARG280     -0.0865
    101  CZ       -18.1930   26.3300   14.2920 C.cat 280  ARG280      0.5346
    102  NH1      -19.0830   26.6040   13.3470 N.pl3 280  ARG280      0.1354
    103  NH2      -18.4380   25.3640   15.1670 N.pl3 280  ARG280      0.1354
    104  N        -14.1000   24.3770    9.2080 N.am  281  ALA281     -0.1977
    105  CA       -13.2110   23.2510    9.0080 C.3   281  ALA281      0.1597
    106  C        -12.4300   23.4810    7.7200 C.2   281  ALA281      0.2287
    107  O        -13.0130   23.4970    6.6310 O.2   281  ALA281     -0.2864
    108  CB       -13.9920   21.9320    8.9490 C.3   281  ALA281      0.0319
    109  N        -13.1470   21.9460    3.6870 N.3   284  PHE284     -0.1241
    110  CA       -14.4710   21.8490    3.0640 C.3   284  PHE284      0.1605
    111  C        -15.3330   23.0840    3.3150 C.2   284  PHE284      0.2264
    112  O        -15.0630   23.9110    4.1910 O.2   284  PHE284     -0.2867
    113  CB       -15.2210   20.5570    3.4700 C.3   284  PHE284      0.0534
    114  CG       -16.1070   20.6720    4.6940 C.ar  284  PHE284     -0.0203
    115  CD1      -15.5990   20.4140    5.9570 C.ar  284  PHE284     -0.0042
    116  CD2      -17.4700   20.9410    4.5680 C.ar  284  PHE284     -0.0042
    117  CE1      -16.4380   20.4920    7.0930 C.ar  284  PHE284     -0.0003
    118  CE2      -18.2900   21.0230    5.6640 C.ar  284  PHE284     -0.0003
    119  CZ       -17.7650   20.8080    6.9440 C.ar  284  PHE284     -0.0000
@<TRIPOS>BOND
     1   110   111    1
     2   110   113    1
     3   110   109    1
     4   111   112    2
     5   113   114    1
     6   116   114   ar
     7   116   118   ar
     8   114   115   ar
     9   118   119   ar
    10   115   117   ar
    11   107   106    2
    12    91    90    1
    13   119   117   ar
    14    92    90    1
    15    90    87    1
    16   106   105    1
    17    86    87    1
    18    87    88    1
    19   108   105    1
    20   105   104    1
    21    36    35    1
    22   104    95   am
    23    93    88   am
    24    93    94    1
    25    88    89    2
    26    37    35    1
    27    35    34    2
    28    48    46   ar
    29    48    47   ar
    30    95    94    1
    31    95    96    2
    32    94    97    1
    33    34    33    1
    34    46    44   ar
    35    47    45   ar
    36    33    32    1
    37    12    14   ar
    38    12    10   ar
    39    14    13   ar
    40     9    10   ar
    41     9     7   ar
    42    97    98    1
    43    10     8   ar
    44    98    99    1
    45    44    43   ar
    46    45    43   ar
    47    32    31    1
    48    70    71    1
    49    76    75    2
    50    31    28    1
    51    13    11   ar
    52     7     6   ar
    53    43    42    1
    54    68    67    1
    55    68    69    2
    56     8    11   ar
    57     8     6   ar
    58   102   101    1
    59    99   100    1
    60    75    77   am
    61    75    74    1
    62    71    74    1
    63    71    72    1
    64    67    66    1
    65     6     5    1
    66    28    29    1
    67    28    27    1
    68   101   100    2
    69   101   103    1
    70    29    30    2
    71    42    39    1
    72    72    78   am
    73    72    73    2
    74     3     4    2
    75     3     2    1
    76    78    79    1
    77    38    39    1
    78    39    40    1
    79    80    79    1
    80    80    81    2
    81     1     2    1
    82    27    17   am
    83     5     2    1
    84    79    82    1
    85    18    17    2
    86    82    83    1
    87    17    16    1
    88    40    41    2
    89    15    16    1
    90    16    19    1
    91    83    85   ar
    92    83    84   ar
    93    19    20    1
    94    54    53    1
    95    22    20   ar
    96    22    24   ar
    97    64    62   ar
    98    64    65   ar
    99    62    61   ar
   100    20    21   ar
   101    50    49    1
   102    50    53    1
   103    50    51    1
   104    65    63   ar
   105    53    55    1
   106    61    60    1
   107    61    63   ar
   108    24    25   ar
   109    60    57    1
   110    51    52    2
   111    21    23   ar
   112    25    23   ar
   113    25    26    1
   114    57    56    1
   115    57    58    1
   116    58    59    2
