@<TRIPOS>MOLECULE
tmp/5y2bA05.pdb
 100 99 0 0 0
SMALL
GASTEIGER

@<TRIPOS>ATOM
      1  N        -16.6900    9.0040   10.3480 N.3    86  TRP86      -0.1241
      2  CA       -15.2470    9.1270   10.1530 C.3    86  TRP86       0.1605
      3  C        -14.4860    9.2620   11.4730 C.2    86  TRP86       0.2264
      4  O        -13.5020    8.5570   11.7000 O.2    86  TRP86      -0.2867
      5  CB       -14.9390   10.3260    9.2600 C.3    86  TRP86       0.0550
      6  CG       -13.4620   10.4810    8.9720 C.ar   86  TRP86       0.0003
      7  CD1      -12.6250   11.4020    9.5070 C.ar   86  TRP86       0.0946
      8  CD2      -12.6540    9.6790    8.0850 C.ar   86  TRP86       0.0152
      9  NE1      -11.3540   11.2500    9.0020 N.ar   86  TRP86      -0.2442
     10  CE2      -11.3400   10.1960    8.1370 C.ar   86  TRP86       0.0810
     11  CE3      -12.9160    8.5850    7.2470 C.ar   86  TRP86       0.0012
     12  CZ2      -10.2840    9.6540    7.3950 C.ar   86  TRP86       0.0191
     13  CZ3      -11.8610    8.0530    6.4880 C.ar   86  TRP86       0.0001
     14  CH2      -10.5660    8.5890    6.5790 C.ar   86  TRP86       0.0015
     15  N        -15.8850    3.3350    9.1070 N.3   128  GLU128     -0.1231
     16  CA       -15.0280    3.7230    7.9870 C.3   128  GLU128      0.1699
     17  C        -13.5680    3.3740    8.2830 C.2   128  GLU128      0.2592
     18  O        -12.8120    4.2360    8.7360 O.2   128  GLU128     -0.2718
     19  CB       -15.2080    5.2670    7.6840 C.3   128  GLU128      0.0402
     20  CG       -16.6870    5.5860    7.4420 C.3   128  GLU128      0.1161
     21  CD       -16.9820    7.0120    7.0150 C.2   128  GLU128      0.3649
     22  OE1      -16.0810    7.8600    7.0290 O.co2 128  GLU128     -0.2457
     23  OE2      -18.1420    7.2730    6.6540 O.co2 128  GLU128     -0.2457
     24  N        -13.1430    2.1420    8.0020 N.am  129  TYR129     -0.1976
     25  CA       -13.9270    1.0690    7.3860 C.3   129  TYR129      0.1639
     26  C        -13.3580   -0.2400    7.9210 C.2   129  TYR129      0.2290
     27  O        -12.2320   -0.2420    8.4130 O.2   129  TYR129     -0.2864
     28  CB       -13.8170    1.0700    5.8530 C.3   129  TYR129      0.0560
     29  CG       -14.0240    2.3940    5.2200 C.ar  129  TYR129     -0.0198
     30  CD1      -12.9660    3.2830    5.0710 C.ar  129  TYR129     -0.0009
     31  CD2      -15.2970    2.7770    4.7750 C.ar  129  TYR129     -0.0009
     32  CE1      -13.1670    4.5170    4.5120 C.ar  129  TYR129      0.0417
     33  CE2      -15.5010    4.0070    4.1770 C.ar  129  TYR129      0.0417
     34  CZ       -14.4370    4.8650    4.0510 C.ar  129  TYR129      0.1957
     35  OH       -14.6390    6.0840    3.4780 O.3   129  TYR129     -0.2866
     36  N         -9.3290    4.3630    5.8290 N.3   135  VAL135     -0.1245
     37  CA        -8.8770    4.1260    4.4640 C.3   135  VAL135      0.1561
     38  C         -7.4540    3.5620    4.4660 C.2   135  VAL135      0.2260
     39  O         -6.9080    3.2670    3.4030 O.2   135  VAL135     -0.2867
     40  CB        -8.9870    5.3860    3.5700 C.3   135  VAL135      0.0252
     41  CG1       -8.8750    5.0220    2.0950 C.3   135  VAL135      0.0019
     42  CG2      -10.3300    6.0520    3.7470 C.3   135  VAL135      0.0019
     43  N        -16.5980    4.1520   -1.4960 N.3   172  PRO172     -0.2116
     44  CA       -16.6260    4.0170   -2.9630 C.3   172  PRO172      0.1372
     45  C        -15.3190    3.5170   -3.5600 C.2   172  PRO172      0.2244
     46  O        -15.2010    3.4330   -4.7920 O.2   172  PRO172     -0.2868
     47  CB       -16.8740    5.4620   -3.4170 C.3   172  PRO172      0.0268
     48  CG       -15.9630    6.2430   -2.4990 C.3   172  PRO172      0.0207
     49  CD       -16.0740    5.4700   -1.1020 C.3   172  PRO172      0.0892
     50  N        -20.9470    5.8610   -0.6070 N.3   196  MET196     -0.1245
     51  CA       -20.5020    7.2470   -0.4010 C.3   196  MET196      0.1570
     52  C        -19.6560    7.7100   -1.5940 C.2   196  MET196      0.2261
     53  O        -18.4350    7.8920   -1.5220 O.2   196  MET196     -0.2867
     54  CB       -19.7510    7.3740    0.9140 C.3   196  MET196      0.0387
     55  CG       -20.6110    7.0370    2.0990 C.3   196  MET196      0.0595
     56  SD       -19.7200    7.2330    3.6700 S.3   196  MET196     -0.1393
     57  CE       -18.6530    5.8430    3.6540 C.3   196  MET196      0.0692
     58  N        -18.4660   10.1360   -3.0480 N.3   198  TYR198     -0.1227
     59  CA       -17.9190   11.4800   -2.9420 C.3   198  TYR198      0.1736
     60  C        -16.6440   11.3620   -2.1230 C.2   198  TYR198      0.2595
     61  O        -16.2600   10.2620   -1.7130 O.2   198  TYR198     -0.2718
     62  CB       -18.9310   12.4510   -2.3170 C.3   198  TYR198      0.0548
     63  CG       -19.6690   11.9320   -1.1090 C.ar  198  TYR198     -0.0200
     64  CD1      -19.0260   11.7860    0.1150 C.ar  198  TYR198     -0.0009
     65  CD2      -21.0170   11.6100   -1.1810 C.ar  198  TYR198     -0.0009
     66  CE1      -19.6820   11.3070    1.2280 C.ar  198  TYR198      0.0417
     67  CE2      -21.6960   11.1350   -0.0590 C.ar  198  TYR198      0.0417
     68  CZ       -21.0050   10.9870    1.1330 C.ar  198  TYR198      0.1957
     69  OH       -21.6580   10.5340    2.2390 O.3   198  TYR198     -0.2866
     70  N        -16.0070   12.5040   -1.8550 N.am  199  ASP199     -0.1974
     71  CA       -14.6830   12.5350   -1.2100 C.3   199  ASP199      0.1709
     72  C        -13.6560   11.6730   -1.9590 C.2   199  ASP199      0.2293
     73  O        -12.7440   11.0720   -1.3600 O.2   199  ASP199     -0.2864
     74  CB       -14.7820   12.1160    0.2540 C.3   199  ASP199      0.1436
     75  CG       -15.3660   13.2300    1.1500 C.2   199  ASP199      0.3671
     76  OD1      -15.5450   14.3930    0.6990 O.co2 199  ASP199     -0.2456
     77  OD2      -15.6530   12.9230    2.3210 O.co2 199  ASP199     -0.2456
     78  N         -5.7970   15.9780    0.8150 N.3   204  TRP204     -0.1241
     79  CA        -4.8450   14.8770    0.9640 C.3   204  TRP204      0.1605
     80  C         -4.1550   14.5330   -0.3590 C.2   204  TRP204      0.2264
     81  O         -3.0450   14.0140   -0.3430 O.2   204  TRP204     -0.2867
     82  CB        -5.5650   13.6400    1.5340 C.3   204  TRP204      0.0550
     83  CG        -6.7880   13.2590    0.6930 C.ar  204  TRP204      0.0003
     84  CD1       -6.7950   12.4950   -0.4270 C.ar  204  TRP204      0.0946
     85  CD2       -8.1450   13.6950    0.8870 C.ar  204  TRP204      0.0152
     86  NE1       -8.0670   12.4160   -0.9450 N.ar  204  TRP204     -0.2442
     87  CE2       -8.9170   13.1330   -0.1540 C.ar  204  TRP204      0.0810
     88  CE3       -8.7790   14.4790    1.8480 C.ar  204  TRP204      0.0012
     89  CZ2      -10.2900   13.3350   -0.2700 C.ar  204  TRP204      0.0191
     90  CZ3      -10.1450   14.6880    1.7280 C.ar  204  TRP204      0.0001
     91  CH2      -10.8880   14.1070    0.6710 C.ar  204  TRP204      0.0015
     92  N        -15.1590   20.2040   -1.5830 N.3   253  GLN253     -0.1245
     93  CA       -13.8000   20.0770   -1.1020 C.3   253  GLN253      0.1566
     94  C        -13.0110   21.3340   -1.5050 C.2   253  GLN253      0.2260
     95  O        -13.0090   21.7350   -2.6680 O.2   253  GLN253     -0.2867
     96  CB       -13.1530   18.8020   -1.6690 C.3   253  GLN253      0.0367
     97  CG       -13.6110   17.4680   -1.0060 C.3   253  GLN253      0.0905
     98  CD       -13.1670   17.3180    0.4550 C.2   253  GLN253      0.2608
     99  OE1      -12.2400   17.9770    0.9000 O.2   253  GLN253     -0.2717
    100  NE2      -13.8410   16.4470    1.2010 N.am  253  GLN253     -0.0878
@<TRIPOS>BOND
     1    46    45    2
     2    45    44    1
     3    47    44    1
     4    47    48    1
     5    58    59    1
     6    44    43    1
     7    59    62    1
     8    59    60    1
     9    95    94    2
    10    48    49    1
    11    62    63    1
    12    60    70   am
    13    60    61    2
    14    72    73    2
    15    72    71    1
    16    70    71    1
    17    96    93    1
    18    96    97    1
    19    52    53    2
    20    52    51    1
    21    92    93    1
    22    94    93    1
    23    43    49    1
    24    71    74    1
    25    65    63   ar
    26    65    67   ar
    27    63    64   ar
    28    97    98    1
    29    86    84   ar
    30    86    87   ar
    31    50    51    1
    32    84    83   ar
    33    51    54    1
    34    80    81    2
    35    80    79    1
    36    89    87   ar
    37    89    91   ar
    38    87    85   ar
    39    67    68   ar
    40    64    66   ar
    41    74    75    1
    42    98    99    2
    43    98   100   am
    44    91    90   ar
    45    83    85   ar
    46    83    82    1
    47    76    75   ar
    48    78    79    1
    49    85    88   ar
    50    54    55    1
    51    79    82    1
    52    68    66   ar
    53    68    69    1
    54    75    77   ar
    55    90    88   ar
    56    41    40    1
    57    55    56    1
    58    39    38    2
    59    35    34    1
    60    40    42    1
    61    40    37    1
    62    57    56    1
    63    34    33   ar
    64    34    32   ar
    65    33    31   ar
    66    37    38    1
    67    37    36    1
    68    32    30   ar
    69    31    29   ar
    70    30    29   ar
    71    29    28    1
    72    28    25    1
    73    13    14   ar
    74    13    11   ar
    75    14    12   ar
    76    23    21   ar
    77    21    22   ar
    78    21    20    1
    79    11     8   ar
    80    25    26    1
    81    25    24    1
    82    12    10   ar
    83    20    19    1
    84    19    16    1
    85    26    27    2
    86    16    17    1
    87    16    15    1
    88    24    17   am
    89     8    10   ar
    90     8     6   ar
    91    10     9   ar
    92    17    18    2
    93     6     5    1
    94     6     7   ar
    95     9     7   ar
    96     5     2    1
    97     2     1    1
    98     2     3    1
    99     3     4    2
