@<TRIPOS>MOLECULE
tmp/5y2cA00.pdb
 117 118 0 0 0
SMALL
GASTEIGER

@<TRIPOS>ATOM
      1  N          9.0550   -7.3590    6.0980 N.3    12  TRP12      -0.1241
      2  CA         9.7640   -7.6120    7.3500 C.3    12  TRP12       0.1605
      3  C         11.2920   -7.5520    7.2050 C.2    12  TRP12       0.2264
      4  O         11.9960   -7.5550    8.2190 O.2    12  TRP12      -0.2867
      5  CB         9.3260   -8.9580    7.9510 C.3    12  TRP12       0.0550
      6  CG         9.7010  -10.1610    7.1490 C.ar   12  TRP12       0.0003
      7  CD1       10.8560  -10.8810    7.2460 C.ar   12  TRP12       0.0946
      8  CD2        8.9220  -10.7870    6.1230 C.ar   12  TRP12       0.0152
      9  NE1       10.8490  -11.9160    6.3420 N.ar   12  TRP12      -0.2442
     10  CE2        9.6730  -11.8800    5.6370 C.ar   12  TRP12       0.0810
     11  CE3        7.6700  -10.5230    5.5550 C.ar   12  TRP12       0.0012
     12  CZ2        9.2080  -12.7190    4.6180 C.ar   12  TRP12       0.0191
     13  CZ3        7.2090  -11.3500    4.5320 C.ar   12  TRP12       0.0001
     14  CH2        7.9730  -12.4390    4.0780 C.ar   12  TRP12       0.0015
     15  N          4.0030   -9.5400    2.8830 N.3    39  PHE39      -0.1241
     16  CA         2.7240  -10.1430    2.4860 C.3    39  PHE39       0.1605
     17  C          1.6120   -9.3110    3.1070 C.2    39  PHE39       0.2264
     18  O          1.8330   -8.6700    4.1400 O.2    39  PHE39      -0.2867
     19  CB         2.5580  -11.5910    3.0000 C.3    39  PHE39       0.0534
     20  CG         3.3440  -12.6220    2.2450 C.ar   39  PHE39      -0.0203
     21  CD1        3.0020  -12.9550    0.9410 C.ar   39  PHE39      -0.0042
     22  CD2        4.3920  -13.3080    2.8620 C.ar   39  PHE39      -0.0042
     23  CE1        3.7180  -13.9040    0.2370 C.ar   39  PHE39      -0.0003
     24  CE2        5.1130  -14.2820    2.1650 C.ar   39  PHE39      -0.0003
     25  CZ         4.7750  -14.5730    0.8470 C.ar   39  PHE39      -0.0000
     26  N         -1.0470  -13.7270    1.7480 N.3    81  GLY81      -0.1210
     27  CA        -0.8490  -15.0190    2.3550 C.3    81  GLY81       0.1956
     28  C          0.5800  -15.2710    2.7840 C.2    81  GLY81       0.2612
     29  O          1.0750  -14.6570    3.7330 O.2    81  GLY81      -0.2717
     30  N          1.2570  -16.1630    2.0730 N.am   82  GLY82      -0.1942
     31  CA         2.5600  -16.6420    2.4790 C.3    82  GLY82       0.2014
     32  C          2.4460  -17.8650    3.3690 C.2    82  GLY82       0.2639
     33  O          1.3590  -18.2950    3.7540 O.2    82  GLY82      -0.2714
     34  N          3.6040  -18.4430    3.6970 N.am   83  TRP83      -0.1959
     35  CA         3.6020  -19.6690    4.4880 C.3    83  TRP83       0.1771
     36  C          2.9380  -19.4550    5.8430 C.2    83  TRP83       0.2620
     37  O          2.0490  -20.2230    6.2470 O.2    83  TRP83      -0.2715
     38  CB         5.0240  -20.1780    4.6840 C.3    83  TRP83       0.0590
     39  CG         5.0610  -21.3860    5.5930 C.ar   83  TRP83       0.0006
     40  CD1        5.4070  -21.4030    6.9120 C.ar   83  TRP83       0.0946
     41  CD2        4.6910  -22.7330    5.2570 C.ar   83  TRP83       0.0152
     42  NE1        5.2970  -22.6770    7.4120 N.ar   83  TRP83      -0.2442
     43  CE2        4.8640  -23.5140    6.4200 C.ar   83  TRP83       0.0810
     44  CE3        4.2510  -23.3590    4.0870 C.ar   83  TRP83       0.0012
     45  CZ2        4.6070  -24.8900    6.4500 C.ar   83  TRP83       0.0191
     46  CZ3        3.9930  -24.7300    4.1170 C.ar   83  TRP83       0.0001
     47  CH2        4.1760  -25.4790    5.2900 C.ar   83  TRP83       0.0015
     48  N          3.3710  -18.4230    6.5680 N.am   84  ASP84      -0.1957
     49  CA         2.9260  -18.2450    7.9450 C.3    84  ASP84       0.1840
     50  C          1.4350  -17.9090    8.0230 C.2    84  ASP84       0.2622
     51  O          0.7350  -18.3890    8.9210 O.2    84  ASP84      -0.2715
     52  CB         3.7870  -17.1830    8.6370 C.3    84  ASP84       0.1450
     53  CG         3.1580  -16.6760    9.9070 C.2    84  ASP84       0.3671
     54  OD1        2.9610  -17.5000   10.8220 O.co2  84  ASP84      -0.2456
     55  OD2        2.8340  -15.4640    9.9850 O.co2  84  ASP84      -0.2456
     56  N          0.9290  -17.0790    7.1090 N.am   85  ASP85      -0.1971
     57  CA        -0.4980  -16.7530    7.1300 C.3    85  ASP85       0.1709
     58  C         -1.3760  -17.8900    6.6200 C.2    85  ASP85       0.2293
     59  O         -2.5950  -17.8440    6.8100 O.2    85  ASP85      -0.2864
     60  CB        -0.7930  -15.4900    6.3120 C.3    85  ASP85       0.1436
     61  CG        -2.1530  -14.8740    6.6580 C.2    85  ASP85       0.3671
     62  OD1       -2.3620  -14.5380    7.8400 O.co2  85  ASP85      -0.2456
     63  OD2       -3.0190  -14.7480    5.7630 O.co2  85  ASP85      -0.2456
     64  N         18.3920  -17.8540   -1.1120 N.3   248  TYR248     -0.1241
     65  CA        18.7590  -18.2590    0.2300 C.3   248  TYR248      0.1605
     66  C         19.0210  -19.7580    0.2100 C.2   248  TYR248      0.2264
     67  O         18.5920  -20.4590   -0.7110 O.2   248  TYR248     -0.2867
     68  CB        17.6370  -17.9350    1.2250 C.3   248  TYR248      0.0534
     69  CG        16.4180  -18.7720    0.9540 C.ar  248  TYR248     -0.0201
     70  CD1       15.4940  -18.3950   -0.0090 C.ar  248  TYR248     -0.0009
     71  CD2       16.2180  -19.9800    1.6210 C.ar  248  TYR248     -0.0009
     72  CE1       14.3960  -19.1710   -0.2830 C.ar  248  TYR248      0.0417
     73  CE2       15.1130  -20.7660    1.3460 C.ar  248  TYR248      0.0417
     74  CZ        14.2120  -20.3500    0.3870 C.ar  248  TYR248      0.1957
     75  OH        13.1020  -21.0980    0.0940 O.3   248  TYR248     -0.2866
     76  N         19.1080  -23.6550    2.4140 N.3   250  GLN250     -0.1245
     77  CA        18.6520  -24.4570    3.5460 C.3   250  GLN250      0.1566
     78  C         19.8740  -24.9730    4.3020 C.2   250  GLN250      0.2260
     79  O         20.7850  -25.5510    3.6970 O.2   250  GLN250     -0.2867
     80  CB        17.7760  -25.6230    3.0880 C.3   250  GLN250      0.0367
     81  CG        16.4180  -25.1910    2.5420 C.3   250  GLN250      0.0905
     82  CD        15.4610  -24.7210    3.6270 C.2   250  GLN250      0.2608
     83  OE1       15.6730  -24.9790    4.8110 O.2   250  GLN250     -0.2717
     84  NE2       14.4220  -23.9940    3.2250 N.am  250  GLN250     -0.0878
     85  N         17.9240  -21.6020    7.6760 N.3   281  PHE281     -0.1241
     86  CA        18.2160  -20.9920    6.3930 C.3   281  PHE281      0.1605
     87  C         19.1930  -19.8480    6.5930 C.2   281  PHE281      0.2264
     88  O         19.3930  -19.3590    7.7100 O.2   281  PHE281     -0.2867
     89  CB        16.9290  -20.5540    5.6580 C.3   281  PHE281      0.0534
     90  CG        16.4380  -19.1540    5.9670 C.ar  281  PHE281     -0.0203
     91  CD1       16.9410  -18.0470    5.2990 C.ar  281  PHE281     -0.0042
     92  CD2       15.4220  -18.9670    6.8580 C.ar  281  PHE281     -0.0042
     93  CE1       16.4610  -16.7800    5.5570 C.ar  281  PHE281     -0.0003
     94  CE2       14.9360  -17.7010    7.1210 C.ar  281  PHE281     -0.0003
     95  CZ        15.4540  -16.6080    6.4760 C.ar  281  PHE281     -0.0000
     96  N         12.6970  -15.1790   -4.8550 N.3   343  TRP343     -0.1241
     97  CA        12.4190  -15.0840   -3.4330 C.3   343  TRP343      0.1605
     98  C         13.7650  -15.0820   -2.7180 C.2   343  TRP343      0.2264
     99  O         14.4080  -16.1320   -2.6030 O.2   343  TRP343     -0.2867
    100  CB        11.5450  -16.2480   -2.9390 C.3   343  TRP343      0.0550
    101  CG        11.2580  -16.0400   -1.4970 C.ar  343  TRP343      0.0003
    102  CD1       12.0580  -16.3710   -0.4490 C.ar  343  TRP343      0.0946
    103  CD2       10.1580  -15.3230   -0.9490 C.ar  343  TRP343      0.0152
    104  NE1       11.5010  -15.9550    0.7220 N.ar  343  TRP343     -0.2442
    105  CE2       10.3300  -15.3040    0.4430 C.ar  343  TRP343      0.0810
    106  CE3        9.0270  -14.7230   -1.4980 C.ar  343  TRP343      0.0012
    107  CZ2        9.4140  -14.7060    1.2940 C.ar  343  TRP343      0.0191
    108  CZ3        8.1240  -14.1300   -0.6470 C.ar  343  TRP343      0.0001
    109  CH2        8.3250  -14.1230    0.7300 C.ar  343  TRP343      0.0015
    110  N         17.4130  -11.1800    0.1770 N.3   347  LEU347     -0.1245
    111  CA        18.2990  -12.2860    0.5150 C.3   347  LEU347      0.1561
    112  C         19.4720  -12.3820   -0.4460 C.2   347  LEU347      0.2260
    113  O         20.4750  -13.0230   -0.1270 O.2   347  LEU347     -0.2867
    114  CB        17.5060  -13.6040    0.5450 C.3   347  LEU347      0.0270
    115  CG        16.3490  -13.6220    1.5520 C.3   347  LEU347      0.0019
    116  CD1       15.4900  -14.9010    1.4550 C.3   347  LEU347      0.0001
    117  CD2       16.8240  -13.3530    2.9850 C.3   347  LEU347      0.0001
@<TRIPOS>BOND
     1    96    97    1
     2    97   100    1
     3    97    98    1
     4   100   101    1
     5    98    99    2
     6   106   103   ar
     7   106   108   ar
     8   101   103   ar
     9   101   102   ar
    10    64    65    1
    11   103   105   ar
    12    67    66    2
    13   108   109   ar
    14   102   104   ar
    15   112   113    2
    16   112   111    1
    17    72    70   ar
    18    72    74   ar
    19    70    69   ar
    20    75    74    1
    21   110   111    1
    22    66    65    1
    23    65    68    1
    24    23    25   ar
    25    23    21   ar
    26    74    73   ar
    27   105   104   ar
    28   105   107   ar
    29   111   114    1
    30   114   115    1
    31   109   107   ar
    32    25    24   ar
    33    21    20   ar
    34    69    68    1
    35    69    71   ar
    36    73    71   ar
    37   116   115    1
    38   115   117    1
    39    26    27    1
    40    30    31    1
    41    30    28   am
    42    24    22   ar
    43    20    22   ar
    44    20    19    1
    45    27    28    1
    46    76    77    1
    47    31    32    1
    48    16    15    1
    49    16    19    1
    50    16    17    1
    51    81    80    1
    52    81    82    1
    53    28    29    2
    54    80    77    1
    55    17    18    2
    56    84    82   am
    57    32    34   am
    58    32    33    2
    59    77    78    1
    60    82    83    2
    61    79    78    2
    62    34    35    1
    63    14    13   ar
    64    14    12   ar
    65    44    46   ar
    66    44    41   ar
    67    46    47   ar
    68    35    38    1
    69    35    36    1
    70    13    11   ar
    71    12    10   ar
    72    38    39    1
    73    41    39   ar
    74    41    43   ar
    75    47    45   ar
    76    91    93   ar
    77    91    90   ar
    78    11     8   ar
    79    93    95   ar
    80    39    40   ar
    81    10     8   ar
    82    10     9   ar
    83    89    90    1
    84    89    86    1
    85    63    61   ar
    86    36    37    2
    87    36    48   am
    88    90    92   ar
    89     1     2    1
    90     8     6   ar
    91    60    61    1
    92    60    57    1
    93     9     7   ar
    94    86    87    1
    95    86    85    1
    96    43    45   ar
    97    43    42   ar
    98    95    94   ar
    99    48    49    1
   100    87    88    2
   101    58    59    2
   102    58    57    1
   103    61    62   ar
   104    92    94   ar
   105    40    42   ar
   106    56    57    1
   107    56    50   am
   108     6     7   ar
   109     6     5    1
   110     3     2    1
   111     3     4    2
   112     2     5    1
   113    49    50    1
   114    49    52    1
   115    50    51    2
   116    52    53    1
   117    53    55   ar
   118    53    54   ar
