@<TRIPOS>MOLECULE
tmp/5y2cA01.pdb
 147 144 0 0 0
SMALL
GASTEIGER

@<TRIPOS>ATOM
      1  N          9.9980  -10.6860   -5.4200 N.3     8  TYR8       -0.1241
      2  CA         9.2830  -10.6000   -4.1590 C.3     8  TYR8        0.1605
      3  C         10.0320   -9.6360   -3.2460 C.2     8  TYR8        0.2264
      4  O         11.2300   -9.8110   -2.9880 O.2     8  TYR8       -0.2867
      5  CB         9.1380  -11.9840   -3.5360 C.3     8  TYR8        0.0534
      6  CG         7.9760  -12.7370   -4.1390 C.ar    8  TYR8       -0.0201
      7  CD1        8.1410  -13.5180   -5.2750 C.ar    8  TYR8       -0.0009
      8  CD2        6.6980  -12.6250   -3.6040 C.ar    8  TYR8       -0.0009
      9  CE1        7.0720  -14.1940   -5.8320 C.ar    8  TYR8        0.0417
     10  CE2        5.6360  -13.2880   -4.1570 C.ar    8  TYR8        0.0417
     11  CZ         5.8240  -14.0700   -5.2650 C.ar    8  TYR8        0.1957
     12  OH         4.7520  -14.7270   -5.8070 O.3     8  TYR8       -0.2866
     13  N          9.0550   -7.3590    6.0980 N.3    12  TRP12      -0.1241
     14  CA         9.7640   -7.6120    7.3500 C.3    12  TRP12       0.1605
     15  C         11.2920   -7.5520    7.2050 C.2    12  TRP12       0.2264
     16  O         11.9960   -7.5550    8.2190 O.2    12  TRP12      -0.2867
     17  CB         9.3260   -8.9580    7.9510 C.3    12  TRP12       0.0550
     18  CG         9.7010  -10.1610    7.1490 C.ar   12  TRP12       0.0003
     19  CD1       10.8560  -10.8810    7.2460 C.ar   12  TRP12       0.0946
     20  CD2        8.9220  -10.7870    6.1230 C.ar   12  TRP12       0.0152
     21  NE1       10.8490  -11.9160    6.3420 N.ar   12  TRP12      -0.2442
     22  CE2        9.6730  -11.8800    5.6370 C.ar   12  TRP12       0.0810
     23  CE3        7.6700  -10.5230    5.5550 C.ar   12  TRP12       0.0012
     24  CZ2        9.2080  -12.7190    4.6180 C.ar   12  TRP12       0.0191
     25  CZ3        7.2090  -11.3500    4.5320 C.ar   12  TRP12       0.0001
     26  CH2        7.9730  -12.4390    4.0780 C.ar   12  TRP12       0.0015
     27  N          4.0030   -9.5400    2.8830 N.3    39  PHE39      -0.1241
     28  CA         2.7240  -10.1430    2.4860 C.3    39  PHE39       0.1605
     29  C          1.6120   -9.3110    3.1070 C.2    39  PHE39       0.2264
     30  O          1.8330   -8.6700    4.1400 O.2    39  PHE39      -0.2867
     31  CB         2.5580  -11.5910    3.0000 C.3    39  PHE39       0.0534
     32  CG         3.3440  -12.6220    2.2450 C.ar   39  PHE39      -0.0203
     33  CD1        3.0020  -12.9550    0.9410 C.ar   39  PHE39      -0.0042
     34  CD2        4.3920  -13.3080    2.8620 C.ar   39  PHE39      -0.0042
     35  CE1        3.7180  -13.9040    0.2370 C.ar   39  PHE39      -0.0003
     36  CE2        5.1130  -14.2820    2.1650 C.ar   39  PHE39      -0.0003
     37  CZ         4.7750  -14.5730    0.8470 C.ar   39  PHE39      -0.0000
     38  N          1.2570  -16.1630    2.0730 N.3    82  GLY82      -0.1210
     39  CA         2.5600  -16.6420    2.4790 C.3    82  GLY82       0.1956
     40  C          2.4460  -17.8650    3.3690 C.2    82  GLY82       0.2611
     41  O          1.3590  -18.2950    3.7540 O.2    82  GLY82      -0.2717
     42  N          3.6040  -18.4430    3.6970 N.am   83  TRP83      -0.1976
     43  CA         3.6020  -19.6690    4.4880 C.3    83  TRP83       0.1640
     44  C          2.9380  -19.4550    5.8430 C.2    83  TRP83       0.2290
     45  O          2.0490  -20.2230    6.2470 O.2    83  TRP83      -0.2864
     46  CB         5.0240  -20.1780    4.6840 C.3    83  TRP83       0.0576
     47  CG         5.0610  -21.3860    5.5930 C.ar   83  TRP83       0.0006
     48  CD1        5.4070  -21.4030    6.9120 C.ar   83  TRP83       0.0946
     49  CD2        4.6910  -22.7330    5.2570 C.ar   83  TRP83       0.0152
     50  NE1        5.2970  -22.6770    7.4120 N.ar   83  TRP83      -0.2442
     51  CE2        4.8640  -23.5140    6.4200 C.ar   83  TRP83       0.0810
     52  CE3        4.2510  -23.3590    4.0870 C.ar   83  TRP83       0.0012
     53  CZ2        4.6070  -24.8900    6.4500 C.ar   83  TRP83       0.0191
     54  CZ3        3.9930  -24.7300    4.1170 C.ar   83  TRP83       0.0001
     55  CH2        4.1760  -25.4790    5.2900 C.ar   83  TRP83       0.0015
     56  N         -1.1310  -16.1360   -2.5650 N.3   123  ASP123     -0.1239
     57  CA        -0.1140  -16.9730   -1.9400 C.3   123  ASP123      0.1674
     58  C         -0.7060  -17.7920   -0.8040 C.2   123  ASP123      0.2266
     59  O         -0.2220  -17.7410    0.3380 O.2   123  ASP123     -0.2867
     60  CB         1.0480  -16.1120   -1.4340 C.3   123  ASP123      0.1410
     61  CG         1.5300  -15.1350   -2.4850 C.2   123  ASP123      0.3668
     62  OD1        1.7340  -15.5880   -3.6250 O.co2 123  ASP123     -0.2456
     63  OD2        1.6980  -13.9280   -2.1860 O.co2 123  ASP123     -0.2456
     64  N         -0.9030  -21.1800    0.8320 N.3   125  LEU125     -0.1245
     65  CA        -0.0560  -22.3770    0.8390 C.3   125  LEU125      0.1561
     66  C         -0.6520  -23.4000    1.8040 C.2   125  LEU125      0.2260
     67  O         -0.3410  -23.3930    2.9960 O.2   125  LEU125     -0.2867
     68  CB         1.3980  -22.0580    1.2190 C.3   125  LEU125      0.0270
     69  CG         2.1690  -20.9020    0.5790 C.3   125  LEU125      0.0019
     70  CD1        3.6590  -21.1330    0.7530 C.3   125  LEU125      0.0001
     71  CD2        1.8230  -20.7280   -0.8890 C.3   125  LEU125      0.0001
     72  N          1.2470  -17.7840   -6.5220 N.3   166  ALA166     -0.1245
     73  CA         2.4200  -18.5850   -6.1870 C.3   166  ALA166      0.1562
     74  C          1.9500  -19.9650   -5.7480 C.2   166  ALA166      0.2260
     75  O          1.0630  -20.0840   -4.8990 O.2   166  ALA166     -0.2867
     76  CB         3.2260  -17.9210   -5.0680 C.3   166  ALA166      0.0290
     77  N          6.8300  -22.2490   -7.1160 N.3   193  MET193     -0.1245
     78  CA         7.7820  -22.1080   -6.0170 C.3   193  MET193      0.1570
     79  C          8.7120  -23.3180   -6.0680 C.2   193  MET193      0.2261
     80  O          8.6810  -24.2290   -5.2330 O.2   193  MET193     -0.2867
     81  CB         7.0770  -21.9570   -4.6810 C.3   193  MET193      0.0387
     82  CG         6.4300  -20.5660   -4.5230 C.3   193  MET193      0.0595
     83  SD         5.6310  -20.3380   -2.9410 S.3   193  MET193     -0.1393
     84  CE         4.4440  -21.6790   -3.0150 C.3   193  MET193      0.0692
     85  N         11.3520  -24.4420   -5.1290 N.3   195  TYR195     -0.1227
     86  CA        12.3980  -24.5240   -4.1220 C.3   195  TYR195      0.1736
     87  C         11.7940  -25.1230   -2.8600 C.2   195  TYR195      0.2595
     88  O         10.6000  -25.4380   -2.8110 O.2   195  TYR195     -0.2718
     89  CB        13.0140  -23.1530   -3.8620 C.3   195  TYR195      0.0548
     90  CG        11.9890  -22.0670   -3.6210 C.ar  195  TYR195     -0.0200
     91  CD1       11.2990  -21.9970   -2.4190 C.ar  195  TYR195     -0.0009
     92  CD2       11.7320  -21.0990   -4.5890 C.ar  195  TYR195     -0.0009
     93  CE1       10.3660  -21.0040   -2.1890 C.ar  195  TYR195      0.0417
     94  CE2       10.8110  -20.0930   -4.3620 C.ar  195  TYR195      0.0417
     95  CZ        10.1250  -20.0490   -3.1620 C.ar  195  TYR195      0.1957
     96  OH         9.1960  -19.0560   -2.9160 O.3   195  TYR195     -0.2866
     97  N         12.6340  -25.2660   -1.8300 N.am  196  ASP196     -0.1974
     98  CA        12.2700  -25.9410   -0.5890 C.3   196  ASP196      0.1709
     99  C         11.8520  -27.3880   -0.8380 C.2   196  ASP196      0.2293
    100  O         10.9870  -27.9250   -0.1490 O.2   196  ASP196     -0.2864
    101  CB        11.1740  -25.1810    0.1580 C.3   196  ASP196      0.1436
    102  CG        11.6850  -23.9210    0.7990 C.2   196  ASP196      0.3671
    103  OD1       12.8920  -23.6240    0.6640 O.co2 196  ASP196     -0.2456
    104  OD2       10.8800  -23.2080    1.4090 O.co2 196  ASP196     -0.2456
    105  N         18.3920  -17.8540   -1.1120 N.3   248  TYR248     -0.1241
    106  CA        18.7590  -18.2590    0.2300 C.3   248  TYR248      0.1605
    107  C         19.0210  -19.7580    0.2100 C.2   248  TYR248      0.2264
    108  O         18.5920  -20.4590   -0.7110 O.2   248  TYR248     -0.2867
    109  CB        17.6370  -17.9350    1.2250 C.3   248  TYR248      0.0534
    110  CG        16.4180  -18.7720    0.9540 C.ar  248  TYR248     -0.0201
    111  CD1       15.4940  -18.3950   -0.0090 C.ar  248  TYR248     -0.0009
    112  CD2       16.2180  -19.9800    1.6210 C.ar  248  TYR248     -0.0009
    113  CE1       14.3960  -19.1710   -0.2830 C.ar  248  TYR248      0.0417
    114  CE2       15.1130  -20.7660    1.3460 C.ar  248  TYR248      0.0417
    115  CZ        14.2120  -20.3500    0.3870 C.ar  248  TYR248      0.1957
    116  OH        13.1020  -21.0980    0.0940 O.3   248  TYR248     -0.2866
    117  N         19.1080  -23.6550    2.4140 N.3   250  GLN250     -0.1245
    118  CA        18.6520  -24.4570    3.5460 C.3   250  GLN250      0.1566
    119  C         19.8740  -24.9730    4.3020 C.2   250  GLN250      0.2260
    120  O         20.7850  -25.5510    3.6970 O.2   250  GLN250     -0.2867
    121  CB        17.7760  -25.6230    3.0880 C.3   250  GLN250      0.0367
    122  CG        16.4180  -25.1910    2.5420 C.3   250  GLN250      0.0905
    123  CD        15.4610  -24.7210    3.6270 C.2   250  GLN250      0.2608
    124  OE1       15.6730  -24.9790    4.8110 O.2   250  GLN250     -0.2717
    125  NE2       14.4220  -23.9940    3.2250 N.am  250  GLN250     -0.0878
    126  N         11.1510  -16.0200  -11.1770 N.3   341  MET341     -0.1245
    127  CA        10.6980  -15.4070   -9.9440 C.3   341  MET341      0.1570
    128  C         11.8260  -15.4750   -8.9150 C.2   341  MET341      0.2261
    129  O         12.5730  -16.4630   -8.8650 O.2   341  MET341     -0.2867
    130  CB         9.4290  -16.1330   -9.4420 C.3   341  MET341      0.0387
    131  CG         8.9360  -15.6810   -8.1090 C.3   341  MET341      0.0595
    132  SD         9.6120  -16.6460   -6.7550 S.3   341  MET341     -0.1393
    133  CE         8.4100  -17.9620   -6.5640 C.3   341  MET341      0.0692
    134  N         12.6970  -15.1790   -4.8550 N.3   343  TRP343     -0.1241
    135  CA        12.4190  -15.0840   -3.4330 C.3   343  TRP343      0.1605
    136  C         13.7650  -15.0820   -2.7180 C.2   343  TRP343      0.2264
    137  O         14.4080  -16.1320   -2.6030 O.2   343  TRP343     -0.2867
    138  CB        11.5450  -16.2480   -2.9390 C.3   343  TRP343      0.0550
    139  CG        11.2580  -16.0400   -1.4970 C.ar  343  TRP343      0.0003
    140  CD1       12.0580  -16.3710   -0.4490 C.ar  343  TRP343      0.0946
    141  CD2       10.1580  -15.3230   -0.9490 C.ar  343  TRP343      0.0152
    142  NE1       11.5010  -15.9550    0.7220 N.ar  343  TRP343     -0.2442
    143  CE2       10.3300  -15.3040    0.4430 C.ar  343  TRP343      0.0810
    144  CE3        9.0270  -14.7230   -1.4980 C.ar  343  TRP343      0.0012
    145  CZ2        9.4140  -14.7060    1.2940 C.ar  343  TRP343      0.0191
    146  CZ3        8.1240  -14.1300   -0.6470 C.ar  343  TRP343      0.0001
    147  CH2        8.3250  -14.1230    0.7300 C.ar  343  TRP343      0.0015
@<TRIPOS>BOND
     1   126   127    1
     2   127   130    1
     3   127   128    1
     4   130   131    1
     5   128   129    2
     6   131   132    1
     7    77    78    1
     8   132   133    1
     9    72    73    1
    10    73    74    1
    11    73    76    1
    12    79    78    1
    13    79    80    2
    14    78    81    1
    15     9     7   ar
    16     9    11   ar
    17    12    11    1
    18    74    75    2
    19     1     2    1
    20     7     6   ar
    21    11    10   ar
    22    85    86    1
    23   134   135    1
    24    81    82    1
    25    92    94   ar
    26    92    90   ar
    27    82    83    1
    28    94    95   ar
    29     2     5    1
    30     2     3    1
    31    10     8   ar
    32     6     8   ar
    33     6     5    1
    34    86    89    1
    35    86    87    1
    36    89    90    1
    37    62    61   ar
    38    90    91   ar
    39   135   138    1
    40   135   136    1
    41     3     4    2
    42    95    96    1
    43    95    93   ar
    44    84    83    1
    45   138   139    1
    46    87    88    2
    47    87    97   am
    48   136   137    2
    49    56    57    1
    50    61    63   ar
    51    61    60    1
    52    91    93   ar
    53    57    60    1
    54    57    58    1
    55    97    98    1
    56   144   141   ar
    57   144   146   ar
    58   139   141   ar
    59   139   140   ar
    60   105   106    1
    61   141   143   ar
    62    71    69    1
    63    99    98    1
    64    99   100    2
    65    58    59    2
    66   108   107    2
    67   146   147   ar
    68    98   101    1
    69   140   142   ar
    70   113   111   ar
    71   113   115   ar
    72   111   110   ar
    73   116   115    1
    74   101   102    1
    75   107   106    1
    76   106   109    1
    77    35    37   ar
    78    35    33   ar
    79   115   114   ar
    80   143   142   ar
    81   143   145   ar
    82    69    70    1
    83    69    68    1
    84   103   102   ar
    85   147   145   ar
    86   102   104   ar
    87    64    65    1
    88    65    68    1
    89    65    66    1
    90    37    36   ar
    91    33    32   ar
    92   110   109    1
    93   110   112   ar
    94   114   112   ar
    95    66    67    2
    96    38    39    1
    97    36    34   ar
    98    32    34   ar
    99    32    31    1
   100   117   118    1
   101    39    40    1
   102    28    27    1
   103    28    31    1
   104    28    29    1
   105   122   121    1
   106   122   123    1
   107   121   118    1
   108    29    30    2
   109   125   123   am
   110    40    42   am
   111    40    41    2
   112   118   119    1
   113   123   124    2
   114   120   119    2
   115    42    43    1
   116    26    25   ar
   117    26    24   ar
   118    52    54   ar
   119    52    49   ar
   120    54    55   ar
   121    43    46    1
   122    43    44    1
   123    25    23   ar
   124    24    22   ar
   125    46    47    1
   126    49    47   ar
   127    49    51   ar
   128    55    53   ar
   129    23    20   ar
   130    47    48   ar
   131    22    20   ar
   132    22    21   ar
   133    44    45    2
   134    13    14    1
   135    20    18   ar
   136    21    19   ar
   137    51    53   ar
   138    51    50   ar
   139    48    50   ar
   140    18    19   ar
   141    18    17    1
   142    15    14    1
   143    15    16    2
   144    14    17    1
