@<TRIPOS>MOLECULE
tmp/5y2cA03.pdb
 114 114 0 0 0
SMALL
GASTEIGER

@<TRIPOS>ATOM
      1  N          3.6040  -18.4430    3.6970 N.3    83  TRP83      -0.1241
      2  CA         3.6020  -19.6690    4.4880 C.3    83  TRP83       0.1605
      3  C          2.9380  -19.4550    5.8430 C.2    83  TRP83       0.2264
      4  O          2.0490  -20.2230    6.2470 O.2    83  TRP83      -0.2867
      5  CB         5.0240  -20.1780    4.6840 C.3    83  TRP83       0.0550
      6  CG         5.0610  -21.3860    5.5930 C.ar   83  TRP83       0.0003
      7  CD1        5.4070  -21.4030    6.9120 C.ar   83  TRP83       0.0946
      8  CD2        4.6910  -22.7330    5.2570 C.ar   83  TRP83       0.0152
      9  NE1        5.2970  -22.6770    7.4120 N.ar   83  TRP83      -0.2442
     10  CE2        4.8640  -23.5140    6.4200 C.ar   83  TRP83       0.0810
     11  CE3        4.2510  -23.3590    4.0870 C.ar   83  TRP83       0.0012
     12  CZ2        4.6070  -24.8900    6.4500 C.ar   83  TRP83       0.0191
     13  CZ3        3.9930  -24.7300    4.1170 C.ar   83  TRP83       0.0001
     14  CH2        4.1760  -25.4790    5.2900 C.ar   83  TRP83       0.0015
     15  N         -1.4910  -24.3030    1.2880 N.3   126  TYR126     -0.1241
     16  CA        -1.9180  -24.3840   -0.1180 C.3   126  TYR126      0.1605
     17  C         -3.3830  -24.8180   -0.0800 C.2   126  TYR126      0.2264
     18  O         -3.8350  -25.3140    0.9550 O.2   126  TYR126     -0.2867
     19  CB        -1.0710  -25.3900   -0.9210 C.3   126  TYR126      0.0534
     20  CG         0.4120  -25.3400   -0.6360 C.ar  126  TYR126     -0.0201
     21  CD1        0.9430  -26.0020    0.4630 C.ar  126  TYR126     -0.0009
     22  CD2        1.2910  -24.6490   -1.4660 C.ar  126  TYR126     -0.0009
     23  CE1        2.2900  -25.9710    0.7490 C.ar  126  TYR126      0.0417
     24  CE2        2.6660  -24.6200   -1.1940 C.ar  126  TYR126      0.0417
     25  CZ         3.1560  -25.2910   -0.0810 C.ar  126  TYR126      0.1957
     26  OH         4.5020  -25.2880    0.2460 O.3   126  TYR126     -0.2866
     27  N          1.0640  -27.6470    3.7110 N.3   132  VAL132     -0.1245
     28  CA         1.5990  -28.9010    3.1670 C.3   132  VAL132      0.1561
     29  C          0.9150  -30.1420    3.7530 C.2   132  VAL132      0.2260
     30  O          1.2540  -31.2710    3.3810 O.2   132  VAL132     -0.2867
     31  CB         3.1480  -28.9780    3.2990 C.3   132  VAL132      0.0252
     32  CG1        3.6080  -29.5250    4.6410 C.3   132  VAL132      0.0019
     33  CG2        3.7430  -29.8080    2.1440 C.3   132  VAL132      0.0019
     34  N          2.7010  -24.4560   -5.2310 N.3   168  SER168     -0.1202
     35  CA         3.6180  -25.4950   -4.8030 C.3   168  SER168      0.2020
     36  C          4.3530  -26.1170   -5.9870 C.2   168  SER168      0.2619
     37  O          3.8810  -26.1060   -7.1260 O.2   168  SER168     -0.2717
     38  CB         2.8590  -26.5770   -4.0540 C.3   168  SER168      0.2103
     39  OG         3.7000  -27.6810   -3.7980 O.3   168  SER168     -0.2182
     40  N          5.5310  -26.6670   -5.6940 N.am  169  ALA169     -0.1965
     41  CA         6.3020  -27.4470   -6.6420 C.3   169  ALA169      0.1728
     42  C          6.1410  -28.9500   -6.4360 C.2   169  ALA169      0.2616
     43  O          6.6300  -29.7270   -7.2540 O.2   169  ALA169     -0.2715
     44  CB         7.7720  -27.0580   -6.5520 C.3   169  ALA169      0.0334
     45  N          5.4350  -29.3760   -5.3970 N.am  170  SER170     -0.1950
     46  CA         5.2940  -30.7950   -5.0980 C.3   170  SER170      0.1924
     47  C          4.2170  -31.4170   -5.9640 C.2   170  SER170      0.2314
     48  O          3.0950  -30.9040   -6.0400 O.2   170  SER170     -0.2863
     49  CB         4.9510  -30.9990   -3.6220 C.3   170  SER170      0.2116
     50  OG         4.3230  -32.2520   -3.4030 O.3   170  SER170     -0.2180
     51  N          1.0290  -32.1750   -3.8590 N.3   173  VAL173     -0.1245
     52  CA         0.2430  -30.9810   -3.5430 C.3   173  VAL173      0.1561
     53  C         -0.4730  -30.4630   -4.7890 C.2   173  VAL173      0.2260
     54  O         -1.6380  -30.0460   -4.7230 O.2   173  VAL173     -0.2867
     55  CB         1.1290  -29.8930   -2.8840 C.3   173  VAL173      0.0252
     56  CG1        0.3660  -28.5940   -2.7020 C.3   173  VAL173      0.0019
     57  CG2        1.6460  -30.3700   -1.5270 C.3   173  VAL173      0.0019
     58  N         11.3520  -24.4420   -5.1290 N.3   195  TYR195     -0.1227
     59  CA        12.3980  -24.5240   -4.1220 C.3   195  TYR195      0.1736
     60  C         11.7940  -25.1230   -2.8600 C.2   195  TYR195      0.2595
     61  O         10.6000  -25.4380   -2.8110 O.2   195  TYR195     -0.2718
     62  CB        13.0140  -23.1530   -3.8620 C.3   195  TYR195      0.0548
     63  CG        11.9890  -22.0670   -3.6210 C.ar  195  TYR195     -0.0200
     64  CD1       11.2990  -21.9970   -2.4190 C.ar  195  TYR195     -0.0009
     65  CD2       11.7320  -21.0990   -4.5890 C.ar  195  TYR195     -0.0009
     66  CE1       10.3660  -21.0040   -2.1890 C.ar  195  TYR195      0.0417
     67  CE2       10.8110  -20.0930   -4.3620 C.ar  195  TYR195      0.0417
     68  CZ        10.1250  -20.0490   -3.1620 C.ar  195  TYR195      0.1957
     69  OH         9.1960  -19.0560   -2.9160 O.3   195  TYR195     -0.2866
     70  N         12.6340  -25.2660   -1.8300 N.am  196  ASP196     -0.1960
     71  CA        12.2700  -25.9410   -0.5890 C.3   196  ASP196      0.1840
     72  C         11.8520  -27.3880   -0.8380 C.2   196  ASP196      0.2622
     73  O         10.9870  -27.9250   -0.1490 O.2   196  ASP196     -0.2715
     74  CB        11.1740  -25.1810    0.1580 C.3   196  ASP196      0.1450
     75  CG        11.6850  -23.9210    0.7990 C.2   196  ASP196      0.3671
     76  OD1       12.8920  -23.6240    0.6640 O.co2 196  ASP196     -0.2456
     77  OD2       10.8800  -23.2080    1.4090 O.co2 196  ASP196     -0.2456
     78  N         12.4480  -28.0130   -1.8520 N.am  197  TYR197     -0.1974
     79  CA        12.2820  -29.4460   -2.0470 C.3   197  TYR197      0.1639
     80  C         12.8870  -30.2170   -0.8830 C.2   197  TYR197      0.2290
     81  O         12.4140  -31.3140   -0.5470 O.2   197  TYR197     -0.2864
     82  CB        12.9400  -29.8760   -3.3600 C.3   197  TYR197      0.0560
     83  CG        12.2890  -29.3630   -4.6300 C.ar  197  TYR197     -0.0198
     84  CD1       11.2030  -30.0240   -5.1960 C.ar  197  TYR197     -0.0009
     85  CD2       12.7800  -28.2230   -5.2760 C.ar  197  TYR197     -0.0009
     86  CE1       10.6220  -29.5700   -6.3770 C.ar  197  TYR197      0.0417
     87  CE2       12.2100  -27.7550   -6.4580 C.ar  197  TYR197      0.0417
     88  CZ        11.1340  -28.4310   -7.0020 C.ar  197  TYR197      0.1957
     89  OH        10.5680  -27.9630   -8.1600 O.3   197  TYR197     -0.2866
     90  N         13.4760  -30.4310    7.7520 N.3   201  TRP201     -0.1241
     91  CA        12.3610  -31.3380    8.0080 C.3   201  TRP201      0.1605
     92  C         12.6060  -32.7370    7.4570 C.2   201  TRP201      0.2264
     93  O         12.0100  -33.6960    7.9570 O.2   201  TRP201     -0.2867
     94  CB        11.0750  -30.7760    7.4010 C.3   201  TRP201      0.0550
     95  CG        11.2280  -30.4370    5.9390 C.ar  201  TRP201      0.0003
     96  CD1       11.1160  -31.2950    4.8810 C.ar  201  TRP201      0.0946
     97  CD2       11.5200  -29.1470    5.3760 C.ar  201  TRP201      0.0152
     98  NE1       11.3350  -30.6240    3.6980 N.ar  201  TRP201     -0.2442
     99  CE2       11.5790  -29.3050    3.9730 C.ar  201  TRP201      0.0810
    100  CE3       11.7360  -27.8740    5.9190 C.ar  201  TRP201      0.0012
    101  CZ2       11.8490  -28.2390    3.1070 C.ar  201  TRP201      0.0191
    102  CZ3       12.0020  -26.8210    5.0600 C.ar  201  TRP201      0.0001
    103  CH2       12.0560  -27.0140    3.6660 C.ar  201  TRP201      0.0015
    104  N         11.2800  -34.5080   -7.0730 N.3   222  PHE222     -0.1241
    105  CA        11.7450  -33.3880   -6.2480 C.3   222  PHE222      0.1605
    106  C         12.8630  -32.6180   -6.9550 C.2   222  PHE222      0.2264
    107  O         14.0210  -32.6040   -6.5260 O.2   222  PHE222     -0.2867
    108  CB        12.2170  -33.8900   -4.8880 C.3   222  PHE222      0.0534
    109  CG        11.1050  -34.1540   -3.9210 C.ar  222  PHE222     -0.0203
    110  CD1        9.9770  -34.8410   -4.3110 C.ar  222  PHE222     -0.0042
    111  CD2       11.1970  -33.7240   -2.6130 C.ar  222  PHE222     -0.0042
    112  CE1        8.9530  -35.0880   -3.4200 C.ar  222  PHE222     -0.0003
    113  CE2       10.1770  -33.9730   -1.7160 C.ar  222  PHE222     -0.0003
    114  CZ         9.0580  -34.6530   -2.1180 C.ar  222  PHE222     -0.0000
@<TRIPOS>BOND
     1    89    88    1
     2    43    42    2
     3    37    36    2
     4   104   105    1
     5    88    87   ar
     6    88    86   ar
     7   106   107    2
     8   106   105    1
     9    41    44    1
    10    41    42    1
    11    41    40    1
    12    87    85   ar
    13    42    45   am
    14    86    84   ar
    15   105   108    1
    16    48    47    2
    17    36    40   am
    18    36    35    1
    19    47    46    1
    20    45    46    1
    21    85    83   ar
    22    34    35    1
    23    84    83   ar
    24    58    59    1
    25    46    49    1
    26   108   109    1
    27    35    38    1
    28    53    54    2
    29    53    52    1
    30    83    82    1
    31    65    67   ar
    32    65    63   ar
    33    67    68   ar
    34   110   109   ar
    35   110   112   ar
    36    59    62    1
    37    59    60    1
    38    38    39    1
    39   109   111   ar
    40    62    63    1
    41    51    52    1
    42    49    50    1
    43    63    64   ar
    44    52    55    1
    45   112   114   ar
    46    82    79    1
    47    68    69    1
    48    68    66   ar
    49    55    56    1
    50    55    57    1
    51    60    61    2
    52    60    70   am
    53   111   113   ar
    54    64    66   ar
    55   114   113   ar
    56    79    78    1
    57    79    80    1
    58    78    72   am
    59    70    71    1
    60    22    24   ar
    61    22    20   ar
    62    24    25   ar
    63    19    20    1
    64    19    16    1
    65    80    81    2
    66    72    71    1
    67    72    73    2
    68    20    21   ar
    69    71    74    1
    70    16    17    1
    71    16    15    1
    72    25    26    1
    73    25    23   ar
    74    17    18    2
    75    74    75    1
    76    21    23   ar
    77    76    75   ar
    78    75    77   ar
    79    33    31    1
    80   101   103   ar
    81   101    99   ar
    82    28    31    1
    83    28    27    1
    84    28    29    1
    85    31    32    1
    86    30    29    2
    87   103   102   ar
    88     1     2    1
    89    98    99   ar
    90    98    96   ar
    91    99    97   ar
    92    11    13   ar
    93    11     8   ar
    94    13    14   ar
    95     2     5    1
    96     2     3    1
    97     5     6    1
    98    96    95   ar
    99   102   100   ar
   100     8     6   ar
   101     8    10   ar
   102    14    12   ar
   103    97   100   ar
   104    97    95   ar
   105     6     7   ar
   106     3     4    2
   107    95    94    1
   108    10    12   ar
   109    10     9   ar
   110     7     9   ar
   111    94    91    1
   112    92    93    2
   113    92    91    1
   114    90    91    1
