@<TRIPOS>MOLECULE
tmp/5y2fA02.pdb
 122 114 0 0 0
SMALL
GASTEIGER

@<TRIPOS>ATOM
      1  N        -10.6110  136.5740  159.5010 N.3     1  VAL1       -0.1231
      2  CA       -10.3120  136.2620  158.0670 C.3     1  VAL1        0.1692
      3  C        -10.1820  134.7510  157.8390 C.2     1  VAL1        0.2592
      4  O        -10.8040  134.2060  156.9180 O.2     1  VAL1       -0.2718
      5  CB        -9.0780  137.0520  157.5180 C.3     1  VAL1        0.0266
      6  CG1       -7.7450  136.6520  158.1640 C.3     1  VAL1        0.0020
      7  CG2       -9.0010  136.9240  156.0070 C.3     1  VAL1        0.0020
      8  N         -9.3820  134.0950  158.6800 N.am    2  ASN2       -0.1974
      9  CA        -9.2780  132.6440  158.7260 C.3     2  ASN2        0.1688
     10  C        -10.0530  132.2840  159.9960 C.2     2  ASN2        0.2292
     11  O         -9.6930  132.7070  161.0990 O.2     2  ASN2       -0.2864
     12  CB        -7.8040  132.2110  158.7350 C.3     2  ASN2        0.1181
     13  CG        -7.0520  132.6500  157.4710 C.2     2  ASN2        0.2629
     14  OD1       -7.6600  132.9960  156.4600 O.2     2  ASN2       -0.2716
     15  ND2       -5.7240  132.6440  157.5310 N.am    2  ASN2       -0.0877
     16  N         -8.8240  129.8470  162.6040 N.3     5  ALA5       -0.1245
     17  CA        -7.5560  130.5040  162.9830 C.3     5  ALA5        0.1562
     18  C         -7.7280  131.6860  163.9600 C.2     5  ALA5        0.2260
     19  O         -6.7580  132.0970  164.6170 O.2     5  ALA5       -0.2867
     20  CB        -6.8040  130.9590  161.7430 C.3     5  ALA5        0.0290
     21  N          1.0290  129.3210  148.2950 N.3    60  PRO60      -0.2116
     22  CA         0.5020  130.4770  147.5740 C.3    60  PRO60       0.1372
     23  C          0.9350  131.7930  148.1850 C.2    60  PRO60       0.2244
     24  O          1.2300  131.8630  149.3820 O.2    60  PRO60      -0.2868
     25  CB        -1.0100  130.3200  147.7200 C.3    60  PRO60       0.0268
     26  CG        -1.1920  129.6040  149.0100 C.3    60  PRO60       0.0207
     27  CD         0.0120  128.7140  149.1760 C.3    60  PRO60       0.0892
     28  N         -4.0220  134.0630  148.3750 N.3    68  VAL68      -0.1245
     29  CA        -4.9640  133.7570  149.4270 C.3    68  VAL68       0.1561
     30  C         -5.9810  134.8940  149.5770 C.2    68  VAL68       0.2260
     31  O         -7.1730  134.6250  149.6410 O.2    68  VAL68      -0.2867
     32  CB        -4.2180  133.4890  150.7510 C.3    68  VAL68       0.0252
     33  CG1       -5.1820  133.2560  151.8860 C.3    68  VAL68       0.0019
     34  CG2       -3.3150  132.2800  150.5930 C.3    68  VAL68       0.0019
     35  N        -10.0350  134.9670  148.4650 N.3    72  GLU72      -0.1245
     36  CA       -11.0500  135.3410  149.4660 C.3    72  GLU72       0.1567
     37  C        -11.9200  136.5070  149.0170 C.2    72  GLU72       0.2260
     38  O        -13.1070  136.4970  149.2340 O.2    72  GLU72      -0.2867
     39  CB       -10.4280  135.6850  150.8040 C.3    72  GLU72       0.0388
     40  CG        -9.9760  134.4600  151.5910 C.3    72  GLU72       0.1160
     41  CD        -9.5070  134.8160  152.9990 C.2    72  GLU72       0.3649
     42  OE1       -9.8100  135.9640  153.4580 O.co2  72  GLU72      -0.2457
     43  OE2       -8.8460  133.9380  153.6290 O.co2  72  GLU72      -0.2457
     44  N         -8.8560  129.3140  149.1500 N.3    78  PRO78      -0.2116
     45  CA        -7.4870  129.2900  148.5760 C.3    78  PRO78       0.1372
     46  C         -7.0240  127.8810  148.2330 C.2    78  PRO78       0.2244
     47  O         -7.6560  126.9200  148.6590 O.2    78  PRO78      -0.2868
     48  CB        -6.6340  129.9010  149.6930 C.3    78  PRO78       0.0268
     49  CG        -7.6080  130.7730  150.4450 C.3    78  PRO78       0.0207
     50  CD        -8.8830  129.9830  150.4630 C.3    78  PRO78       0.0892
     51  N         -3.5890  125.2550  148.1870 N.3    80  PHE80      -0.1241
     52  CA        -2.2490  125.0240  148.7010 C.3    80  PHE80       0.1605
     53  C         -1.7790  123.6740  148.1550 C.2    80  PHE80       0.2264
     54  O         -2.4240  122.6500  148.3710 O.2    80  PHE80      -0.2867
     55  CB        -2.2170  125.0770  150.2500 C.3    80  PHE80       0.0534
     56  CG        -3.4460  124.4990  150.9240 C.ar   80  PHE80      -0.0203
     57  CD1       -4.6280  125.2390  150.9990 C.ar   80  PHE80      -0.0042
     58  CD2       -3.4270  123.2200  151.4980 C.ar   80  PHE80      -0.0042
     59  CE1       -5.7630  124.7190  151.6160 C.ar   80  PHE80      -0.0003
     60  CE2       -4.5630  122.6960  152.1190 C.ar   80  PHE80      -0.0003
     61  CZ        -5.7310  123.4470  152.1750 C.ar   80  PHE80      -0.0000
     62  N          1.2350  122.3340  148.9710 N.3    82  THR82      -0.1203
     63  CA         1.9210  121.6650  150.0780 C.3    82  THR82       0.1994
     64  C          1.6250  122.2770  151.4560 C.2    82  THR82       0.2619
     65  O          1.1230  123.3900  151.5570 O.2    82  THR82      -0.2717
     66  CB         3.4470  121.6320  149.8360 C.3    82  THR82       0.1784
     67  OG1        3.9930  122.9410  149.9900 O.3    82  THR82      -0.2211
     68  CG2        3.7640  121.1040  148.4100 C.3    82  THR82       0.0376
     69  N          1.9410  121.5150  152.5030 N.am   83  THR83      -0.1938
     70  CA         1.8950  121.9720  153.8980 C.3    83  THR83       0.2028
     71  C          3.1240  122.7960  154.2350 C.2    83  THR83       0.2642
     72  O          4.1130  122.7510  153.5110 O.2    83  THR83      -0.2714
     73  CB         1.8890  120.7870  154.8830 C.3    83  THR83       0.1808
     74  OG1        3.0480  119.9770  154.6750 O.3    83  THR83      -0.2208
     75  CG2        0.6560  119.9410  154.7000 C.3    83  THR83       0.0379
     76  N          3.0760  123.5280  155.3450 N.am   84  PHE84      -0.1959
     77  CA         4.2520  124.2710  155.7990 C.3    84  PHE84       0.1771
     78  C          5.3930  123.3340  156.2020 C.2    84  PHE84       0.2619
     79  O          6.5150  123.5710  155.7730 O.2    84  PHE84      -0.2715
     80  CB         3.9370  125.2160  156.9620 C.3    84  PHE84       0.0574
     81  CG         3.2880  126.5120  156.5570 C.ar   84  PHE84      -0.0200
     82  CD1        3.8440  127.3190  155.5720 C.ar   84  PHE84      -0.0042
     83  CD2        2.1590  126.9620  157.2130 C.ar   84  PHE84      -0.0042
     84  CE1        3.2580  128.5140  155.2190 C.ar   84  PHE84      -0.0003
     85  CE2        1.5710  128.1600  156.8710 C.ar   84  PHE84      -0.0003
     86  CZ         2.1190  128.9330  155.8690 C.ar   84  PHE84      -0.0000
     87  N          5.1050  122.2810  156.9890 N.am   85  GLU85      -0.1977
     88  CA         6.1370  121.2870  157.3880 C.3    85  GLU85       0.1602
     89  C          6.9120  120.7130  156.2100 C.2    85  GLU85       0.2287
     90  O          8.1310  120.6050  156.2610 O.2    85  GLU85      -0.2864
     91  CB         5.5580  120.0920  158.1560 C.3    85  GLU85       0.0415
     92  CG         5.4480  120.2720  159.6640 C.3    85  GLU85       0.1163
     93  CD         4.1720  120.9780  160.0800 C.2    85  GLU85       0.3649
     94  OE1        3.9490  121.1330  161.3110 O.co2  85  GLU85      -0.2457
     95  OE2        3.4010  121.3750  159.1670 O.co2  85  GLU85      -0.2457
     96  N          5.8280  130.5970  161.5490 N.3   134  MET134     -0.1245
     97  CA         4.9170  129.5400  162.0010 C.3   134  MET134      0.1570
     98  C          5.5780  128.5540  162.9820 C.2   134  MET134      0.2261
     99  O          4.8760  127.8940  163.7690 O.2   134  MET134     -0.2867
    100  CB         4.3900  128.7220  160.8040 C.3   134  MET134      0.0387
    101  CG         3.4110  129.4120  159.8620 C.3   134  MET134      0.0595
    102  SD         1.8780  129.9180  160.6570 S.3   134  MET134     -0.1393
    103  CE         1.1340  128.3240  160.9590 C.3   134  MET134      0.0692
    104  N          4.7870  123.2240  163.1060 N.3   151  VAL151     -0.1245
    105  CA         4.2520  124.5700  163.3170 C.3   151  VAL151      0.1561
    106  C          3.6560  124.6080  164.6960 C.2   151  VAL151      0.2260
    107  O          3.0980  123.6140  165.1410 O.2   151  VAL151     -0.2867
    108  CB         3.2180  125.0040  162.2500 C.3   151  VAL151      0.0252
    109  CG1        3.7760  124.7830  160.8430 C.3   151  VAL151      0.0019
    110  CG2        1.8850  124.2950  162.4340 C.3   151  VAL151      0.0019
    111  N          1.0600  125.9100  166.0270 N.3   153  GLY153     -0.1225
    112  CA        -0.3770  125.6430  166.1130 C.3   153  GLY153      0.1811
    113  C         -1.3410  126.7860  166.4430 C.2   153  GLY153      0.2280
    114  O         -2.5440  126.5580  166.4750 O.2   153  GLY153     -0.2866
    115  N         -1.9900  131.3460  165.7680 N.3   155  MET155     -0.1245
    116  CA        -1.6560  132.5910  165.0500 C.3   155  MET155      0.1570
    117  C         -2.2740  133.7940  165.7630 C.2   155  MET155      0.2261
    118  O         -3.2760  133.6650  166.4380 O.2   155  MET155     -0.2867
    119  CB        -2.2190  132.5490  163.6440 C.3   155  MET155      0.0387
    120  CG        -1.5340  131.5670  162.7250 C.3   155  MET155      0.0595
    121  SD        -2.4860  131.4590  161.2080 S.3   155  MET155     -0.1393
    122  CE        -1.2620  130.9950  160.0120 C.3   155  MET155      0.0692
@<TRIPOS>BOND
     1    22    25    1
     2    22    23    1
     3    22    21    1
     4    25    26    1
     5    53    54    2
     6    53    52    1
     7    23    24    2
     8    51    52    1
     9    46    45    1
    10    46    47    2
    11    21    27    1
    12    28    29    1
    13    68    66    1
    14    35    36    1
    15    45    44    1
    16    45    48    1
    17    52    55    1
    18    62    63    1
    19    26    27    1
    20    37    38    2
    21    37    36    1
    22    44    50    1
    23    29    30    1
    24    29    32    1
    25    36    39    1
    26    30    31    2
    27    48    49    1
    28    66    67    1
    29    66    63    1
    30    63    64    1
    31    55    56    1
    32    49    50    1
    33    34    32    1
    34    32    33    1
    35    39    40    1
    36    56    57   ar
    37    56    58   ar
    38    57    59   ar
    39    64    65    2
    40    64    69   am
    41    58    60   ar
    42    40    41    1
    43    59    61   ar
    44    60    61   ar
    45    69    70    1
    46    41    42   ar
    47    41    43   ar
    48    72    71    2
    49    70    71    1
    50    70    73    1
    51    71    76   am
    52    74    73    1
    53    75    73    1
    54    84    82   ar
    55    84    86   ar
    56    76    77    1
    57    82    81   ar
    58    79    78    2
    59    77    78    1
    60    77    80    1
    61    86    85   ar
    62     7     5    1
    63    78    87   am
    64    89    90    2
    65    89    88    1
    66    14    13    2
    67    81    80    1
    68    81    83   ar
    69    85    83   ar
    70     4     3    2
    71    87    88    1
    72    88    91    1
    73    13    15   am
    74    13    12    1
    75     5     2    1
    76     5     6    1
    77     3     2    1
    78     3     8   am
    79     2     1    1
    80    91    92    1
    81     8     9    1
    82     9    12    1
    83     9    10    1
    84    95    93   ar
    85    92    93    1
    86   101   102    1
    87   101   100    1
    88    10    11    2
    89   122   121    1
    90    93    94   ar
    91   102   103    1
    92   100    97    1
    93   109   108    1
    94   121   120    1
    95    96    97    1
    96    20    17    1
    97    97    98    1
    98   108   110    1
    99   108   105    1
   100    16    17    1
   101   120   119    1
   102    98    99    2
   103    17    18    1
   104   104   105    1
   105   105   106    1
   106   119   116    1
   107    18    19    2
   108   106   107    2
   109   116   117    1
   110   116   115    1
   111   117   118    2
   112   111   112    1
   113   112   113    1
   114   113   114    2
