@<TRIPOS>MOLECULE
tmp/5y2fA04.pdb
 195 190 0 0 0
SMALL
GASTEIGER

@<TRIPOS>ATOM
      1  N         -9.3820  134.0950  158.6800 N.3     2  ASN2       -0.1240
      2  CA        -9.2780  132.6440  158.7260 C.3     2  ASN2        0.1653
      3  C        -10.0530  132.2840  159.9960 C.2     2  ASN2        0.2266
      4  O         -9.6930  132.7070  161.0990 O.2     2  ASN2       -0.2867
      5  CB        -7.8040  132.2110  158.7350 C.3     2  ASN2        0.1155
      6  CG        -7.0520  132.6500  157.4710 C.2     2  ASN2        0.2627
      7  OD1       -7.6600  132.9960  156.4600 O.2     2  ASN2       -0.2716
      8  ND2       -5.7240  132.6440  157.5310 N.am    2  ASN2       -0.0877
      9  N         -8.3510  134.9210  163.5110 N.3     7  LEU7       -0.1245
     10  CA        -7.7040  136.1780  163.1110 C.3     7  LEU7        0.1561
     11  C         -8.7320  137.2580  162.7680 C.2     7  LEU7        0.2260
     12  O         -9.8760  136.9630  162.4420 O.2     7  LEU7       -0.2867
     13  CB        -6.7710  135.9540  161.9170 C.3     7  LEU7        0.0270
     14  CG        -5.5620  135.0260  162.1230 C.3     7  LEU7        0.0019
     15  CD1       -4.7010  135.0140  160.8660 C.3     7  LEU7        0.0001
     16  CD2       -4.7280  135.4190  163.3390 C.3     7  LEU7        0.0001
     17  N         -9.2660  143.3650  158.3750 N.3    11  ALA11      -0.1245
     18  CA        -8.0490  143.8000  157.6810 C.3    11  ALA11       0.1562
     19  C         -8.2980  144.4330  156.3030 C.2    11  ALA11       0.2260
     20  O         -9.1760  144.0170  155.5640 O.2    11  ALA11      -0.2867
     21  CB        -7.0950  142.6220  157.5430 C.3    11  ALA11       0.0290
     22  N         -7.0710  144.1150  152.9450 N.3    13  LYS13      -0.1245
     23  CA        -6.2900  143.2170  152.1030 C.3    13  LYS13       0.1561
     24  C         -5.4540  143.9190  151.0090 C.2    13  LYS13       0.2260
     25  O         -4.6320  143.2790  150.3790 O.2    13  LYS13      -0.2867
     26  CB        -7.2060  142.1760  151.4420 C.3    13  LYS13       0.0271
     27  CG        -8.0490  141.3030  152.3780 C.3    13  LYS13       0.0035
     28  CD        -7.2150  140.7660  153.5250 C.3    13  LYS13       0.0206
     29  CE        -7.8900  139.6700  154.3240 C.3    13  LYS13       0.1093
     30  NZ        -6.9930  139.2970  155.4580 N.3    13  LYS13      -0.1314
     31  N          3.6050  127.0150  148.1500 N.3    59  ILE59      -0.1231
     32  CA         2.8720  127.8780  149.0590 C.3    59  ILE59       0.1678
     33  C          2.3430  129.0620  148.2390 C.2    59  ILE59       0.2434
     34  O          3.1160  129.7410  147.5760 O.2    59  ILE59      -0.2733
     35  CB         3.7800  128.3760  150.1970 C.3    59  ILE59       0.0265
     36  CG1        4.3210  127.1670  150.9690 C.3    59  ILE59       0.0019
     37  CG2        3.0140  129.3070  151.1440 C.3    59  ILE59       0.0020
     38  CD1        5.3780  127.5150  151.9830 C.3    59  ILE59       0.0001
     39  N          1.0290  129.3210  148.2950 N.am   60  PRO60      -0.2729
     40  CA         0.5020  130.4770  147.5740 C.3    60  PRO60       0.1401
     41  C          0.9350  131.7930  148.1850 C.2    60  PRO60       0.2269
     42  O          1.2300  131.8630  149.3820 O.2    60  PRO60      -0.2865
     43  CB        -1.0100  130.3200  147.7200 C.3    60  PRO60       0.0296
     44  CG        -1.1920  129.6040  149.0100 C.3    60  PRO60       0.0237
     45  CD         0.0120  128.7140  149.1760 C.3    60  PRO60       0.0939
     46  N         -0.2150  136.0520  148.6450 N.3    62  PHE62      -0.1227
     47  CA        -1.4110  136.7110  149.1680 C.3    62  PHE62       0.1736
     48  C         -2.2190  137.4230  148.0940 C.2    62  PHE62       0.2595
     49  O         -3.4350  137.3150  148.0840 O.2    62  PHE62      -0.2718
     50  CB        -1.0120  137.6590  150.3130 C.3    62  PHE62       0.0547
     51  CG        -0.4910  136.9150  151.5060 C.ar   62  PHE62      -0.0202
     52  CD1       -1.3660  136.3450  152.4190 C.ar   62  PHE62      -0.0042
     53  CD2        0.8650  136.6970  151.6700 C.ar   62  PHE62      -0.0042
     54  CE1       -0.8900  135.6000  153.4870 C.ar   62  PHE62      -0.0003
     55  CE2        1.3510  135.9510  152.7530 C.ar   62  PHE62      -0.0003
     56  CZ         0.4710  135.4030  153.6550 C.ar   62  PHE62      -0.0000
     57  N         -1.5420  138.1220  147.1930 N.am   63  ARG63      -0.1980
     58  CA        -2.1970  139.0620  146.2700 C.3    63  ARG63       0.1597
     59  C         -1.9130  138.7830  144.8110 C.2    63  ARG63       0.2287
     60  O         -2.2690  139.5720  143.9570 O.2    63  ARG63      -0.2864
     61  CB        -1.8000  140.4980  146.6320 C.3    63  ARG63       0.0334
     62  CG        -2.2050  140.8350  148.0550 C.3    63  ARG63       0.0492
     63  CD        -1.9260  142.2750  148.4440 C.3    63  ARG63       0.2205
     64  NE        -2.1540  142.4460  149.8740 N.pl3  63  ARG63      -0.0865
     65  CZ        -1.2990  142.0720  150.8160 C.cat  63  ARG63       0.5346
     66  NH1       -0.1530  141.5210  150.4760 N.pl3  63  ARG63       0.1354
     67  NH2       -1.5820  142.2430  152.1060 N.pl3  63  ARG63       0.1354
     68  N         -4.0220  134.0630  148.3750 N.3    68  VAL68      -0.1231
     69  CA        -4.9640  133.7570  149.4270 C.3    68  VAL68       0.1692
     70  C         -5.9810  134.8940  149.5770 C.2    68  VAL68       0.2592
     71  O         -7.1730  134.6250  149.6410 O.2    68  VAL68      -0.2718
     72  CB        -4.2180  133.4890  150.7510 C.3    68  VAL68       0.0266
     73  CG1       -5.1820  133.2560  151.8860 C.3    68  VAL68       0.0020
     74  CG2       -3.3150  132.2800  150.5930 C.3    68  VAL68       0.0020
     75  N         -5.5150  136.1510  149.6110 N.am   69  TRP69      -0.1976
     76  CA        -6.4340  137.2940  149.6940 C.3    69  TRP69       0.1640
     77  C         -7.2090  137.4890  148.3970 C.2    69  TRP69       0.2290
     78  O         -8.3780  137.8190  148.4360 O.2    69  TRP69      -0.2864
     79  CB        -5.7420  138.6100  150.0430 C.3    69  TRP69       0.0576
     80  CG        -4.9500  138.6830  151.2850 C.ar   69  TRP69       0.0006
     81  CD1       -3.9960  139.6220  151.5560 C.ar   69  TRP69       0.0946
     82  CD2       -5.0190  137.8390  152.4470 C.ar   69  TRP69       0.0152
     83  NE1       -3.4580  139.4120  152.7950 N.ar   69  TRP69      -0.2442
     84  CE2       -4.0650  138.3260  153.3650 C.ar   69  TRP69       0.0810
     85  CE3       -5.7790  136.7190  152.8040 C.ar   69  TRP69       0.0012
     86  CZ2       -3.8480  137.7330  154.6060 C.ar   69  TRP69       0.0191
     87  CZ3       -5.5480  136.1160  154.0430 C.ar   69  TRP69       0.0001
     88  CH2       -4.5940  136.6320  154.9290 C.ar   69  TRP69       0.0015
     89  N         -3.5890  125.2550  148.1870 N.3    80  PHE80      -0.1241
     90  CA        -2.2490  125.0240  148.7010 C.3    80  PHE80       0.1605
     91  C         -1.7790  123.6740  148.1550 C.2    80  PHE80       0.2264
     92  O         -2.4240  122.6500  148.3710 O.2    80  PHE80      -0.2867
     93  CB        -2.2170  125.0770  150.2500 C.3    80  PHE80       0.0534
     94  CG        -3.4460  124.4990  150.9240 C.ar   80  PHE80      -0.0203
     95  CD1       -4.6280  125.2390  150.9990 C.ar   80  PHE80      -0.0042
     96  CD2       -3.4270  123.2200  151.4980 C.ar   80  PHE80      -0.0042
     97  CE1       -5.7630  124.7190  151.6160 C.ar   80  PHE80      -0.0003
     98  CE2       -4.5630  122.6960  152.1190 C.ar   80  PHE80      -0.0003
     99  CZ        -5.7310  123.4470  152.1750 C.ar   80  PHE80      -0.0000
    100  N          1.2350  122.3340  148.9710 N.3    82  THR82      -0.1203
    101  CA         1.9210  121.6650  150.0780 C.3    82  THR82       0.1994
    102  C          1.6250  122.2770  151.4560 C.2    82  THR82       0.2619
    103  O          1.1230  123.3900  151.5570 O.2    82  THR82      -0.2717
    104  CB         3.4470  121.6320  149.8360 C.3    82  THR82       0.1784
    105  OG1        3.9930  122.9410  149.9900 O.3    82  THR82      -0.2211
    106  CG2        3.7640  121.1040  148.4100 C.3    82  THR82       0.0376
    107  N          1.9410  121.5150  152.5030 N.am   83  THR83      -0.1938
    108  CA         1.8950  121.9720  153.8980 C.3    83  THR83       0.2028
    109  C          3.1240  122.7960  154.2350 C.2    83  THR83       0.2642
    110  O          4.1130  122.7510  153.5110 O.2    83  THR83      -0.2714
    111  CB         1.8890  120.7870  154.8830 C.3    83  THR83       0.1808
    112  OG1        3.0480  119.9770  154.6750 O.3    83  THR83      -0.2208
    113  CG2        0.6560  119.9410  154.7000 C.3    83  THR83       0.0379
    114  N          3.0760  123.5280  155.3450 N.am   84  PHE84      -0.1973
    115  CA         4.2520  124.2710  155.7990 C.3    84  PHE84       0.1639
    116  C          5.3930  123.3340  156.2020 C.2    84  PHE84       0.2290
    117  O          6.5150  123.5710  155.7730 O.2    84  PHE84      -0.2864
    118  CB         3.9370  125.2160  156.9620 C.3    84  PHE84       0.0560
    119  CG         3.2880  126.5120  156.5570 C.ar   84  PHE84      -0.0200
    120  CD1        3.8440  127.3190  155.5720 C.ar   84  PHE84      -0.0042
    121  CD2        2.1590  126.9620  157.2130 C.ar   84  PHE84      -0.0042
    122  CE1        3.2580  128.5140  155.2190 C.ar   84  PHE84      -0.0003
    123  CE2        1.5710  128.1600  156.8710 C.ar   84  PHE84      -0.0003
    124  CZ         2.1190  128.9330  155.8690 C.ar   84  PHE84      -0.0000
    125  N          6.1090  134.1850  156.8820 N.3   113  VAL113     -0.1245
    126  CA         5.9010  133.3870  158.0600 C.3   113  VAL113      0.1561
    127  C          6.1150  131.8760  157.7840 C.2   113  VAL113      0.2260
    128  O          5.9350  131.0490  158.6950 O.2   113  VAL113     -0.2867
    129  CB         4.4710  133.6100  158.6430 C.3   113  VAL113      0.0252
    130  CG1        4.2530  135.0760  159.0420 C.3   113  VAL113      0.0019
    131  CG2        3.3640  133.1240  157.7020 C.3   113  VAL113      0.0019
    132  N          7.0110  139.6330  160.3030 N.3   131  HIS131     -0.1241
    133  CA         5.6350  139.2070  160.5360 C.3   131  HIS131      0.1621
    134  C          5.4600  137.8770  161.3300 C.2   131  HIS131      0.2264
    135  O          4.3260  137.3940  161.5110 O.2   131  HIS131     -0.2867
    136  CB         4.9210  139.1480  159.1920 C.3   131  HIS131      0.0745
    137  CG         4.8640  140.4660  158.4890 C.ar  131  HIS131      0.0817
    138  ND1        4.4760  140.5880  157.1710 N.ar  131  HIS131     -0.2268
    139  CD2        5.1450  141.7170  158.9220 C.ar  131  HIS131      0.1154
    140  CE1        4.5200  141.8620  156.8270 C.ar  131  HIS131      0.1986
    141  NE2        4.9270  142.5650  157.8710 N.ar  131  HIS131     -0.2212
    142  N         -1.9900  131.3460  165.7680 N.3   155  MET155     -0.1245
    143  CA        -1.6560  132.5910  165.0500 C.3   155  MET155      0.1570
    144  C         -2.2740  133.7940  165.7630 C.2   155  MET155      0.2261
    145  O         -3.2760  133.6650  166.4380 O.2   155  MET155     -0.2867
    146  CB        -2.2190  132.5490  163.6440 C.3   155  MET155      0.0387
    147  CG        -1.5340  131.5670  162.7250 C.3   155  MET155      0.0595
    148  SD        -2.4860  131.4590  161.2080 S.3   155  MET155     -0.1393
    149  CE        -1.2620  130.9950  160.0120 C.3   155  MET155      0.0692
    150  N          3.1520  134.9220  165.0310 N.3   183  ILE183     -0.1231
    151  CA         2.4680  135.3930  163.8330 C.3   183  ILE183      0.1692
    152  C          1.6710  136.6540  164.1520 C.2   183  ILE183      0.2592
    153  O          0.6740  136.5850  164.8710 O.2   183  ILE183     -0.2718
    154  CB         1.4880  134.3240  163.2850 C.3   183  ILE183      0.0266
    155  CG1        2.2070  132.9870  163.0030 C.3   183  ILE183      0.0019
    156  CG2        0.8130  134.8410  162.0320 C.3   183  ILE183      0.0020
    157  CD1        3.4800  133.1320  162.1850 C.3   183  ILE183      0.0001
    158  N          2.1050  137.7960  163.6200 N.am  184  LEU184     -0.1966
    159  CA         1.3390  139.0390  163.7670 C.3   184  LEU184      0.1728
    160  C         -0.0100  138.9300  163.0590 C.2   184  LEU184      0.2616
    161  O         -0.0820  138.4410  161.9250 O.2   184  LEU184     -0.2715
    162  CB         2.0740  140.2140  163.1500 C.3   184  LEU184      0.0311
    163  CG         3.4680  140.5270  163.6640 C.3   184  LEU184      0.0022
    164  CD1        3.9110  141.8920  163.1240 C.3   184  LEU184      0.0001
    165  CD2        3.5250  140.4750  165.1920 C.3   184  LEU184      0.0001
    166  N         -1.0800  139.3570  163.7340 N.am  185  ASP185     -0.1957
    167  CA        -2.3440  139.6580  163.0440 C.3   185  ASP185      0.1840
    168  C         -2.2750  141.0730  162.5300 C.2   185  ASP185      0.2622
    169  O         -1.4100  141.8510  162.9260 O.2   185  ASP185     -0.2715
    170  CB        -3.5430  139.5580  163.9840 C.3   185  ASP185      0.1450
    171  CG        -4.8260  139.2160  163.2620 C.2   185  ASP185      0.3671
    172  OD1       -4.9130  139.3650  162.0200 O.co2 185  ASP185     -0.2456
    173  OD2       -5.7680  138.7580  163.9470 O.co2 185  ASP185     -0.2456
    174  N         -3.2170  141.3970  161.6570 N.am  186  TRP186     -0.1974
    175  CA        -3.4850  142.7630  161.2050 C.3   186  TRP186      0.1640
    176  C         -3.4020  143.7740  162.3440 C.2   186  TRP186      0.2290
    177  O         -4.0640  143.6400  163.3640 O.2   186  TRP186     -0.2864
    178  CB        -4.8720  142.7930  160.5580 C.3   186  TRP186      0.0576
    179  CG        -5.3390  144.1390  160.1890 C.ar  186  TRP186      0.0006
    180  CD1       -6.2550  144.8880  160.8570 C.ar  186  TRP186      0.0946
    181  CD2       -4.9050  144.9220  159.0780 C.ar  186  TRP186      0.0152
    182  NE1       -6.4230  146.0870  160.2360 N.ar  186  TRP186     -0.2442
    183  CE2       -5.6040  146.1440  159.1420 C.ar  186  TRP186      0.0810
    184  CE3       -3.9980  144.7140  158.0350 C.ar  186  TRP186      0.0012
    185  CZ2       -5.4350  147.1520  158.2030 C.ar  186  TRP186      0.0191
    186  CZ3       -3.8230  145.7250  157.1060 C.ar  186  TRP186      0.0001
    187  CH2       -4.5440  146.9290  157.1980 C.ar  186  TRP186      0.0015
    188  N          2.3870  146.3570  152.3590 N.3   217  ILE217     -0.1245
    189  CA         2.2500  146.3450  153.8140 C.3   217  ILE217      0.1561
    190  C          3.4180  147.0510  154.4640 C.2   217  ILE217      0.2260
    191  O          4.5560  146.7390  154.1750 O.2   217  ILE217     -0.2867
    192  CB         2.1260  144.9150  154.3600 C.3   217  ILE217      0.0252
    193  CG1        0.8390  144.2670  153.8360 C.3   217  ILE217      0.0019
    194  CG2        2.1340  144.9020  155.8940 C.3   217  ILE217      0.0019
    195  CD1       -0.4450  144.7610  154.4980 C.3   217  ILE217      0.0001
@<TRIPOS>BOND
     1    60    59    2
     2    59    58    1
     3    58    61    1
     4    58    57    1
     5    61    62    1
     6    57    48   am
     7    40    43    1
     8    40    41    1
     9    40    39    1
    10    34    33    2
    11    43    44    1
    12    62    63    1
    13    49    48    2
    14    48    47    1
    15    31    32    1
    16    91    92    2
    17    91    90    1
    18    41    42    2
    19    89    90    1
    20    33    39   am
    21    33    32    1
    22    39    45    1
    23    68    69    1
    24    77    78    2
    25    77    76    1
    26   106   104    1
    27    63    64    1
    28    46    47    1
    29    90    93    1
    30   100   101    1
    31    44    45    1
    32    32    35    1
    33    47    50    1
    34    69    70    1
    35    69    72    1
    36    70    75   am
    37    70    71    2
    38    75    76    1
    39    76    79    1
    40   104   105    1
    41   104   101    1
    42    64    65    2
    43    79    80    1
    44   101   102    1
    45    35    36    1
    46    35    37    1
    47    93    94    1
    48    50    51    1
    49    25    24    2
    50    66    65    1
    51    74    72    1
    52    72    73    1
    53    65    67    1
    54    94    95   ar
    55    94    96   ar
    56    36    38    1
    57    95    97   ar
    58    24    23    1
    59    80    81   ar
    60    80    82   ar
    61    26    23    1
    62    26    27    1
    63   102   103    2
    64   102   107   am
    65    96    98   ar
    66    51    53   ar
    67    51    52   ar
    68    81    83   ar
    69    97    99   ar
    70    53    55   ar
    71    23    22    1
    72    98    99   ar
    73   188   189    1
    74    27    28    1
    75    52    54   ar
    76    82    85   ar
    77    82    84   ar
    78   107   108    1
    79    55    56   ar
    80    83    84   ar
    81    85    87   ar
    82    84    86   ar
    83    54    56   ar
    84   110   109    2
    85    28    29    1
    86   189   192    1
    87   189   190    1
    88   193   192    1
    89   193   195    1
    90   108   109    1
    91   108   111    1
    92    87    88   ar
    93   191   190    2
    94   109   114   am
    95    29    30    1
    96   192   194    1
    97    86    88   ar
    98   112   111    1
    99   113   111    1
   100   122   120   ar
   101   122   124   ar
   102   114   115    1
   103    20    19    2
   104   120   119   ar
   105   117   116    2
   106   115   116    1
   107   115   118    1
   108   124   123   ar
   109    19    18    1
   110     7     6    2
   111   119   118    1
   112   119   121   ar
   113   140   138   ar
   114   140   141   ar
   115   123   121   ar
   116   125   126    1
   117   186   187   ar
   118   186   184   ar
   119   138   137   ar
   120   187   185   ar
   121     6     8   am
   122     6     5    1
   123    21    18    1
   124    18    17    1
   125   131   129    1
   126   127   126    1
   127   127   128    2
   128   141   139   ar
   129   184   181   ar
   130   126   129    1
   131   185   183   ar
   132   137   139   ar
   133   137   136    1
   134   129   130    1
   135     1     2    1
   136     2     5    1
   137     2     3    1
   138   181   183   ar
   139   181   179   ar
   140   183   182   ar
   141   136   133    1
   142     3     4    2
   143   149   148    1
   144   179   178    1
   145   179   180   ar
   146   182   180   ar
   147   132   133    1
   148   133   134    1
   149   178   175    1
   150    15    14    1
   151   175   174    1
   152   175   176    1
   153   148   147    1
   154   134   135    2
   155   174   168   am
   156    13    14    1
   157    13    10    1
   158   161   160    2
   159   172   171   ar
   160   156   154    1
   161    14    16    1
   162   157   155    1
   163   176   177    2
   164    12    11    2
   165   168   169    2
   166   168   167    1
   167   147   146    1
   168    11    10    1
   169   155   154    1
   170   167   166    1
   171   167   170    1
   172   160   166   am
   173   160   159    1
   174    10     9    1
   175   164   163    1
   176   162   163    1
   177   162   159    1
   178   171   173   ar
   179   171   170    1
   180   154   151    1
   181   158   159    1
   182   158   152   am
   183   146   143    1
   184   163   165    1
   185   151   152    1
   186   151   150    1
   187   152   153    2
   188   143   144    1
   189   143   142    1
   190   144   145    2
