@<TRIPOS>MOLECULE
tmp/5y2fA01.pdb
 221 216 0 0 0
SMALL
GASTEIGER

@<TRIPOS>ATOM
      1  N          0.0970  139.7180  135.9980 N.3    20  GLU20      -0.1245
      2  CA         1.5370  139.5490  135.9910 C.3    20  GLU20       0.1567
      3  C          2.1180  140.0430  134.6720 C.2    20  GLU20       0.2260
      4  O          1.5260  139.8480  133.6240 O.2    20  GLU20      -0.2867
      5  CB         1.8840  138.0810  136.2560 C.3    20  GLU20       0.0388
      6  CG         1.3160  137.6240  137.5950 C.3    20  GLU20       0.1160
      7  CD         1.8950  136.3250  138.1320 C.2    20  GLU20       0.3649
      8  OE1        1.8530  135.3340  137.3660 O.co2  20  GLU20      -0.2457
      9  OE2        2.3350  136.3050  139.3310 O.co2  20  GLU20      -0.2457
     10  N          9.3490  138.5640  150.1980 N.3    50  GLY50      -0.1210
     11  CA         7.9420  138.3140  150.4110 C.3    50  GLY50       0.1956
     12  C          7.4850  136.9970  149.8240 C.2    50  GLY50       0.2612
     13  O          8.2780  136.2100  149.3240 O.2    50  GLY50      -0.2717
     14  N          6.1730  136.8040  149.8300 N.am   51  ALA51      -0.1965
     15  CA         5.5680  135.5230  149.5400 C.3    51  ALA51       0.1728
     16  C          5.8970  134.9510  148.1520 C.2    51  ALA51       0.2616
     17  O          5.8020  133.7330  147.9360 O.2    51  ALA51      -0.2715
     18  CB         4.0710  135.6120  149.7440 C.3    51  ALA51       0.0334
     19  N          6.2990  135.8190  147.2250 N.am   52  GLY52      -0.1955
     20  CA         6.6580  135.3900  145.8870 C.3    52  GLY52       0.1869
     21  C          7.8170  134.4140  145.8090 C.2    52  GLY52       0.2309
     22  O          7.9050  133.6450  144.8470 O.2    52  GLY52      -0.2863
     23  N          6.4090  130.6300  146.2480 N.3    55  THR55      -0.1203
     24  CA         5.4040  130.0640  145.3360 C.3    55  THR55       0.1994
     25  C          5.9160  128.8010  144.6190 C.2    55  THR55       0.2617
     26  O          5.1820  127.8100  144.5020 O.2    55  THR55      -0.2717
     27  CB         4.8330  131.0910  144.3250 C.3    55  THR55       0.1784
     28  OG1        5.8880  131.8320  143.6970 O.3    55  THR55      -0.2211
     29  CG2        3.8650  132.0490  145.0360 C.3    55  THR55       0.0376
     30  N          7.1820  128.8090  144.2110 N.am   56  ALA56      -0.1979
     31  CA         7.7840  127.6100  143.6050 C.3    56  ALA56       0.1597
     32  C          7.7610  126.3960  144.5340 C.2    56  ALA56       0.2287
     33  O          7.7450  125.2760  144.0620 O.2    56  ALA56      -0.2864
     34  CB         9.2060  127.8820  143.1050 C.3    56  ALA56       0.0319
     35  N          0.9700  132.8240  147.3540 N.3    61  ASP61      -0.1225
     36  CA         1.1550  134.2020  147.8280 C.3    61  ASP61       0.1805
     37  C         -0.1950  134.7680  148.3110 C.2    61  ASP61       0.2598
     38  O         -1.1750  134.0330  148.4240 O.2    61  ASP61      -0.2718
     39  CB         1.8470  135.0860  146.7690 C.3    61  ASP61       0.1424
     40  CG         1.0810  135.1660  145.4760 C.2    61  ASP61       0.3668
     41  OD1       -0.1360  134.8890  145.5160 O.co2  61  ASP61      -0.2456
     42  OD2        1.6940  135.4910  144.4240 O.co2  61  ASP61      -0.2456
     43  N         -0.2150  136.0520  148.6450 N.am   62  PHE62      -0.1962
     44  CA        -1.4110  136.7110  149.1680 C.3    62  PHE62       0.1771
     45  C         -2.2190  137.4230  148.0940 C.2    62  PHE62       0.2619
     46  O         -3.4350  137.3150  148.0840 O.2    62  PHE62      -0.2715
     47  CB        -1.0120  137.6590  150.3130 C.3    62  PHE62       0.0574
     48  CG        -0.4910  136.9150  151.5060 C.ar   62  PHE62      -0.0200
     49  CD1       -1.3660  136.3450  152.4190 C.ar   62  PHE62      -0.0042
     50  CD2        0.8650  136.6970  151.6700 C.ar   62  PHE62      -0.0042
     51  CE1       -0.8900  135.6000  153.4870 C.ar   62  PHE62      -0.0003
     52  CE2        1.3510  135.9510  152.7530 C.ar   62  PHE62      -0.0003
     53  CZ         0.4710  135.4030  153.6550 C.ar   62  PHE62      -0.0000
     54  N         -1.5420  138.1220  147.1930 N.am   63  ARG63      -0.1963
     55  CA        -2.1970  139.0620  146.2700 C.3    63  ARG63       0.1729
     56  C         -1.9130  138.7830  144.8110 C.2    63  ARG63       0.2616
     57  O         -2.2690  139.5720  143.9570 O.2    63  ARG63      -0.2715
     58  CB        -1.8000  140.4980  146.6320 C.3    63  ARG63       0.0348
     59  CG        -2.2050  140.8350  148.0550 C.3    63  ARG63       0.0492
     60  CD        -1.9260  142.2750  148.4440 C.3    63  ARG63       0.2205
     61  NE        -2.1540  142.4460  149.8740 N.pl3  63  ARG63      -0.0865
     62  CZ        -1.2990  142.0720  150.8160 C.cat  63  ARG63       0.5346
     63  NH1       -0.1530  141.5210  150.4760 N.pl3  63  ARG63       0.1354
     64  NH2       -1.5820  142.2430  152.1060 N.pl3  63  ARG63       0.1354
     65  N         -1.3040  137.6410  144.5120 N.am   64  GLY64      -0.1955
     66  CA        -1.0770  137.2500  143.1300 C.3    64  GLY64       0.1869
     67  C         -2.3860  136.8050  142.4980 C.2    64  GLY64       0.2309
     68  O         -3.4240  136.7960  143.1740 O.2    64  GLY64      -0.2863
     69  N         -5.5150  136.1510  149.6110 N.3    69  TRP69      -0.1241
     70  CA        -6.4340  137.2940  149.6940 C.3    69  TRP69       0.1605
     71  C         -7.2090  137.4890  148.3970 C.2    69  TRP69       0.2264
     72  O         -8.3780  137.8190  148.4360 O.2    69  TRP69      -0.2867
     73  CB        -5.7420  138.6100  150.0430 C.3    69  TRP69       0.0550
     74  CG        -4.9500  138.6830  151.2850 C.ar   69  TRP69       0.0003
     75  CD1       -3.9960  139.6220  151.5560 C.ar   69  TRP69       0.0946
     76  CD2       -5.0190  137.8390  152.4470 C.ar   69  TRP69       0.0152
     77  NE1       -3.4580  139.4120  152.7950 N.ar   69  TRP69      -0.2442
     78  CE2       -4.0650  138.3260  153.3650 C.ar   69  TRP69       0.0810
     79  CE3       -5.7790  136.7190  152.8040 C.ar   69  TRP69       0.0012
     80  CZ2       -3.8480  137.7330  154.6060 C.ar   69  TRP69       0.0191
     81  CZ3       -5.5480  136.1160  154.0430 C.ar   69  TRP69       0.0001
     82  CH2       -4.5940  136.6320  154.9290 C.ar   69  TRP69       0.0015
     83  N          9.0480  139.1800  155.1460 N.3   111  GLN111     -0.1231
     84  CA         7.7050  139.2860  155.6320 C.3   111  GLN111      0.1698
     85  C          7.0680  137.9200  155.7210 C.2   111  GLN111      0.2592
     86  O          5.9180  137.8130  156.1690 O.2   111  GLN111     -0.2718
     87  CB         6.9100  140.1720  154.6970 C.3   111  GLN111      0.0381
     88  CG         7.4160  141.6000  154.6440 C.3   111  GLN111      0.0905
     89  CD         6.9120  142.3240  153.4210 C.2   111  GLN111      0.2608
     90  OE1        7.6660  142.5640  152.4710 O.2   111  GLN111     -0.2717
     91  NE2        5.6230  142.6250  153.4110 N.am  111  GLN111     -0.0878
     92  N          7.8050  136.8840  155.3080 N.am  112  ASN112     -0.1960
     93  CA         7.2720  135.5280  155.2570 C.3   112  ASN112      0.1819
     94  C          7.2220  134.8520  156.6260 C.2   112  ASN112      0.2621
     95  O          8.1490  134.9510  157.4130 O.2   112  ASN112     -0.2715
     96  CB         8.0780  134.6740  154.2870 C.3   112  ASN112      0.1195
     97  CG         7.9700  135.1630  152.8540 C.2   112  ASN112      0.2630
     98  OD1        7.0540  135.9100  152.4900 O.2   112  ASN112     -0.2716
     99  ND2        8.9040  134.7410  152.0300 N.am  112  ASN112     -0.0877
    100  N          6.1090  134.1850  156.8820 N.am  113  VAL113     -0.1977
    101  CA         5.9010  133.3870  158.0600 C.3   113  VAL113      0.1596
    102  C          6.1150  131.8760  157.7840 C.2   113  VAL113      0.2287
    103  O          5.9350  131.0490  158.6950 O.2   113  VAL113     -0.2864
    104  CB         4.4710  133.6100  158.6430 C.3   113  VAL113      0.0276
    105  CG1        4.2530  135.0760  159.0420 C.3   113  VAL113      0.0022
    106  CG2        3.3640  133.1240  157.7020 C.3   113  VAL113      0.0022
    107  N          7.0110  139.6330  160.3030 N.3   131  HIS131     -0.1241
    108  CA         5.6350  139.2070  160.5360 C.3   131  HIS131      0.1621
    109  C          5.4600  137.8770  161.3300 C.2   131  HIS131      0.2264
    110  O          4.3260  137.3940  161.5110 O.2   131  HIS131     -0.2867
    111  CB         4.9210  139.1480  159.1920 C.3   131  HIS131      0.0745
    112  CG         4.8640  140.4660  158.4890 C.ar  131  HIS131      0.0817
    113  ND1        4.4760  140.5880  157.1710 N.ar  131  HIS131     -0.2268
    114  CD2        5.1450  141.7170  158.9220 C.ar  131  HIS131      0.1154
    115  CE1        4.5200  141.8620  156.8270 C.ar  131  HIS131      0.1986
    116  NE2        4.9270  142.5650  157.8710 N.ar  131  HIS131     -0.2212
    117  N          9.8010  139.1660  145.3160 N.3   212  GLY212     -0.1210
    118  CA         8.5090  138.5500  145.5730 C.3   212  GLY212      0.1956
    119  C          7.6540  139.2180  146.6480 C.2   212  GLY212      0.2613
    120  O          6.9640  138.5220  147.3880 O.2   212  GLY212     -0.2717
    121  N          7.7150  140.5470  146.7570 N.am  213  THR213     -0.1938
    122  CA         6.7440  141.2940  147.5660 C.3   213  THR213      0.2028
    123  C          6.1190  142.4060  146.7210 C.2   213  THR213      0.2643
    124  O          6.7910  143.0080  145.8910 O.2   213  THR213     -0.2714
    125  CB         7.3440  141.8400  148.8820 C.3   213  THR213      0.1808
    126  OG1        6.4100  142.7120  149.5430 O.3   213  THR213     -0.2208
    127  CG2        8.6270  142.5700  148.6330 C.3   213  THR213      0.0379
    128  N          4.8210  142.6420  146.9100 N.am  214  SER214     -0.1935
    129  CA         4.1380  143.7710  146.2470 C.3   214  SER214      0.2055
    130  C          4.2990  145.0860  147.0220 C.2   214  SER214      0.2643
    131  O          3.8410  146.1130  146.5610 O.2   214  SER214     -0.2714
    132  CB         2.6640  143.4510  145.9880 C.3   214  SER214      0.2130
    133  OG         1.9670  143.3020  147.1990 O.3   214  SER214     -0.2179
    134  N          4.9640  145.0370  148.1740 N.am  215  LEU215     -0.1963
    135  CA         5.3340  146.2040  148.9710 C.3   215  LEU215      0.1728
    136  C          4.1530  147.0420  149.4860 C.2   215  LEU215      0.2616
    137  O          4.2870  148.2330  149.7510 O.2   215  LEU215     -0.2715
    138  CB         6.3610  147.0750  148.2210 C.3   215  LEU215      0.0311
    139  CG         7.6660  146.3850  147.8240 C.3   215  LEU215      0.0022
    140  CD1        8.5260  147.3520  147.0370 C.3   215  LEU215      0.0001
    141  CD2        8.4420  145.9200  149.0360 C.3   215  LEU215      0.0001
    142  N          3.0250  146.3850  149.7010 N.am  216  GLN216     -0.1963
    143  CA         1.8110  147.0650  150.1000 C.3   216  GLN216      0.1733
    144  C          1.6600  147.1750  151.5900 C.2   216  GLN216      0.2616
    145  O          0.8290  147.9660  152.0380 O.2   216  GLN216     -0.2715
    146  CB         0.5790  146.3380  149.5360 C.3   216  GLN216      0.0408
    147  CG         0.5000  146.3740  148.0230 C.3   216  GLN216      0.0908
    148  CD        -0.8290  145.8920  147.4880 C.2   216  GLN216      0.2608
    149  OE1       -1.8740  146.4930  147.7660 O.2   216  GLN216     -0.2717
    150  NE2       -0.8010  144.8240  146.6940 N.am  216  GLN216     -0.0878
    151  N          2.3870  146.3570  152.3590 N.am  217  ILE217     -0.1977
    152  CA         2.2500  146.3450  153.8140 C.3   217  ILE217      0.1596
    153  C          3.4180  147.0510  154.4640 C.2   217  ILE217      0.2287
    154  O          4.5560  146.7390  154.1750 O.2   217  ILE217     -0.2864
    155  CB         2.1260  144.9150  154.3600 C.3   217  ILE217      0.0276
    156  CG1        0.8390  144.2670  153.8360 C.3   217  ILE217      0.0022
    157  CG2        2.1340  144.9020  155.8940 C.3   217  ILE217      0.0022
    158  CD1       -0.4450  144.7610  154.4980 C.3   217  ILE217      0.0001
    159  N         12.3710  143.0130  142.1110 N.3   237  VAL237     -0.1231
    160  CA        12.1210  141.8060  141.3600 C.3   237  VAL237      0.1692
    161  C         10.7360  141.2840  141.7510 C.2   237  VAL237      0.2592
    162  O         10.5350  140.8880  142.8930 O.2   237  VAL237     -0.2718
    163  CB        13.1840  140.7240  141.6590 C.3   237  VAL237      0.0266
    164  CG1       12.9650  139.5120  140.7670 C.3   237  VAL237      0.0020
    165  CG2       14.5740  141.2880  141.4510 C.3   237  VAL237      0.0020
    166  N          9.7970  141.2790  140.8010 N.am  238  ASN238     -0.1960
    167  CA         8.4220  140.8720  141.0610 C.3   238  ASN238      0.1819
    168  C          7.6520  140.7110  139.7650 C.2   238  ASN238      0.2621
    169  O          7.7750  141.5430  138.8790 O.2   238  ASN238     -0.2715
    170  CB         7.7090  141.9550  141.9090 C.3   238  ASN238      0.1195
    171  CG         6.6330  141.3720  142.8230 C.2   238  ASN238      0.2630
    172  OD1        6.9210  140.5470  143.6870 O.2   238  ASN238     -0.2716
    173  ND2        5.3990  141.8030  142.6410 N.am  238  ASN238     -0.0877
    174  N          6.8180  139.6850  139.6740 N.am  239  LEU239     -0.1963
    175  CA         5.9300  139.5390  138.5150 C.3   239  LEU239      0.1728
    176  C          4.8390  140.6290  138.3880 C.2   239  LEU239      0.2616
    177  O          4.7110  141.2440  137.3440 O.2   239  LEU239     -0.2715
    178  CB         5.3100  138.1470  138.4900 C.3   239  LEU239      0.0311
    179  CG         6.3220  137.0590  138.1150 C.3   239  LEU239      0.0022
    180  CD1        5.6170  135.7230  138.0840 C.3   239  LEU239      0.0001
    181  CD2        6.9770  137.3260  136.7740 C.3   239  LEU239      0.0001
    182  N          4.0660  140.8690  139.4440 N.am  240  GLN240     -0.1977
    183  CA         3.1040  141.9690  139.4490 C.3   240  GLN240      0.1601
    184  C          3.8370  143.2800  139.5850 C.2   240  GLN240      0.2287
    185  O          4.9980  143.2950  139.9590 O.2   240  GLN240     -0.2864
    186  CB         2.1170  141.8440  140.6200 C.3   240  GLN240      0.0394
    187  CG         1.0290  140.7920  140.4200 C.3   240  GLN240      0.0908
    188  CD         0.1670  140.5950  141.6520 C.2   240  GLN240      0.2608
    189  OE1        0.5820  140.8660  142.7720 O.2   240  GLN240     -0.2717
    190  NE2       -1.0390  140.1240  141.4470 N.am  240  GLN240     -0.0878
    191  N         10.1640  138.9470  136.2560 N.3   254  GLY254     -0.1210
    192  CA        10.3650  137.5450  135.9260 C.3   254  GLY254      0.1956
    193  C         10.3100  136.6620  137.1430 C.2   254  GLY254      0.2612
    194  O         10.3170  137.1370  138.2910 O.2   254  GLY254     -0.2717
    195  N         10.2520  135.3630  136.8960 N.am  255  TYR255     -0.1962
    196  CA        10.2940  134.3920  137.9780 C.3   255  TYR255      0.1771
    197  C         11.5750  134.6010  138.7850 C.2   255  TYR255      0.2619
    198  O         12.6440  134.8690  138.2230 O.2   255  TYR255     -0.2715
    199  CB        10.1960  132.9820  137.4520 C.3   255  TYR255      0.0574
    200  CG         8.8320  132.6710  136.8930 C.ar  255  TYR255     -0.0198
    201  CD1        7.7970  132.2690  137.7300 C.ar  255  TYR255     -0.0009
    202  CD2        8.5720  132.7660  135.5200 C.ar  255  TYR255     -0.0009
    203  CE1        6.5410  131.9790  137.2280 C.ar  255  TYR255      0.0417
    204  CE2        7.3120  132.4720  135.0030 C.ar  255  TYR255      0.0417
    205  CZ         6.2950  132.0830  135.8630 C.ar  255  TYR255      0.1957
    206  OH         5.0340  131.7910  135.3790 O.3   255  TYR255     -0.2866
    207  N         11.4420  134.5470  140.1040 N.am  256  VAL256     -0.1963
    208  CA        12.5300  134.9180  141.0030 C.3   256  VAL256      0.1727
    209  C         13.6170  133.8200  141.0190 C.2   256  VAL256      0.2616
    210  O         14.8060  134.1260  141.0530 O.2   256  VAL256     -0.2715
    211  CB        11.9890  135.3290  142.4150 C.3   256  VAL256      0.0290
    212  CG1       11.4830  134.1430  143.2310 C.3   256  VAL256      0.0023
    213  CG2       13.0400  136.1030  143.1890 C.3   256  VAL256      0.0023
    214  N         13.2110  132.5560  140.9530 N.am  257  ASP257     -0.1971
    215  CA        14.1610  131.4610  140.7920 C.3   257  ASP257      0.1709
    216  C         15.0340  131.6070  139.5390 C.2   257  ASP257      0.2293
    217  O         16.2520  131.5020  139.6470 O.2   257  ASP257     -0.2864
    218  CB        13.4600  130.0950  140.8020 C.3   257  ASP257      0.1436
    219  CG        13.1120  129.6180  142.2070 C.2   257  ASP257      0.3671
    220  OD1       13.6740  130.1610  143.1990 O.co2 257  ASP257     -0.2456
    221  OD2       12.2790  128.6830  142.3160 O.co2 257  ASP257     -0.2456
@<TRIPOS>BOND
     1     4     3    2
     2     3     2    1
     3   204   202   ar
     4   204   205   ar
     5   206   205    1
     6   202   200   ar
     7   205   203   ar
     8   192   191    1
     9   192   193    1
    10     2     1    1
    11     2     5    1
    12     5     6    1
    13   181   179    1
    14   200   199    1
    15   200   201   ar
    16   195   193   am
    17   195   196    1
    18   193   194    2
    19   203   201   ar
    20   177   176    2
    21     8     7   ar
    22   199   196    1
    23     6     7    1
    24   196   197    1
    25   180   179    1
    26   179   178    1
    27     7     9   ar
    28   198   197    2
    29   176   175    1
    30   176   182   am
    31   178   175    1
    32   175   174    1
    33   197   207   am
    34   169   168    2
    35   182   183    1
    36   183   184    1
    37   183   186    1
    38   216   217    2
    39   216   215    1
    40   184   185    2
    41   174   168   am
    42   168   167    1
    43   207   208    1
    44   187   186    1
    45   187   188    1
    46   164   163    1
    47   215   218    1
    48   215   214    1
    49   166   167    1
    50   166   161   am
    51   218   219    1
    52   214   209   am
    53   208   209    1
    54   208   211    1
    55   209   210    2
    56   167   170    1
    57   160   163    1
    58   160   161    1
    59   160   159    1
    60   190   188   am
    61   165   163    1
    62   188   189    2
    63   161   162    2
    64   170   171    1
    65   219   221   ar
    66   219   220   ar
    67   211   213    1
    68   211   212    1
    69    67    66    1
    70    67    68    2
    71   173   171   am
    72   171   172    2
    73    34    31    1
    74    66    65    1
    75    31    30    1
    76    31    32    1
    77    28    27    1
    78    57    56    2
    79    33    32    2
    80    30    25   am
    81    27    29    1
    82    27    24    1
    83    42    40   ar
    84    26    25    2
    85    65    56   am
    86    25    24    1
    87    56    55    1
    88    22    21    2
    89   117   118    1
    90    24    23    1
    91    40    41   ar
    92    40    39    1
    93   118   119    1
    94    21    20    1
    95    20    19    1
    96   124   123    2
    97   132   129    1
    98   132   133    1
    99   129   128    1
   100   129   130    1
   101    55    58    1
   102    55    54    1
   103   131   130    2
   104    58    59    1
   105   119   121   am
   106   119   120    2
   107   150   148   am
   108   123   128   am
   109   123   122    1
   110   121   122    1
   111    39    36    1
   112   130   134   am
   113   140   139    1
   114    54    45   am
   115    19    16   am
   116    35    36    1
   117   148   149    2
   118   148   147    1
   119   122   125    1
   120   139   138    1
   121   139   141    1
   122    36    37    1
   123    17    16    2
   124   147   146    1
   125    59    60    1
   126    46    45    2
   127    45    44    1
   128    16    15    1
   129   134   135    1
   130   138   135    1
   131    37    38    2
   132    37    43   am
   133    71    72    2
   134    71    70    1
   135    60    61    1
   136   127   125    1
   137    43    44    1
   138   125   126    1
   139   135   136    1
   140    44    47    1
   141    13    12    2
   142   136   142   am
   143   136   137    2
   144   146   143    1
   145    15    18    1
   146    15    14    1
   147    69    70    1
   148    70    73    1
   149   142   143    1
   150    12    14   am
   151    12    11    1
   152    61    62    2
   153    73    74    1
   154   143   144    1
   155    10    11    1
   156    47    48    1
   157    63    62    1
   158    62    64    1
   159    74    75   ar
   160    74    76   ar
   161    48    50   ar
   162    48    49   ar
   163    75    77   ar
   164   144   145    2
   165   144   151   am
   166    50    52   ar
   167    99    97   am
   168   151   152    1
   169    49    51   ar
   170    76    79   ar
   171    76    78   ar
   172    90    89    2
   173    98    97    2
   174    52    53   ar
   175    77    78   ar
   176    79    81   ar
   177    97    96    1
   178    78    80   ar
   179    91    89   am
   180    89    88    1
   181    51    53   ar
   182   152   155    1
   183   152   153    1
   184   156   155    1
   185   156   158    1
   186    81    82   ar
   187   154   153    2
   188    96    93    1
   189   155   157    1
   190    80    82   ar
   191    88    87    1
   192    87    84    1
   193    83    84    1
   194    93    92    1
   195    93    94    1
   196    92    85   am
   197    84    85    1
   198    85    86    2
   199    94   100   am
   200    94    95    2
   201   115   113   ar
   202   115   116   ar
   203   100   101    1
   204   113   112   ar
   205   106   104    1
   206   102   101    1
   207   102   103    2
   208   116   114   ar
   209   101   104    1
   210   112   114   ar
   211   112   111    1
   212   104   105    1
   213   111   108    1
   214   107   108    1
   215   108   109    1
   216   109   110    2
