@<TRIPOS>MOLECULE
tmp/5y2gA00.pdb
 173 171 0 0 0
SMALL
GASTEIGER

@<TRIPOS>ATOM
      1  N         69.6810  162.1120   -9.3950 N.3    10  ASN10      -0.1240
      2  CA        68.4990  162.9020   -9.1460 C.3    10  ASN10       0.1653
      3  C         68.5750  164.1500   -9.9920 C.2    10  ASN10       0.2266
      4  O         69.6310  164.7780  -10.0900 O.2    10  ASN10      -0.2867
      5  CB        68.4590  163.2860   -7.6750 C.3    10  ASN10       0.1155
      6  CG        67.1090  163.5730   -7.1910 C.2    10  ASN10       0.2627
      7  OD1       66.1200  163.0060   -7.6690 O.2    10  ASN10      -0.2716
      8  ND2       67.0320  164.4840   -6.2330 N.am   10  ASN10      -0.0877
      9  N         68.5000  167.0160   -9.5050 N.3    12  ASP12      -0.1225
     10  CA        68.9630  168.3000   -8.9890 C.3    12  ASP12       0.1805
     11  C         70.4730  168.3060   -8.7810 C.2    12  ASP12       0.2597
     12  O         71.0080  169.2840   -8.2490 O.2    12  ASP12      -0.2718
     13  CB        68.1960  168.7210   -7.6870 C.3    12  ASP12       0.1424
     14  CG        68.3380  167.7300   -6.5180 C.2    12  ASP12       0.3668
     15  OD1       68.1870  166.4990   -6.6870 O.co2  12  ASP12      -0.2456
     16  OD2       68.5550  168.2160   -5.3950 O.co2  12  ASP12      -0.2456
     17  N         71.1700  167.2540   -9.1800 N.am   13  LYS13      -0.1979
     18  CA        72.5980  167.1140   -8.9920 C.3    13  LYS13       0.1596
     19  C         73.3010  167.1870  -10.3520 C.2    13  LYS13       0.2287
     20  O         72.6760  167.3680  -11.4030 O.2    13  LYS13      -0.2864
     21  CB        72.8810  165.8160   -8.2250 C.3    13  LYS13       0.0298
     22  CG        72.4350  165.9110   -6.7450 C.3    13  LYS13       0.0038
     23  CD        71.9610  164.5690   -6.1680 C.3    13  LYS13       0.0206
     24  CE        71.1450  164.7890   -4.8840 C.3    13  LYS13       0.1093
     25  NZ        70.5100  163.5220   -4.4090 N.3    13  LYS13      -0.1314
     26  N         64.0750  157.0020   -6.0430 N.3    42  GLU42      -0.1231
     27  CA        64.2600  156.3210   -4.7730 C.3    42  GLU42       0.1699
     28  C         63.1100  155.3790   -4.4310 C.2    42  GLU42       0.2592
     29  O         63.3180  154.4340   -3.6700 O.2    42  GLU42      -0.2718
     30  CB        64.4270  157.3370   -3.6380 C.3    42  GLU42       0.0402
     31  CG        63.1740  158.1520   -3.3180 C.3    42  GLU42       0.1161
     32  CD        63.0360  159.3800   -4.1910 C.2    42  GLU42       0.3649
     33  OE1       63.9760  159.6460   -4.9750 O.co2  42  GLU42      -0.2457
     34  OE2       61.9740  160.0500   -4.1320 O.co2  42  GLU42      -0.2457
     35  N         61.9070  155.6010   -4.9560 N.am   43  GLU43      -0.1979
     36  CA        60.7670  154.7670   -4.6000 C.3    43  GLU43       0.1602
     37  C         60.3430  153.8260   -5.7140 C.2    43  GLU43       0.2287
     38  O         59.4230  153.0260   -5.5180 O.2    43  GLU43      -0.2864
     39  CB        59.5860  155.6370   -4.1610 C.3    43  GLU43       0.0415
     40  CG        59.8580  156.3180   -2.8420 C.3    43  GLU43       0.1163
     41  CD        58.7880  157.3210   -2.4510 C.2    43  GLU43       0.3649
     42  OE1       58.8890  157.8970   -1.3150 O.co2  43  GLU43      -0.2457
     43  OE2       57.8650  157.5260   -3.2910 O.co2  43  GLU43      -0.2457
     44  N         71.9320  158.3030   -4.3560 N.3    60  TRP60      -0.1227
     45  CA        70.9900  158.8970   -3.4300 C.3    60  TRP60       0.1737
     46  C         71.7350  159.1930   -2.1500 C.2    60  TRP60       0.2595
     47  O         72.8360  158.6810   -1.9170 O.2    60  TRP60      -0.2718
     48  CB        69.8030  157.9750   -3.1510 C.3    60  TRP60       0.0564
     49  CG        68.6570  158.7110   -2.6140 C.ar   60  TRP60       0.0003
     50  CD1       68.0230  158.4980   -1.4330 C.ar   60  TRP60       0.0946
     51  CD2       68.0070  159.8210   -3.2290 C.ar   60  TRP60       0.0152
     52  NE1       66.9990  159.4050   -1.2730 N.ar   60  TRP60      -0.2442
     53  CE2       66.9660  160.2250   -2.3710 C.ar   60  TRP60       0.0810
     54  CE3       68.1880  160.5040   -4.4360 C.ar   60  TRP60       0.0012
     55  CZ2       66.1090  161.2720   -2.6900 C.ar   60  TRP60       0.0191
     56  CZ3       67.3520  161.5540   -4.7290 C.ar   60  TRP60       0.0001
     57  CH2       66.3270  161.9270   -3.8670 C.ar   60  TRP60       0.0015
     58  N         71.1170  160.0280   -1.3190 N.am   61  ALA61      -0.1980
     59  CA        71.5790  160.1310    0.0500 C.3    61  ALA61       0.1597
     60  C         71.5810  158.7480    0.6970 C.2    61  ALA61       0.2287
     61  O         70.6820  157.9340    0.4760 O.2    61  ALA61      -0.2864
     62  CB        70.6910  161.0990    0.8250 C.3    61  ALA61       0.0319
     63  N         70.6090  157.4180    3.2240 N.3    63  ASP63      -0.1225
     64  CA        69.5940  157.0140    4.1940 C.3    63  ASP63       0.1805
     65  C         68.5660  156.0290    3.6340 C.2    63  ASP63       0.2597
     66  O         68.0040  155.2260    4.3920 O.2    63  ASP63      -0.2718
     67  CB        68.9100  158.2550    4.7690 C.3    63  ASP63       0.1424
     68  CG        68.0760  159.0480    3.7370 C.2    63  ASP63       0.3668
     69  OD1       68.6530  159.8240    2.9490 O.co2  63  ASP63      -0.2456
     70  OD2       66.8300  158.9450    3.7530 O.co2  63  ASP63      -0.2456
     71  N         68.3070  156.0540    2.3210 N.am   64  ARG64      -0.1979
     72  CA        67.4610  155.0110    1.7390 C.3    64  ARG64       0.1597
     73  C         68.2320  153.7030    1.5750 C.2    64  ARG64       0.2287
     74  O         67.7320  152.6380    1.9640 O.2    64  ARG64      -0.2864
     75  CB        66.8720  155.4620    0.3950 C.3    64  ARG64       0.0334
     76  CG        65.8680  156.6150    0.4750 C.3    64  ARG64       0.0492
     77  CD        64.6760  156.2250    1.3370 C.3    64  ARG64       0.2205
     78  NE        63.6560  155.4790    0.6110 N.pl3  64  ARG64      -0.0865
     79  CZ        62.4510  155.9580    0.3250 C.cat  64  ARG64       0.5346
     80  NH1       62.1030  157.1700    0.7560 N.pl3  64  ARG64       0.1354
     81  NH2       61.5810  155.2030   -0.3410 N.pl3  64  ARG64       0.1354
     82  N         76.3270  166.3540    1.6610 N.3   109  GLU109     -0.1245
     83  CA        75.4140  167.4590    1.4440 C.3   109  GLU109      0.1567
     84  C         75.0180  168.0690    2.7860 C.2   109  GLU109      0.2260
     85  O         75.1710  167.4450    3.8390 O.2   109  GLU109     -0.2867
     86  CB        74.1790  166.9640    0.6850 C.3   109  GLU109      0.0388
     87  CG        74.4510  165.8090   -0.2980 C.3   109  GLU109      0.1160
     88  CD        73.1890  165.0370   -0.6670 C.2   109  GLU109      0.3649
     89  OE1       73.1640  164.3430   -1.7250 O.co2 109  GLU109     -0.2457
     90  OE2       72.2080  165.1740    0.1130 O.co2 109  GLU109     -0.2457
     91  N         61.8670  175.0940    0.0080 N.3   148  ASN148     -0.1240
     92  CA        60.9070  174.0090   -0.1890 C.3   148  ASN148      0.1653
     93  C         60.1380  173.7080    1.0880 C.2   148  ASN148      0.2266
     94  O         60.6720  173.0870    2.0110 O.2   148  ASN148     -0.2867
     95  CB        61.6010  172.7280   -0.6790 C.3   148  ASN148      0.1155
     96  CG        60.6020  171.6490   -1.1830 C.2   148  ASN148      0.2627
     97  OD1       59.4050  171.7560   -0.9630 O.2   148  ASN148     -0.2716
     98  ND2       61.1270  170.5760   -1.7860 N.am  148  ASN148     -0.0877
     99  N         59.2910  169.1610    0.8430 N.3   151  GLU151     -0.1231
    100  CA        59.9630  167.9830    1.3780 C.3   151  GLU151      0.1684
    101  C         60.5200  168.2640    2.7800 C.2   151  GLU151      0.2434
    102  O         61.2580  169.2530    2.9640 O.2   151  GLU151     -0.2733
    103  CB        61.0860  167.5290    0.4530 C.3   151  GLU151      0.0402
    104  CG        60.5860  166.8290   -0.7380 C.3   151  GLU151      0.1161
    105  CD        60.1100  165.4260   -0.4580 C.2   151  GLU151      0.3649
    106  OE1       60.0820  164.9690    0.7060 O.co2 151  GLU151     -0.2457
    107  OE2       59.7020  164.7720   -1.4400 O.co2 151  GLU151     -0.2457
    108  N         60.2280  167.3920    3.7600 N.am  152  PRO152     -0.2718
    109  CA        60.5900  167.6780    5.1520 C.3   152  PRO152      0.1535
    110  C         62.0620  167.8560    5.4040 C.2   152  PRO152      0.2599
    111  O         62.3940  168.3800    6.4690 O.2   152  PRO152     -0.2715
    112  CB        60.0830  166.4480    5.8990 C.3   152  PRO152      0.0310
    113  CG        60.0720  165.3670    4.8690 C.3   152  PRO152      0.0237
    114  CD        59.6870  166.0400    3.6090 C.3   152  PRO152      0.0939
    115  N         62.9420  167.4110    4.5040 N.am  153  TYR153     -0.1960
    116  CA        64.3660  167.7140    4.5710 C.3   153  TYR153      0.1771
    117  C         64.6380  169.1850    4.9170 C.2   153  TYR153      0.2619
    118  O         65.5060  169.4760    5.7380 O.2   153  TYR153     -0.2715
    119  CB        65.0060  167.3670    3.2250 C.3   153  TYR153      0.0574
    120  CG        66.5130  167.4050    3.1300 C.ar  153  TYR153     -0.0198
    121  CD1       67.2810  166.5100    3.8440 C.ar  153  TYR153     -0.0009
    122  CD2       67.1520  168.3480    2.3380 C.ar  153  TYR153     -0.0009
    123  CE1       68.6380  166.5430    3.7650 C.ar  153  TYR153      0.0417
    124  CE2       68.5140  168.4000    2.2390 C.ar  153  TYR153      0.0417
    125  CZ        69.2590  167.4830    2.9580 C.ar  153  TYR153      0.1957
    126  OH        70.6280  167.4830    2.8990 O.3   153  TYR153     -0.2866
    127  N         63.8760  170.1190    4.3570 N.am  154  PHE154     -0.1974
    128  CA        64.1740  171.5520    4.4890 C.3   154  PHE154      0.1639
    129  C         63.6780  172.1180    5.8260 C.2   154  PHE154      0.2290
    130  O         64.3320  172.9690    6.4370 O.2   154  PHE154     -0.2864
    131  CB        63.5430  172.3230    3.3090 C.3   154  PHE154      0.0560
    132  CG        64.1060  171.9090    1.9790 C.ar  154  PHE154     -0.0200
    133  CD1       63.8830  170.6080    1.4950 C.ar  154  PHE154     -0.0042
    134  CD2       64.9860  172.7350    1.2950 C.ar  154  PHE154     -0.0042
    135  CE1       64.4730  170.1830    0.3410 C.ar  154  PHE154     -0.0003
    136  CE2       65.5620  172.3210    0.1160 C.ar  154  PHE154     -0.0003
    137  CZ        65.3100  171.0550   -0.3660 C.ar  154  PHE154     -0.0000
    138  N         74.0040  171.6770   -4.4870 N.3   228  TRP228     -0.1241
    139  CA        73.5070  171.4310   -5.8390 C.3   228  TRP228      0.1605
    140  C         72.7880  172.6280   -6.4370 C.2   228  TRP228      0.2264
    141  O         72.5830  172.6670   -7.6480 O.2   228  TRP228     -0.2867
    142  CB        72.5230  170.2680   -5.8190 C.3   228  TRP228      0.0550
    143  CG        71.5730  170.3770   -4.6450 C.ar  228  TRP228      0.0003
    144  CD1       70.7400  171.4240   -4.3460 C.ar  228  TRP228      0.0946
    145  CD2       71.3830  169.4170   -3.6110 C.ar  228  TRP228      0.0152
    146  NE1       70.0460  171.1690   -3.1920 N.ar  228  TRP228     -0.2442
    147  CE2       70.4230  169.9400   -2.7240 C.ar  228  TRP228      0.0810
    148  CE3       71.9270  168.1590   -3.3510 C.ar  228  TRP228      0.0012
    149  CZ2       70.0010  169.2520   -1.6070 C.ar  228  TRP228      0.0191
    150  CZ3       71.5080  167.4820   -2.2360 C.ar  228  TRP228      0.0001
    151  CH2       70.5680  168.0350   -1.3710 C.ar  228  TRP228      0.0015
    152  N         72.5780  161.3020    9.0200 N.3   328  MET328     -0.1245
    153  CA        71.3380  160.5720    9.1670 C.3   328  MET328      0.1570
    154  C         71.5830  159.1220    9.5040 C.2   328  MET328      0.2261
    155  O         72.6820  158.5980    9.3130 O.2   328  MET328     -0.2867
    156  CB        70.5250  160.6020    7.8740 C.3   328  MET328      0.0387
    157  CG        70.2430  161.9700    7.3010 C.3   328  MET328      0.0595
    158  SD        69.0200  161.8770    5.9750 S.3   328  MET328     -0.1393
    159  CE        69.6680  163.1430    4.9100 C.3   328  MET328      0.0692
    160  N         60.5160  159.7130    7.4090 N.3   338  TRP338     -0.1241
    161  CA        60.4480  160.8850    6.5560 C.3   338  TRP338      0.1605
    162  C         59.0200  161.1460    6.1260 C.2   338  TRP338      0.2264
    163  O         58.4820  162.2380    6.3330 O.2   338  TRP338     -0.2867
    164  CB        61.3220  160.6750    5.3350 C.3   338  TRP338      0.0550
    165  CG        62.7190  161.0390    5.5100 C.ar  338  TRP338      0.0003
    166  CD1       63.8000  160.2530    5.2570 C.ar  338  TRP338      0.0946
    167  CD2       63.2260  162.2940    5.9780 C.ar  338  TRP338      0.0152
    168  NE1       64.9490  160.9570    5.5240 N.ar  338  TRP338     -0.2442
    169  CE2       64.6220  162.1990    5.9900 C.ar  338  TRP338      0.0810
    170  CE3       62.6310  163.4820    6.4010 C.ar  338  TRP338      0.0012
    171  CZ2       65.4470  163.2450    6.4010 C.ar  338  TRP338      0.0191
    172  CZ3       63.4650  164.5500    6.8180 C.ar  338  TRP338      0.0001
    173  CH2       64.8600  164.4170    6.8050 C.ar  338  TRP338      0.0015
@<TRIPOS>BOND
     1    20    19    2
     2    19    18    1
     3     4     3    2
     4     3     2    1
     5     9    10    1
     6     1     2    1
     7    17    18    1
     8    17    11   am
     9     2     5    1
    10    18    21    1
    11    10    11    1
    12    10    13    1
    13    11    12    2
    14    21    22    1
    15    13    14    1
    16     5     6    1
    17     7     6    2
    18   141   140    2
    19     6     8   am
    20    22    23    1
    21    15    14   ar
    22    14    16   ar
    23   140   139    1
    24    23    24    1
    25    26    27    1
    26   139   142    1
    27   139   138    1
    28   142   143    1
    29    37    38    2
    30    37    36    1
    31    33    32   ar
    32    35    36    1
    33    35    28   am
    34    24    25    1
    35    27    28    1
    36    27    30    1
    37    56    54   ar
    38    56    57   ar
    39   143   144   ar
    40   143   145   ar
    41    36    39    1
    42    54    51   ar
    43    28    29    2
    44    44    45    1
    45   144   146   ar
    46    32    34   ar
    47    32    31    1
    48    39    40    1
    49    57    55   ar
    50    30    31    1
    51   145   148   ar
    52   145   147   ar
    53    45    48    1
    54    45    46    1
    55   148   150   ar
    56    43    41   ar
    57    51    49   ar
    58    51    53   ar
    59   146   147   ar
    60    48    49    1
    61    40    41    1
    62   147   149   ar
    63    55    53   ar
    64    49    50   ar
    65    41    42   ar
    66    53    52   ar
    67   150   151   ar
    68    46    47    2
    69    46    58   am
    70    98    96   am
    71    89    88   ar
    72   149   151   ar
    73   107   105   ar
    74    50    52   ar
    75    58    59    1
    76    96    97    2
    77    96    95    1
    78   104   105    1
    79   104   103    1
    80    95    92    1
    81    88    87    1
    82    88    90   ar
    83   105   106   ar
    84   137   136   ar
    85   137   135   ar
    86    81    79    1
    87    87    86    1
    88    92    91    1
    89    92    93    1
    90    59    60    1
    91    59    62    1
    92   136   134   ar
    93    79    78    2
    94    79    80    1
    95   135   133   ar
    96    75    76    1
    97    75    72    1
    98   103   100    1
    99    76    77    1
   100    61    60    2
   101    78    77    1
   102    86    83    1
   103    99   100    1
   104    93    94    2
   105   134   132   ar
   106   100   101    1
   107    83    82    1
   108    83    84    1
   109   133   132   ar
   110    73    72    1
   111    73    74    2
   112    72    71    1
   113   132   131    1
   114   124   122   ar
   115   124   125   ar
   116    71    65   am
   117   122   120   ar
   118   101   102    2
   119   101   108   am
   120    84    85    2
   121   126   125    1
   122    69    68   ar
   123   125   123   ar
   124   120   119    1
   125   120   121   ar
   126    63    64    1
   127   119   116    1
   128   131   128    1
   129   114   108    1
   130   114   113    1
   131    65    64    1
   132    65    66    2
   133    68    70   ar
   134    68    67    1
   135   108   109    1
   136   123   121   ar
   137    64    67    1
   138   127   128    1
   139   127   117   am
   140   128   129    1
   141   115   116    1
   142   115   110   am
   143   116   117    1
   144   113   112    1
   145   159   158    1
   146   117   118    2
   147   109   110    1
   148   109   112    1
   149   166   165   ar
   150   166   168   ar
   151   164   165    1
   152   164   161    1
   153   110   111    2
   154   165   167   ar
   155   168   169   ar
   156   129   130    2
   157   158   157    1
   158   167   169   ar
   159   167   170   ar
   160   169   171   ar
   161   162   163    2
   162   162   161    1
   163   171   173   ar
   164   170   172   ar
   165   161   160    1
   166   173   172   ar
   167   157   156    1
   168   156   153    1
   169   152   153    1
   170   153   154    1
   171   155   154    2
