@<TRIPOS>MOLECULE
tmp/5y2iB00.pdb
 127 121 0 0 0
SMALL
GASTEIGER

@<TRIPOS>ATOM
      1  N         10.8480   -3.3860   28.0680 N.3     9  ARG9       -0.1231
      2  CA        11.0070   -1.9690   27.8200 C.3     9  ARG9        0.1694
      3  C          9.7050   -1.4600   27.2300 C.2     9  ARG9        0.2592
      4  O          9.1610   -2.0750   26.3100 O.2     9  ARG9       -0.2718
      5  CB        12.1700   -1.7190   26.8540 C.3     9  ARG9        0.0321
      6  CG        12.3550   -0.2590   26.5110 C.3     9  ARG9        0.0489
      7  CD        13.3790   -0.0720   25.3930 C.3     9  ARG9        0.2205
      8  NE        13.5500    1.3470   25.0870 N.pl3   9  ARG9       -0.0865
      9  CZ        14.4610    1.8200   24.2450 C.cat   9  ARG9        0.5346
     10  NH1       15.2600    0.9830   23.6020 N.pl3   9  ARG9        0.1354
     11  NH2       14.5560    3.1230   24.0360 N.pl3   9  ARG9        0.1354
     12  N          9.2060   -0.3370   27.7410 N.am   10  HIS10      -0.1976
     13  CA         7.9340    0.1840   27.2580 C.3    10  HIS10       0.1656
     14  C          8.0940    0.6110   25.7970 C.2    10  HIS10       0.2291
     15  O          9.2070    0.8760   25.3310 O.2    10  HIS10      -0.2864
     16  CB         7.4730    1.3660   28.1190 C.3    10  HIS10       0.0771
     17  CG         8.3490    2.5790   27.9840 C.ar   10  HIS10       0.0820
     18  ND1        8.2700    3.4340   26.9080 N.ar   10  HIS10      -0.2267
     19  CD2        9.3320    3.0570   28.7820 C.ar   10  HIS10       0.1154
     20  CE1        9.1680    4.3980   27.0500 C.ar   10  HIS10       0.1986
     21  NE2        9.8160    4.1970   28.1820 N.ar   10  HIS10      -0.2212
     22  N          5.8210    6.3580   23.1120 N.3    13  SER13      -0.1217
     23  CA         5.0720    7.3190   23.9240 C.3    13  SER13       0.1889
     24  C          4.5190    8.4440   23.0580 C.2    13  SER13       0.2288
     25  O          4.8710    8.5780   21.8810 O.2    13  SER13      -0.2866
     26  CB         5.9320    7.9480   25.0220 C.3    13  SER13       0.2089
     27  OG         6.7610    8.9690   24.4990 O.3    13  SER13      -0.2183
     28  N          7.3640   10.4900   21.8130 N.3    16  ASN16      -0.1240
     29  CA         8.1300    9.8700   20.7270 C.3    16  ASN16       0.1653
     30  C          7.5410   10.3230   19.3950 C.2    16  ASN16       0.2266
     31  O          8.2700   10.6420   18.4550 O.2    16  ASN16      -0.2867
     32  CB         8.1160    8.3390   20.8090 C.3    16  ASN16       0.1155
     33  CG         8.8710    7.8060   22.0080 C.2    16  ASN16       0.2627
     34  OD1        8.4870    6.7910   22.6010 O.2    16  ASN16      -0.2716
     35  ND2        9.9530    8.4860   22.3760 N.am   16  ASN16      -0.0877
     36  N          8.7980   13.5420   18.5400 N.3    19  ASN19      -0.1225
     37  CA        10.2530   13.6120   18.4080 C.3    19  ASN19       0.1785
     38  C         10.8260   14.4310   19.5670 C.2    19  ASN19       0.2597
     39  O         11.8460   15.1010   19.3910 O.2    19  ASN19      -0.2718
     40  CB        10.6990   14.2500   17.0840 C.3    19  ASN19       0.1169
     41  CG        10.2000   13.4990   15.8680 C.2    19  ASN19       0.2627
     42  OD1       10.2170   12.2650   15.8210 O.2    19  ASN19      -0.2716
     43  ND2        9.7360   14.2530   14.8680 N.am   19  ASN19      -0.0877
     44  N         10.1710   14.4140   20.7330 N.am   20  ARG20      -0.1966
     45  CA        10.6110   15.2620   21.8530 C.3    20  ARG20       0.1729
     46  C         11.3240   14.4340   22.9210 C.2    20  ARG20       0.2616
     47  O         10.9800   13.2690   23.1360 O.2    20  ARG20      -0.2715
     48  CB         9.4080   15.9930   22.4900 C.3    20  ARG20       0.0348
     49  CG         8.6800   16.9390   21.5340 C.3    20  ARG20       0.0492
     50  CD         7.3970   17.6080   22.0870 C.3    20  ARG20       0.2205
     51  NE         7.6510   18.5580   23.1700 N.pl3  20  ARG20      -0.0865
     52  CZ         6.7040   19.1590   23.8880 C.cat  20  ARG20       0.5346
     53  NH1        5.4240   18.9140   23.6450 N.pl3  20  ARG20       0.1354
     54  NH2        7.0440   20.0300   24.8320 N.pl3  20  ARG20       0.1354
     55  N         12.3520   15.0150   23.5440 N.am   21  PHE21      -0.1960
     56  CA        13.0560   14.3690   24.6530 C.3    21  PHE21       0.1771
     57  C         12.1490   14.2840   25.8690 C.2    21  PHE21       0.2620
     58  O         11.7480   15.3140   26.4000 O.2    21  PHE21      -0.2715
     59  CB        14.3190   15.1460   25.0380 C.3    21  PHE21       0.0574
     60  CG        15.4510   15.0250   24.0490 C.ar   21  PHE21      -0.0200
     61  CD1       15.6140   15.9660   23.0390 C.ar   21  PHE21      -0.0042
     62  CD2       16.3340   13.9470   24.1130 C.ar   21  PHE21      -0.0042
     63  CE1       16.6550   15.8590   22.1300 C.ar   21  PHE21      -0.0003
     64  CE2       17.3900   13.8350   23.2050 C.ar   21  PHE21      -0.0003
     65  CZ        17.5460   14.7910   22.2110 C.ar   21  PHE21      -0.0000
     66  N         11.8180   13.0740   26.3110 N.am   22  SER22      -0.1936
     67  CA        10.9530   12.9230   27.4830 C.3    22  SER22       0.2055
     68  C         11.7080   12.9020   28.8110 C.2    22  SER22       0.2643
     69  O         11.4870   13.7530   29.6830 O.2    22  SER22      -0.2714
     70  CB        10.1430   11.6350   27.3590 C.3    22  SER22       0.2130
     71  OG         8.9680   11.8450   26.6000 O.3    22  SER22      -0.2179
     72  N         12.6470   11.9690   28.9390 N.am   23  GLY23      -0.1954
     73  CA        13.3940   11.8420   30.1770 C.3    23  GLY23       0.1869
     74  C         12.4310   11.6080   31.3210 C.2    23  GLY23       0.2309
     75  O         11.5950   10.6940   31.2650 O.2    23  GLY23      -0.2863
     76  N          4.3640    5.5490   31.4180 N.3    61  ARG61      -0.1245
     77  CA         4.5370    4.7320   30.2000 C.3    61  ARG61       0.1563
     78  C          5.0400    3.3140   30.5540 C.2    61  ARG61       0.2260
     79  O          4.6420    2.2870   29.9290 O.2    61  ARG61      -0.2867
     80  CB         5.4820    5.4240   29.1870 C.3    61  ARG61       0.0307
     81  CG         6.8870    5.8160   29.6660 C.3    61  ARG61       0.0489
     82  CD         7.4140    6.8890   28.7060 C.3    61  ARG61       0.2205
     83  NE         8.8190    7.2810   28.8720 N.pl3  61  ARG61      -0.0865
     84  CZ         9.2210    8.3400   29.5660 C.cat  61  ARG61       0.5346
     85  NH1        8.3260    9.0810   30.2160 N.pl3  61  ARG61       0.1354
     86  NH2       10.5140    8.6470   29.6230 N.pl3  61  ARG61       0.1354
     87  N         13.4480    6.5500   33.4350 N.3    88  GLU88      -0.1245
     88  CA        14.2620    6.8960   32.2810 C.3    88  GLU88       0.1567
     89  C         15.3700    7.8700   32.6950 C.2    88  GLU88       0.2260
     90  O         15.2880    8.5530   33.7280 O.2    88  GLU88      -0.2867
     91  CB        13.3800    7.5060   31.1670 C.3    88  GLU88       0.0388
     92  CG        14.0810    7.8500   29.8470 C.3    88  GLU88       0.1160
     93  CD        14.7080    6.6510   29.1730 C.2    88  GLU88       0.3649
     94  OE1       15.8640    6.2950   29.5130 O.co2  88  GLU88      -0.2457
     95  OE2       14.0250    6.0140   28.3400 O.co2  88  GLU88      -0.2457
     96  N         16.9830   13.9380   30.9770 N.3    91  TYR91      -0.1241
     97  CA        17.6570   14.6290   29.8650 C.3    91  TYR91       0.1605
     98  C         17.8560   16.1180   30.1000 C.2    91  TYR91       0.2264
     99  O         18.2330   16.8480   29.1840 O.2    91  TYR91      -0.2867
    100  CB        16.8960   14.4070   28.5460 C.3    91  TYR91       0.0534
    101  CG        17.1490   13.0330   27.9730 C.ar   91  TYR91      -0.0201
    102  CD1       18.3550   12.7400   27.3600 C.ar   91  TYR91      -0.0009
    103  CD2       16.2130   12.0160   28.0930 C.ar   91  TYR91      -0.0009
    104  CE1       18.6120   11.4880   26.8460 C.ar   91  TYR91       0.0417
    105  CE2       16.4600   10.7490   27.5900 C.ar   91  TYR91       0.0417
    106  CZ        17.6670   10.4930   26.9650 C.ar   91  TYR91       0.1957
    107  OH        17.9420    9.2410   26.4480 O.3    91  TYR91      -0.2866
    108  N         13.8200   17.1560   18.0290 N.3    99  LYS99      -0.1245
    109  CA        15.1170   16.9730   17.3730 C.3    99  LYS99       0.1561
    110  C         15.6330   18.2580   16.7230 C.2    99  LYS99       0.2260
    111  O         16.8330   18.5930   16.7880 O.2    99  LYS99      -0.2867
    112  CB        15.0160   15.8810   16.3060 C.3    99  LYS99       0.0271
    113  CG        14.7290   14.4960   16.8730 C.3    99  LYS99       0.0035
    114  CD        14.1800   13.5590   15.8060 C.3    99  LYS99       0.0206
    115  CE        15.1120   13.4700   14.6030 C.3    99  LYS99       0.1093
    116  NZ        14.4530   12.7610   13.4660 N.3    99  LYS99      -0.1314
    117  N         25.3000   12.2440   22.6460 N.3   115  ARG115     -0.1245
    118  CA        24.7580   10.9000   22.4340 C.3   115  ARG115      0.1563
    119  C         25.8410    9.8130   22.3030 C.2   115  ARG115      0.2260
    120  O         25.5590    8.6380   22.5400 O.2   115  ARG115     -0.2867
    121  CB        23.7980   10.8900   21.2470 C.3   115  ARG115      0.0307
    122  CG        22.4460   11.6030   21.5430 C.3   115  ARG115      0.0489
    123  CD        21.9240   11.4330   22.9970 C.3   115  ARG115      0.2205
    124  NE        21.5900   10.0500   23.3620 N.pl3 115  ARG115     -0.0865
    125  CZ        20.3920    9.6390   23.7890 C.cat 115  ARG115      0.5346
    126  NH1       19.3890   10.5000   23.9110 N.pl3 115  ARG115      0.1354
    127  NH2       20.1890    8.3600   24.1000 N.pl3 115  ARG115      0.1354
@<TRIPOS>BOND
     1   116   115    1
     2   115   114    1
     3    43    41   am
     4   114   113    1
     5    42    41    2
     6    41    40    1
     7   112   113    1
     8   112   109    1
     9   110   111    2
    10   110   109    1
    11    40    37    1
    12   109   108    1
    13    37    36    1
    14    37    38    1
    15    31    30    2
    16    39    38    2
    17    30    29    1
    18    38    44   am
    19    29    32    1
    20    29    28    1
    21    44    45    1
    22    32    33    1
    23   121   122    1
    24   121   118    1
    25    49    50    1
    26    49    48    1
    27   122   123    1
    28    45    48    1
    29    45    46    1
    30    25    24    2
    31    33    35   am
    32    33    34    2
    33    50    51    1
    34    63    65   ar
    35    63    61   ar
    36    65    64   ar
    37   119   118    1
    38   119   120    2
    39   118   117    1
    40    46    47    2
    41    46    55   am
    42   123   124    1
    43    61    60   ar
    44    24    23    1
    45    22    23    1
    46    51    52    2
    47    64    62   ar
    48   124   125    2
    49    55    56    1
    50    10     9    1
    51    53    52    1
    52   125   126    1
    53   125   127    1
    54    52    54    1
    55    23    26    1
    56    11     9    1
    57    60    62   ar
    58    60    59    1
    59     9     8    2
    60    27    26    1
    61    56    59    1
    62    56    57    1
    63     8     7    1
    64    15    14    2
    65     7     6    1
    66    14    13    1
    67    57    66   am
    68    57    58    2
    69     4     3    2
    70    66    67    1
    71   107   106    1
    72     6     5    1
    73    71    70    1
    74   104   106   ar
    75   104   102   ar
    76     5     2    1
    77    18    20   ar
    78    18    17   ar
    79   106   105   ar
    80    20    21   ar
    81     3    12   am
    82     3     2    1
    83    13    12    1
    84    13    16    1
    85    70    67    1
    86   102   101   ar
    87    67    68    1
    88   105   103   ar
    89     2     1    1
    90   101   103   ar
    91   101   100    1
    92    17    16    1
    93    17    19   ar
    94    21    19   ar
    95    95    93   ar
    96   100    97    1
    97    82    83    1
    98    82    81    1
    99    68    72   am
   100    68    69    2
   101    83    84    2
   102    72    73    1
   103    93    94   ar
   104    93    92    1
   105    99    98    2
   106    80    81    1
   107    80    77    1
   108    84    86    1
   109    84    85    1
   110    92    91    1
   111    97    98    1
   112    97    96    1
   113    79    78    2
   114    73    74    1
   115    77    78    1
   116    77    76    1
   117    91    88    1
   118    75    74    2
   119    88    89    1
   120    88    87    1
   121    89    90    2
