@<TRIPOS>MOLECULE
tmp/5y2iA00.pdb
 173 166 0 0 0
SMALL
GASTEIGER

@<TRIPOS>ATOM
      1  N        -22.4490  -10.0550   39.9440 N.3    17  GLU17      -0.1231
      2  CA       -22.7150   -9.4410   41.2520 C.3    17  GLU17       0.1699
      3  C        -24.1380   -9.7560   41.7310 C.2    17  GLU17       0.2592
      4  O        -24.4730   -9.5290   42.8920 O.2    17  GLU17      -0.2718
      5  CB       -22.5260   -7.9220   41.2140 C.3    17  GLU17       0.0402
      6  CG       -21.0820   -7.5000   40.9880 C.3    17  GLU17       0.1161
      7  CD       -20.1100   -8.2230   41.9110 C.2    17  GLU17       0.3649
      8  OE1      -19.3310   -9.0980   41.4420 O.co2  17  GLU17      -0.2457
      9  OE2      -20.1070   -7.9180   43.1140 O.co2  17  GLU17      -0.2457
     10  N        -24.9420  -10.3570   40.8650 N.am   18  ASN18      -0.1960
     11  CA       -26.2570  -10.8400   41.2910 C.3    18  ASN18       0.1819
     12  C        -26.2720  -12.3570   41.3530 C.2    18  ASN18       0.2621
     13  O        -27.3260  -12.9890   41.4280 O.2    18  ASN18      -0.2715
     14  CB       -27.3530  -10.3220   40.3570 C.3    18  ASN18       0.1195
     15  CG       -27.5850   -8.8220   40.5130 C.2    18  ASN18       0.2630
     16  OD1      -27.6630   -8.3220   41.6350 O.2    18  ASN18      -0.2716
     17  ND2      -27.6740   -8.1020   39.3980 N.am   18  ASN18      -0.0877
     18  N        -25.0680  -12.9230   41.3660 N.am   19  ARG19      -0.1963
     19  CA       -24.8590  -14.3610   41.3860 C.3    19  ARG19       0.1729
     20  C        -23.7950  -14.7790   42.4180 C.2    19  ARG19       0.2616
     21  O        -23.0340  -15.7220   42.1870 O.2    19  ARG19      -0.2715
     22  CB       -24.4730  -14.8290   39.9760 C.3    19  ARG19       0.0348
     23  CG       -25.5820  -14.7210   38.9020 C.3    19  ARG19       0.0492
     24  CD       -24.9610  -14.9700   37.5250 C.3    19  ARG19       0.2205
     25  NE       -24.3300  -16.2850   37.4950 N.pl3  19  ARG19      -0.0865
     26  CZ       -23.4920  -16.7090   36.5580 C.cat  19  ARG19       0.5346
     27  NH1      -23.1600  -15.9080   35.5470 N.pl3  19  ARG19       0.1354
     28  NH2      -22.9640  -17.9240   36.6670 N.pl3  19  ARG19       0.1354
     29  N        -23.7290  -14.0570   43.5360 N.am   20  PHE20      -0.1960
     30  CA       -22.7970  -14.3690   44.6250 C.3    20  PHE20       0.1771
     31  C        -21.3710  -14.5580   44.1090 C.2    20  PHE20       0.2620
     32  O        -20.7270  -15.5520   44.4290 O.2    20  PHE20      -0.2715
     33  CB       -23.2400  -15.6350   45.3800 C.3    20  PHE20       0.0574
     34  CG       -24.5590  -15.4830   46.1130 C.ar   20  PHE20      -0.0200
     35  CD1      -24.6340  -14.8040   47.3220 C.ar   20  PHE20      -0.0042
     36  CD2      -25.7140  -16.0850   45.6160 C.ar   20  PHE20      -0.0042
     37  CE1      -25.8580  -14.6660   48.0000 C.ar   20  PHE20      -0.0003
     38  CE2      -26.9300  -15.9680   46.2920 C.ar   20  PHE20      -0.0003
     39  CZ       -27.0000  -15.2550   47.4830 C.ar   20  PHE20      -0.0000
     40  N        -20.8400  -13.5510   43.4190 N.am   21  SER21      -0.1950
     41  CA       -19.5270  -13.6790   42.7780 C.3    21  SER21       0.1924
     42  C        -18.4730  -14.1390   43.8010 C.2    21  SER21       0.2314
     43  O        -17.6110  -14.9720   43.4790 O.2    21  SER21      -0.2863
     44  CB       -19.1350  -12.3620   42.0850 C.3    21  SER21       0.2116
     45  OG       -19.2970  -11.2380   42.9330 O.3    21  SER21      -0.2180
     46  N        -16.6970  -11.2990   50.4140 N.3    88  ARG88      -0.1245
     47  CA       -17.1740  -12.4290   51.1940 C.3    88  ARG88       0.1563
     48  C        -17.1740  -13.6980   50.3450 C.2    88  ARG88       0.2260
     49  O        -17.5520  -13.6470   49.1790 O.2    88  ARG88      -0.2867
     50  CB       -18.5910  -12.1190   51.7160 C.3    88  ARG88       0.0307
     51  CG       -19.1800  -13.2240   52.5720 C.3    88  ARG88       0.0489
     52  CD       -20.5590  -12.8620   53.0830 C.3    88  ARG88       0.2205
     53  NE       -21.1690  -14.0280   53.6980 N.pl3  88  ARG88      -0.0865
     54  CZ       -22.4240  -14.0770   54.1120 C.cat  88  ARG88       0.5346
     55  NH1      -23.2110  -13.0140   53.9680 N.pl3  88  ARG88       0.1354
     56  NH2      -22.8760  -15.1950   54.6610 N.pl3  88  ARG88       0.1354
     57  N        -18.8540  -16.8930   49.2960 N.3    90  TYR90      -0.1241
     58  CA       -20.2510  -17.3530   49.3750 C.3    90  TYR90       0.1605
     59  C        -20.4160  -18.8580   49.2440 C.2    90  TYR90       0.2264
     60  O        -21.5300  -19.3570   49.0420 O.2    90  TYR90      -0.2867
     61  CB       -21.1230  -16.6580   48.3160 C.3    90  TYR90       0.0534
     62  CG       -21.3940  -15.2180   48.6760 C.ar   90  TYR90      -0.0201
     63  CD1      -22.2520  -14.9050   49.7240 C.ar   90  TYR90      -0.0009
     64  CD2      -20.8080  -14.1770   47.9710 C.ar   90  TYR90      -0.0009
     65  CE1      -22.5060  -13.5850   50.0760 C.ar   90  TYR90       0.0417
     66  CE2      -21.0540  -12.8530   48.3140 C.ar   90  TYR90       0.0417
     67  CZ       -21.9120  -12.5660   49.3700 C.ar   90  TYR90       0.1957
     68  OH       -22.1800  -11.2600   49.7270 O.3    90  TYR90      -0.2866
     69  N        -22.8940  -21.3900   47.1830 N.3    93  LEU93      -0.1245
     70  CA       -23.7960  -20.4970   46.4570 C.3    93  LEU93       0.1561
     71  C        -23.1200  -19.6980   45.3520 C.2    93  LEU93       0.2260
     72  O        -23.7870  -19.0570   44.5400 O.2    93  LEU93      -0.2867
     73  CB       -24.4660  -19.5150   47.4140 C.3    93  LEU93       0.0270
     74  CG       -25.2530  -20.1570   48.5600 C.3    93  LEU93       0.0019
     75  CD1      -26.0840  -19.1020   49.1740 C.3    93  LEU93       0.0001
     76  CD2      -26.1350  -21.2690   48.0650 C.3    93  LEU93       0.0001
     77  N        -24.3820  -18.8740   41.6480 N.3    96  LEU96      -0.1245
     78  CA       -25.8280  -19.1280   41.4580 C.3    96  LEU96       0.1561
     79  C        -26.6530  -17.8500   41.4580 C.2    96  LEU96       0.2260
     80  O        -26.4020  -16.9520   42.2570 O.2    96  LEU96      -0.2867
     81  CB       -26.3710  -20.0450   42.5530 C.3    96  LEU96       0.0270
     82  CG       -25.7340  -21.4190   42.7170 C.3    96  LEU96       0.0019
     83  CD1      -26.4760  -22.1710   43.8300 C.3    96  LEU96       0.0001
     84  CD2      -25.7940  -22.1870   41.3900 C.3    96  LEU96       0.0001
     85  N        -30.5310  -15.9490   41.9520 N.3    98  LYS98      -0.1245
     86  CA       -31.5260  -16.0280   43.0310 C.3    98  LYS98       0.1561
     87  C        -32.4610  -17.2200   42.9080 C.2    98  LYS98       0.2260
     88  O        -32.7490  -17.9010   43.9030 O.2    98  LYS98      -0.2867
     89  CB       -32.3500  -14.7390   43.0910 C.3    98  LYS98       0.0271
     90  CG       -33.4470  -14.7600   44.1530 C.3    98  LYS98       0.0035
     91  CD       -34.3790  -13.5730   43.9960 C.3    98  LYS98       0.0206
     92  CE       -33.7910  -12.3300   44.6170 C.3    98  LYS98       0.1093
     93  NZ       -33.8010  -12.4140   46.1100 N.3    98  LYS98      -0.1314
     94  N        -30.6930  -20.4930   43.6480 N.3   101  THR101     -0.1218
     95  CA       -30.3860  -20.5620   45.0680 C.3   101  THR101      0.1862
     96  C        -31.6470  -20.9940   45.8420 C.2   101  THR101      0.2287
     97  O        -31.6080  -21.9070   46.6820 O.2   101  THR101     -0.2866
     98  CB       -29.8530  -19.1920   45.5890 C.3   101  THR101      0.1770
     99  OG1      -28.5750  -18.9070   44.9740 O.3   101  THR101     -0.2211
    100  CG2      -29.6720  -19.2170   47.1060 C.3   101  THR101      0.0375
    101  N        -32.8900  -19.6100   52.8340 N.3   110  VAL110     -0.1245
    102  CA       -32.2770  -18.4600   52.1830 C.3   110  VAL110      0.1561
    103  C        -32.5870  -17.2050   52.9890 C.2   110  VAL110      0.2260
    104  O        -31.7160  -16.3660   53.2040 O.2   110  VAL110     -0.2867
    105  CB       -32.8040  -18.2950   50.7420 C.3   110  VAL110      0.0252
    106  CG1      -32.5050  -16.8820   50.2170 C.3   110  VAL110      0.0019
    107  CG2      -32.1880  -19.3530   49.8210 C.3   110  VAL110      0.0019
    108  N        -30.2560  -17.1770   55.9720 N.3   113  TRP113     -0.1227
    109  CA       -28.8860  -16.7880   55.6140 C.3   113  TRP113      0.1737
    110  C        -28.7790  -15.3010   55.3600 C.2   113  TRP113      0.2595
    111  O        -27.8060  -14.6390   55.7480 O.2   113  TRP113     -0.2718
    112  CB       -28.4140  -17.5210   54.3730 C.3   113  TRP113      0.0564
    113  CG       -28.0170  -18.9410   54.5800 C.ar  113  TRP113      0.0003
    114  CD1      -27.4400  -19.4780   55.6950 C.ar  113  TRP113      0.0946
    115  CD2      -28.1470  -20.0030   53.6350 C.ar  113  TRP113      0.0152
    116  NE1      -27.2200  -20.8210   55.5040 N.ar  113  TRP113     -0.2442
    117  CE2      -27.6450  -21.1680   54.2470 C.ar  113  TRP113      0.0810
    118  CE3      -28.6510  -20.0870   52.3290 C.ar  113  TRP113      0.0012
    119  CZ2      -27.6200  -22.3970   53.5980 C.ar  113  TRP113      0.0191
    120  CZ3      -28.6280  -21.3010   51.6840 C.ar  113  TRP113      0.0001
    121  CH2      -28.1130  -22.4490   52.3190 C.ar  113  TRP113      0.0015
    122  N        -29.7780  -14.7860   54.6660 N.am  114  ARG114     -0.1980
    123  CA       -29.7820  -13.4060   54.2550 C.3   114  ARG114      0.1597
    124  C        -29.8830  -12.5130   55.4810 C.2   114  ARG114      0.2287
    125  O        -29.3230  -11.4170   55.5060 O.2   114  ARG114     -0.2864
    126  CB       -30.9680  -13.1750   53.2970 C.3   114  ARG114      0.0334
    127  CG       -31.4070  -11.7400   53.0830 C.3   114  ARG114      0.0492
    128  CD       -32.6330  -11.6930   52.1650 C.3   114  ARG114      0.2205
    129  NE       -33.8940  -11.5340   52.8930 N.pl3 114  ARG114     -0.0865
    130  CZ       -34.9850  -12.2820   52.7080 C.cat 114  ARG114      0.5346
    131  NH1      -34.9970  -13.2800   51.8150 N.pl3 114  ARG114      0.1354
    132  NH2      -36.0720  -12.0350   53.4310 N.pl3 114  ARG114      0.1354
    133  N        -22.8160  -19.1550   57.9520 N.3   120  PRO120     -0.2103
    134  CA       -22.2400  -19.2000   56.6020 C.3   120  PRO120      0.1489
    135  C        -23.1450  -19.9810   55.6580 C.2   120  PRO120      0.2417
    136  O        -23.9770  -20.7440   56.1460 O.2   120  PRO120     -0.2734
    137  CB       -20.9140  -19.9370   56.8130 C.3   120  PRO120      0.0282
    138  CG       -21.2060  -20.8720   57.9680 C.3   120  PRO120      0.0208
    139  CD       -22.1470  -20.1040   58.8690 C.3   120  PRO120      0.0893
    140  N        -22.9840  -19.7970   54.3370 N.am  121  PRO121     -0.2729
    141  CA       -23.6180  -20.7030   53.3740 C.3   121  PRO121      0.1401
    142  C        -22.9040  -22.0450   53.4270 C.2   121  PRO121      0.2269
    143  O        -21.8890  -22.1540   54.1150 O.2   121  PRO121     -0.2865
    144  CB       -23.3880  -20.0140   52.0170 C.3   121  PRO121      0.0296
    145  CG       -22.0860  -19.2580   52.2140 C.3   121  PRO121      0.0237
    146  CD       -22.0970  -18.8140   53.6780 C.3   121  PRO121      0.0939
    147  N        -18.6320   -6.2520   51.1980 N.3   186  ASN186     -0.1240
    148  CA       -18.5250   -6.8360   52.5440 C.3   186  ASN186      0.1653
    149  C        -17.2080   -6.5760   53.2970 C.2   186  ASN186      0.2266
    150  O        -17.1980   -6.4380   54.5400 O.2   186  ASN186     -0.2867
    151  CB       -18.7870   -8.3350   52.4460 C.3   186  ASN186      0.1155
    152  CG       -20.2530   -8.6390   52.1820 C.2   186  ASN186      0.2627
    153  OD1      -21.1100   -8.3980   53.0330 O.2   186  ASN186     -0.2716
    154  ND2      -20.5530   -9.1190   50.9810 N.am  186  ASN186     -0.0877
    155  N        -17.6700   -3.0950   54.3420 N.3   189  ARG189     -0.1245
    156  CA       -18.5890   -3.1690   55.4820 C.3   189  ARG189      0.1563
    157  C        -17.8320   -3.3970   56.7730 C.2   189  ARG189      0.2260
    158  O        -18.1340   -2.7660   57.7780 O.2   189  ARG189     -0.2867
    159  CB       -19.6090   -4.2910   55.3050 C.3   189  ARG189      0.0307
    160  CG       -20.9090   -3.8750   54.6760 C.3   189  ARG189      0.0489
    161  CD       -21.7850   -5.1010   54.4850 C.3   189  ARG189      0.2205
    162  NE       -23.1410   -4.7540   54.0590 N.pl3 189  ARG189     -0.0865
    163  CZ       -24.0080   -5.6240   53.5520 C.cat 189  ARG189      0.5346
    164  NH1      -23.6430   -6.8840   53.3660 N.pl3 189  ARG189      0.1354
    165  NH2      -25.2310   -5.2270   53.2150 N.pl3 189  ARG189      0.1354
    166  N        -25.8960   -0.7470   52.7580 N.3   207  ASN207     -0.1240
    167  CA       -25.5020   -1.1090   51.4050 C.3   207  ASN207      0.1653
    168  C        -24.7190    0.0210   50.7610 C.2   207  ASN207      0.2266
    169  O        -25.2770    1.0250   50.3470 O.2   207  ASN207     -0.2867
    170  CB       -26.7270   -1.4580   50.5540 C.3   207  ASN207      0.1155
    171  CG       -27.3890   -2.7510   50.9960 C.2   207  ASN207      0.2627
    172  OD1      -26.8230   -3.8350   50.8280 O.2   207  ASN207     -0.2716
    173  ND2      -28.5880   -2.6470   51.5720 N.am  207  ASN207     -0.0877
@<TRIPOS>BOND
     1    27    26    1
     2    26    28    1
     3    26    25    2
     4    25    24    1
     5    24    23    1
     6    23    22    1
     7    17    15   am
     8     1     2    1
     9    22    19    1
    10    14    15    1
    11    14    11    1
    12    15    16    2
    13    10    11    1
    14    10     3   am
    15     6     5    1
    16     6     7    1
    17     5     2    1
    18     2     3    1
    19    11    12    1
    20    12    18   am
    21    12    13    2
    22    18    19    1
    23    19    20    1
    24    84    82    1
    25     8     7   ar
    26    79    78    1
    27    79    80    2
    28    78    77    1
    29    78    81    1
    30     3     4    2
    31     7     9   ar
    32    85    86    1
    33    44    41    1
    34    44    45    1
    35    21    20    2
    36    20    29   am
    37    81    82    1
    38    82    83    1
    39    41    40    1
    40    41    42    1
    41    87    86    1
    42    87    88    2
    43    86    89    1
    44    89    90    1
    45    40    31   am
    46    43    42    2
    47    29    30    1
    48    94    95    1
    49    91    90    1
    50    91    92    1
    51    31    32    2
    52    31    30    1
    53    72    71    2
    54    92    93    1
    55    30    33    1
    56    99    98    1
    57    95    98    1
    58    95    96    1
    59    71    70    1
    60    33    34    1
    61    98   100    1
    62    36    34   ar
    63    36    38   ar
    64    96    97    2
    65    34    35   ar
    66    38    39   ar
    67    70    69    1
    68    70    73    1
    69    35    37   ar
    70    73    74    1
    71    39    37   ar
    72    64    66   ar
    73    64    62   ar
    74    76    74    1
    75    66    67   ar
    76    61    62    1
    77    61    58    1
    78    74    75    1
    79    62    63   ar
    80    60    59    2
    81    49    48    2
    82    59    58    1
    83    57    58    1
    84    67    68    1
    85    67    65   ar
    86    63    65   ar
    87   107   105    1
    88   106   105    1
    89    48    47    1
    90   169   168    2
    91    46    47    1
    92   170   171    1
    93   170   167    1
    94   105   102    1
    95   168   167    1
    96   172   171    2
    97   154   152   am
    98   171   173   am
    99    47    50    1
   100   147   148    1
   101   167   166    1
   102   120   121   ar
   103   120   118   ar
   104    50    51    1
   105   131   130    1
   106   144   145    1
   107   144   141    1
   108   128   129    1
   109   128   127    1
   110   152   151    1
   111   152   153    2
   112   102   101    1
   113   102   103    1
   114   145   146    1
   115   121   119   ar
   116   118   115   ar
   117   151   148    1
   118   148   149    1
   119    51    52    1
   120   130   129    2
   121   130   132    1
   122   103   104    2
   123   127   126    1
   124    52    53    1
   125   165   163    1
   126   149   150    2
   127   126   123    1
   128   164   163    1
   129   141   142    1
   130   141   140    1
   131   142   143    2
   132   163   162    2
   133   119   117   ar
   134   115   117   ar
   135   115   113   ar
   136   146   140    1
   137    53    54    2
   138    55    54    1
   139   162   161    1
   140    54    56    1
   141   117   116   ar
   142   123   122    1
   143   123   124    1
   144   140   135   am
   145   155   156    1
   146   112   113    1
   147   112   109    1
   148   161   160    1
   149   113   114   ar
   150   122   110   am
   151   160   159    1
   152   159   156    1
   153   110   109    1
   154   110   111    2
   155   124   125    2
   156   156   157    1
   157   116   114   ar
   158   109   108    1
   159   135   136    2
   160   135   134    1
   161   134   137    1
   162   134   133    1
   163   157   158    2
   164   137   138    1
   165   133   139    1
   166   138   139    1
