@<TRIPOS>MOLECULE
tmp/5y2oA00.pdb
 239 227 0 0 0
SMALL
GASTEIGER

@<TRIPOS>ATOM
      1  N        -47.4880   -9.2890   64.7200 N.3    43  ILE43      -0.1245
      2  CA       -46.8980   -7.9830   64.4430 C.3    43  ILE43       0.1561
      3  C        -45.3970   -8.0980   64.6810 C.2    43  ILE43       0.2260
      4  O        -44.9450   -8.2830   65.8220 O.2    43  ILE43      -0.2867
      5  CB       -47.5290   -6.8850   65.3120 C.3    43  ILE43       0.0252
      6  CG1      -49.0150   -6.7640   64.9790 C.3    43  ILE43       0.0019
      7  CG2      -46.8080   -5.5400   65.1350 C.3    43  ILE43       0.0019
      8  CD1      -49.7400   -5.6660   65.7520 C.3    43  ILE43       0.0001
      9  N        -47.4230   -4.0600   61.7350 N.3    49  LEU49      -0.1245
     10  CA       -48.1230   -3.2280   62.7100 C.3    49  LEU49       0.1561
     11  C        -49.2480   -2.4480   62.0430 C.2    49  LEU49       0.2260
     12  O        -50.3850   -2.4310   62.5290 O.2    49  LEU49      -0.2867
     13  CB       -47.1540   -2.2690   63.3990 C.3    49  LEU49       0.0270
     14  CG       -47.8370   -1.2660   64.3340 C.3    49  LEU49       0.0019
     15  CD1      -48.5110   -1.9820   65.4890 C.3    49  LEU49       0.0001
     16  CD2      -46.8460   -0.2370   64.8410 C.3    49  LEU49       0.0001
     17  N        -47.6830    5.3900   70.2130 N.3    65  ARG65      -0.1231
     18  CA       -48.9690    4.7020   70.1170 C.3    65  ARG65       0.1694
     19  C        -48.9170    3.3370   70.7970 C.2    65  ARG65       0.2592
     20  O        -49.9010    2.9010   71.4070 O.2    65  ARG65      -0.2718
     21  CB       -49.3780    4.5700   68.6500 C.3    65  ARG65       0.0321
     22  CG       -50.7080    3.8620   68.4180 C.3    65  ARG65       0.0489
     23  CD       -51.1770    4.0620   66.9760 C.3    65  ARG65       0.2205
     24  NE       -50.1150    4.6280   66.1430 N.pl3  65  ARG65      -0.0865
     25  CZ       -49.5140    3.9940   65.1400 C.cat  65  ARG65       0.5346
     26  NH1      -49.8730    2.7630   64.8110 N.pl3  65  ARG65       0.1354
     27  NH2      -48.5560    4.6010   64.4540 N.pl3  65  ARG65       0.1354
     28  N        -47.7740    2.6570   70.7160 N.am   66  ILE66      -0.1966
     29  CA       -47.6100    1.3770   71.4000 C.3    66  ILE66       0.1727
     30  C        -47.5540    1.5860   72.9060 C.2    66  ILE66       0.2616
     31  O        -48.1750    0.8470   73.6810 O.2    66  ILE66      -0.2715
     32  CB       -46.3470    0.6660   70.8840 C.3    66  ILE66       0.0290
     33  CG1      -46.6020    0.0590   69.5030 C.3    66  ILE66       0.0022
     34  CG2      -45.8620   -0.3790   71.8870 C.3    66  ILE66       0.0023
     35  CD1      -45.3480   -0.4700   68.8350 C.3    66  ILE66       0.0001
     36  N        -46.7990    2.5920   73.3410 N.am   67  PHE67      -0.1974
     37  CA       -46.7170    2.9120   74.7590 C.3    67  PHE67       0.1639
     38  C        -48.0870    3.2490   75.3280 C.2    67  PHE67       0.2290
     39  O        -48.4240    2.8310   76.4410 O.2    67  PHE67      -0.2864
     40  CB       -45.7440    4.0720   74.9670 C.3    67  PHE67       0.0560
     41  CG       -45.4180    4.3330   76.4100 C.ar   67  PHE67      -0.0200
     42  CD1      -44.6820    3.4170   77.1430 C.ar   67  PHE67      -0.0042
     43  CD2      -45.8380    5.4910   77.0280 C.ar   67  PHE67      -0.0042
     44  CE1      -44.3740    3.6590   78.4670 C.ar   67  PHE67      -0.0003
     45  CE2      -45.5340    5.7360   78.3610 C.ar   67  PHE67      -0.0003
     46  CZ       -44.8010    4.8220   79.0750 C.ar   67  PHE67      -0.0000
     47  N        -51.0030    2.2730   74.0760 N.3    69  GLY69      -0.1210
     48  CA       -51.7440    1.0220   74.1190 C.3    69  GLY69       0.1956
     49  C        -51.4220    0.2040   75.3560 C.2    69  GLY69       0.2612
     50  O        -52.3010   -0.4390   75.9350 O.2    69  GLY69      -0.2717
     51  N        -50.1560    0.2090   75.7790 N.am   70  CYS70      -0.1956
     52  CA       -49.7890   -0.4730   77.0190 C.3    70  CYS70       0.1843
     53  C        -50.4390    0.1880   78.2280 C.2    70  CYS70       0.2625
     54  O        -50.8550   -0.4990   79.1710 O.2    70  CYS70      -0.2714
     55  CB       -48.2720   -0.4940   77.1790 C.3    70  CYS70       0.0997
     56  SG       -47.4490   -1.6430   76.0750 S.3    70  CYS70      -0.0797
     57  N        -50.5210    1.5210   78.2200 N.am   71  GLN71      -0.1977
     58  CA       -51.1700    2.2430   79.3100 C.3    71  GLN71       0.1601
     59  C        -52.6510    1.9140   79.3910 C.2    71  GLN71       0.2287
     60  O        -53.2100    1.8000   80.4900 O.2    71  GLN71      -0.2864
     61  CB       -51.0020    3.7510   79.1250 C.3    71  GLN71       0.0394
     62  CG       -49.6180    4.2850   79.3050 C.3    71  GLN71       0.0908
     63  CD       -49.5840    5.7940   79.1270 C.2    71  GLN71       0.2608
     64  OE1      -50.6310    6.4550   79.0800 O.2    71  GLN71      -0.2717
     65  NE2      -48.3870    6.3480   79.0290 N.am   71  GLN71      -0.0878
     66  N        -54.1430   -0.8740   78.3620 N.3    73  ARG73      -0.1231
     67  CA       -54.2300   -2.2230   78.9140 C.3    73  ARG73       0.1694
     68  C        -53.9960   -2.2060   80.4170 C.2    73  ARG73       0.2592
     69  O        -54.6400   -2.9540   81.1640 O.2    73  ARG73      -0.2718
     70  CB       -53.2210   -3.1400   78.2250 C.3    73  ARG73       0.0321
     71  CG       -52.9010   -4.4180   79.0030 C.3    73  ARG73       0.0489
     72  CD       -53.8390   -5.5570   78.6520 C.3    73  ARG73       0.2205
     73  NE       -55.1030   -5.5270   79.3930 N.pl3  73  ARG73      -0.0865
     74  CZ       -55.3680   -6.2750   80.4630 C.cat  73  ARG73       0.5346
     75  NH1      -54.4540   -7.1110   80.9390 N.pl3  73  ARG73       0.1354
     76  NH2      -56.5500   -6.1940   81.0550 N.pl3  73  ARG73       0.1354
     77  N        -53.0840   -1.3500   80.8830 N.am   74  SER74      -0.1952
     78  CA       -52.8260   -1.2640   82.3190 C.3    74  SER74       0.1924
     79  C        -54.0420   -0.7670   83.0900 C.2    74  SER74       0.2314
     80  O        -54.3570   -1.3020   84.1570 O.2    74  SER74      -0.2863
     81  CB       -51.6260   -0.3610   82.5930 C.3    74  SER74       0.2116
     82  OG       -50.4630   -1.1510   82.7030 O.3    74  SER74      -0.2180
     83  N        -48.7960   -2.7350   89.9860 N.3   108  HIS108     -0.1241
     84  CA       -47.8540   -2.9790   88.8870 C.3   108  HIS108      0.1621
     85  C        -47.1100   -4.2980   89.0670 C.2   108  HIS108      0.2264
     86  O        -46.8080   -4.9790   88.0860 O.2   108  HIS108     -0.2867
     87  CB       -46.8550   -1.8320   88.7210 C.3   108  HIS108      0.0745
     88  CG       -47.4320   -0.6510   88.0070 C.ar  108  HIS108      0.0817
     89  ND1      -47.9670    0.4270   88.6720 N.ar  108  HIS108     -0.2268
     90  CD2      -47.6080   -0.4030   86.6860 C.ar  108  HIS108      0.1154
     91  CE1      -48.4260    1.3030   87.7950 C.ar  108  HIS108      0.1986
     92  NE2      -48.2120    0.8270   86.5810 N.ar  108  HIS108     -0.2212
     93  N        -49.3580   -6.6350   87.6280 N.3   111  ILE111     -0.1231
     94  CA       -49.4850   -6.5010   86.1780 C.3   111  ILE111      0.1692
     95  C        -48.3540   -7.2470   85.4840 C.2   111  ILE111      0.2592
     96  O        -48.5730   -7.9750   84.5060 O.2   111  ILE111     -0.2718
     97  CB       -49.5370   -5.0140   85.7730 C.3   111  ILE111      0.0266
     98  CG1      -50.9190   -4.4270   86.0710 C.3   111  ILE111      0.0019
     99  CG2      -49.2370   -4.8650   84.2730 C.3   111  ILE111      0.0020
    100  CD1      -50.9750   -2.8700   85.9720 C.3   111  ILE111      0.0001
    101  N        -47.1310   -7.1090   85.9920 N.am  112  TYR112     -0.1976
    102  CA       -45.9980   -7.7590   85.3440 C.3   112  TYR112      0.1639
    103  C        -45.9590   -9.2600   85.6300 C.2   112  TYR112      0.2290
    104  O        -45.4780  -10.0340   84.7940 O.2   112  TYR112     -0.2864
    105  CB       -44.7060   -7.0670   85.7690 C.3   112  TYR112      0.0560
    106  CG       -44.6820   -5.6060   85.3200 C.ar  112  TYR112     -0.0198
    107  CD1      -45.1140   -5.2540   84.0470 C.ar  112  TYR112     -0.0009
    108  CD2      -44.2610   -4.5870   86.1670 C.ar  112  TYR112     -0.0009
    109  CE1      -45.1070   -3.9220   83.6260 C.ar  112  TYR112      0.0417
    110  CE2      -44.2560   -3.2690   85.7540 C.ar  112  TYR112      0.0417
    111  CZ       -44.6750   -2.9410   84.4820 C.ar  112  TYR112      0.1957
    112  OH       -44.6660   -1.6170   84.0650 O.3   112  TYR112     -0.2866
    113  N        -48.5530  -10.4200   83.1100 N.3   115  LEU115     -0.1245
    114  CA       -48.0350  -10.2110   81.7640 C.3   115  LEU115      0.1561
    115  C        -47.1760  -11.3950   81.3410 C.2   115  LEU115      0.2260
    116  O        -47.2080  -11.8320   80.1800 O.2   115  LEU115     -0.2867
    117  CB       -47.2330   -8.8990   81.7270 C.3   115  LEU115      0.0270
    118  CG       -46.6030   -8.4830   80.3950 C.3   115  LEU115      0.0019
    119  CD1      -47.6680   -8.4540   79.3320 C.3   115  LEU115      0.0001
    120  CD2      -45.9190   -7.0950   80.5120 C.3   115  LEU115      0.0001
    121  N        -45.3640  -11.4160   72.7860 N.3   124  VAL124     -0.1231
    122  CA       -46.3900  -11.1990   73.8030 C.3   124  VAL124      0.1692
    123  C        -47.7560  -11.0990   73.1380 C.2   124  VAL124      0.2592
    124  O        -47.9140  -10.4390   72.1040 O.2   124  VAL124     -0.2718
    125  CB       -46.0840   -9.9390   74.6420 C.3   124  VAL124      0.0266
    126  CG1      -45.9860   -8.6890   73.7700 C.3   124  VAL124      0.0020
    127  CG2      -47.1430   -9.7430   75.7150 C.3   124  VAL124      0.0020
    128  N        -48.7430  -11.7750   73.7300 N.am  125  LEU125     -0.1966
    129  CA       -50.1180  -11.6820   73.2650 C.3   125  LEU125      0.1728
    130  C        -50.6930  -10.3190   73.5880 C.2   125  LEU125      0.2616
    131  O        -50.5040   -9.7960   74.6920 O.2   125  LEU125     -0.2715
    132  CB       -50.9880  -12.7500   73.9300 C.3   125  LEU125      0.0311
    133  CG       -50.9590  -14.1850   73.4460 C.3   125  LEU125      0.0022
    134  CD1      -52.0210  -14.9400   74.2400 C.3   125  LEU125      0.0001
    135  CD2      -51.2430  -14.2360   71.9520 C.3   125  LEU125      0.0001
    136  N        -51.4240   -9.7430   72.6340 N.am  126  ILE126     -0.1963
    137  CA       -52.0410   -8.4390   72.8280 C.3   126  ILE126      0.1727
    138  C        -53.5020   -8.5150   72.4140 C.2   126  ILE126      0.2616
    139  O        -53.9640   -9.5170   71.8640 O.2   126  ILE126     -0.2715
    140  CB       -51.3210   -7.3370   72.0390 C.3   126  ILE126      0.0290
    141  CG1      -51.3970   -7.6300   70.5390 C.3   126  ILE126      0.0022
    142  CG2      -49.8790   -7.2220   72.4930 C.3   126  ILE126      0.0023
    143  CD1      -50.8030   -6.5050   69.6790 C.3   126  ILE126      0.0001
    144  N        -54.2230   -7.4260   72.6820 N.am  127  SER127     -0.1950
    145  CA       -55.6250   -7.2690   72.2920 C.3   127  SER127      0.1924
    146  C        -56.4190   -8.5500   72.5500 C.2   127  SER127      0.2314
    147  O        -57.0160   -9.1430   71.6520 O.2   127  SER127     -0.2863
    148  CB       -55.7390   -6.8470   70.8280 C.3   127  SER127      0.2116
    149  OG       -54.8670   -5.7700   70.5420 O.3   127  SER127     -0.2180
    150  N        -47.2850   -9.6340   69.3700 N.3   133  MET133     -0.1245
    151  CA       -46.2600   -8.6660   69.0060 C.3   133  MET133      0.1570
    152  C        -44.9000   -9.2290   69.3970 C.2   133  MET133      0.2261
    153  O        -44.6960   -9.6180   70.5540 O.2   133  MET133     -0.2867
    154  CB       -46.5220   -7.3210   69.6830 C.3   133  MET133      0.0387
    155  CG       -45.5170   -6.2560   69.2830 C.3   133  MET133      0.0595
    156  SD       -46.0270   -4.6120   69.7850 S.3   133  MET133     -0.1393
    157  CE       -47.4410   -4.3650   68.7180 C.3   133  MET133      0.0692
    158  N        -40.4390   -5.0640   69.4370 N.3   138  LEU138     -0.1245
    159  CA       -40.4940   -4.1380   70.5590 C.3   138  LEU138      0.1561
    160  C        -39.1090   -3.5900   70.8700 C.2   138  LEU138      0.2260
    161  O        -38.9590   -2.4060   71.2020 O.2   138  LEU138     -0.2867
    162  CB       -41.1160   -4.8310   71.7690 C.3   138  LEU138      0.0270
    163  CG       -42.6440   -4.9420   71.6580 C.3   138  LEU138      0.0019
    164  CD1      -43.2140   -6.0140   72.5840 C.3   138  LEU138      0.0001
    165  CD2      -43.3150   -3.6000   71.9440 C.3   138  LEU138      0.0001
    166  N        -38.3810   -0.4790   76.7190 N.3   148  PHE148     -0.1227
    167  CA       -39.5970   -0.4810   77.5220 C.3   148  PHE148      0.1736
    168  C        -39.9800   -1.9040   77.9330 C.2   148  PHE148      0.2595
    169  O        -40.0640   -2.2220   79.1260 O.2   148  PHE148     -0.2718
    170  CB       -40.7030    0.2070   76.7170 C.3   148  PHE148      0.0547
    171  CG       -42.0710    0.1000   77.3140 C.ar  148  PHE148     -0.0202
    172  CD1      -42.4190    0.8250   78.4450 C.ar  148  PHE148     -0.0042
    173  CD2      -43.0320   -0.6960   76.7130 C.ar  148  PHE148     -0.0042
    174  CE1      -43.6990    0.7210   78.9820 C.ar  148  PHE148     -0.0003
    175  CE2      -44.3100   -0.7990   77.2480 C.ar  148  PHE148     -0.0003
    176  CZ       -44.6430   -0.0900   78.3780 C.ar  148  PHE148     -0.0000
    177  N        -40.1490   -2.7940   76.9550 N.am  149  MET149     -0.1979
    178  CA       -40.6530   -4.1350   77.2290 C.3   149  MET149      0.1605
    179  C        -39.5660   -5.1580   77.5160 C.2   149  MET149      0.2287
    180  O        -39.8630   -6.2000   78.1190 O.2   149  MET149     -0.2864
    181  CB       -41.5000   -4.6230   76.0510 C.3   149  MET149      0.0413
    182  CG       -42.8400   -3.9380   75.9770 C.3   149  MET149      0.0598
    183  SD       -43.8130   -4.4460   77.4080 S.3   149  MET149     -0.1393
    184  CE       -44.5080   -5.9730   76.8310 C.3   149  MET149      0.0692
    185  N        -39.2620   -6.7630   80.9450 N.3   152  LYS152     -0.1245
    186  CA       -40.4040   -7.6150   81.2600 C.3   152  LYS152      0.1561
    187  C        -40.2740   -8.9770   80.5900 C.2   152  LYS152      0.2260
    188  O        -40.6740   -9.9900   81.1720 O.2   152  LYS152     -0.2867
    189  CB       -41.7200   -6.9400   80.8510 C.3   152  LYS152      0.0271
    190  CG       -42.1350   -5.7110   81.6640 C.3   152  LYS152      0.0035
    191  CD       -41.1560   -4.5550   81.5590 C.3   152  LYS152      0.0206
    192  CE       -41.8410   -3.2100   81.8190 C.3   152  LYS152      0.1093
    193  NZ       -40.8320   -2.1030   81.8410 N.3   152  LYS152     -0.1314
    194  N        -39.0030    0.7050   85.8270 N.3   234  HIS234     -0.1241
    195  CA       -40.0040    1.2990   84.9530 C.3   234  HIS234      0.1621
    196  C        -40.2940    2.7420   85.3450 C.2   234  HIS234      0.2264
    197  O        -40.4800    3.5980   84.4740 O.2   234  HIS234     -0.2867
    198  CB       -41.3020    0.4920   84.9660 C.3   234  HIS234      0.0745
    199  CG       -42.2770    0.9590   83.9370 C.ar  234  HIS234      0.0817
    200  ND1      -42.1330    0.6670   82.5960 N.ar  234  HIS234     -0.2268
    201  CD2      -43.3620    1.7610   84.0350 C.ar  234  HIS234      0.1154
    202  CE1      -43.1110    1.2410   81.9200 C.ar  234  HIS234      0.1986
    203  NE2      -43.8710    1.9090   82.7690 N.ar  234  HIS234     -0.2212
    204  N        -39.9620    6.0760   83.0740 N.3   238  LEU238     -0.1245
    205  CA       -40.9450    7.1480   82.9650 C.3   238  LEU238      0.1561
    206  C        -40.2880    8.5180   83.1030 C.2   238  LEU238      0.2260
    207  O        -40.6720    9.4680   82.4100 O.2   238  LEU238     -0.2867
    208  CB       -42.0480    6.9790   84.0070 C.3   238  LEU238      0.0270
    209  CG       -42.9620    5.7800   83.7690 C.3   238  LEU238      0.0019
    210  CD1      -44.0490    5.6930   84.8600 C.3   238  LEU238      0.0001
    211  CD2      -43.5720    5.8200   82.3800 C.3   238  LEU238      0.0001
    212  N        -51.4130   11.0180   80.2380 N.3   250  LEU250     -0.1245
    213  CA       -51.4260    9.8010   81.0370 C.3   250  LEU250      0.1561
    214  C        -52.8020    9.6150   81.6570 C.2   250  LEU250      0.2260
    215  O        -53.3580   10.5570   82.2320 O.2   250  LEU250     -0.2867
    216  CB       -50.3640    9.8590   82.1320 C.3   250  LEU250      0.0270
    217  CG       -50.0750    8.5060   82.7560 C.3   250  LEU250      0.0019
    218  CD1      -49.6050    7.5620   81.6740 C.3   250  LEU250      0.0001
    219  CD2      -49.0330    8.6340   83.8490 C.3   250  LEU250      0.0001
    220  N        -53.5510    5.9880   86.1720 N.3   254  LEU254     -0.1245
    221  CA       -52.1140    5.7670   86.2680 C.3   254  LEU254      0.1561
    222  C        -51.4150    6.9540   86.9070 C.2   254  LEU254      0.2260
    223  O        -50.4080    6.7750   87.6000 O.2   254  LEU254     -0.2867
    224  CB       -51.5250    5.4820   84.8880 C.3   254  LEU254      0.0270
    225  CG       -52.1130    4.2310   84.2330 C.3   254  LEU254      0.0019
    226  CD1      -51.5170    4.0130   82.8470 C.3   254  LEU254      0.0001
    227  CD2      -51.8840    3.0250   85.1410 C.3   254  LEU254      0.0001
    228  N        -48.8440    6.4540   90.0750 N.3   258  TYR258     -0.1241
    229  CA       -47.4500    6.8580   89.9590 C.3   258  TYR258      0.1605
    230  C        -47.0860    8.0260   90.8600 C.2   258  TYR258      0.2264
    231  O        -45.9020    8.2050   91.1710 O.2   258  TYR258     -0.2867
    232  CB       -47.1440    7.2110   88.5050 C.3   258  TYR258      0.0534
    233  CG       -46.9010    5.9890   87.6570 C.ar  258  TYR258     -0.0201
    234  CD1      -45.9870    5.0300   88.0530 C.ar  258  TYR258     -0.0009
    235  CD2      -47.5850    5.7950   86.4640 C.ar  258  TYR258     -0.0009
    236  CE1      -45.7470    3.9080   87.2800 C.ar  258  TYR258      0.0417
    237  CE2      -47.3540    4.6860   85.6840 C.ar  258  TYR258      0.0417
    238  CZ       -46.4360    3.7400   86.0980 C.ar  258  TYR258      0.1957
    239  OH       -46.1990    2.6220   85.3280 O.3   258  TYR258     -0.2866
@<TRIPOS>BOND
     1     9    10    1
     2    11    12    2
     3    11    10    1
     4    10    13    1
     5    13    14    1
     6    14    16    1
     7    14    15    1
     8     2     3    1
     9     2     1    1
    10     2     5    1
    11    27    25    1
    12     3     4    2
    13    26    25    1
    14     6     5    1
    15     6     8    1
    16     7     5    1
    17    25    24    2
    18    24    23    1
    19    23    22    1
    20    22    21    1
    21    21    18    1
    22   157   156    1
    23    35    33    1
    24   151   150    1
    25   151   152    1
    26   151   154    1
    27   155   154    1
    28   155   156    1
    29   152   153    2
    30   158   159    1
    31    33    32    1
    32   143   141    1
    33    18    17    1
    34    18    19    1
    35   141   140    1
    36   149   148    1
    37   159   160    1
    38   159   162    1
    39    28    19   am
    40    28    29    1
    41    19    20    2
    42   148   145    1
    43   160   161    2
    44    32    29    1
    45    32    34    1
    46    29    30    1
    47   147   146    2
    48   163   162    1
    49   163   165    1
    50   163   164    1
    51   139   138    2
    52   135   133    1
    53   140   142    1
    54   140   137    1
    55   124   123    2
    56   145   146    1
    57   145   144    1
    58   138   144   am
    59   138   137    1
    60   136   137    1
    61   136   130   am
    62   121   122    1
    63    30    36   am
    64    30    31    2
    65   123   128   am
    66   123   122    1
    67   129   130    1
    68   129   128    1
    69   129   132    1
    70    36    37    1
    71   133   132    1
    72   133   134    1
    73   130   131    2
    74   126   125    1
    75   122   125    1
    76    47    48    1
    77    48    49    1
    78   125   127    1
    79    37    40    1
    80    37    38    1
    81    40    41    1
    82    38    39    2
    83    49    51   am
    84    49    50    2
    85    51    52    1
    86   182   181    1
    87   182   183    1
    88   181   178    1
    89    56    55    1
    90    41    43   ar
    91    41    42   ar
    92   173   175   ar
    93   173   171   ar
    94   170   171    1
    95   170   167    1
    96   166   167    1
    97   184   183    1
    98   177   178    1
    99   177   168   am
   100    52    55    1
   101    52    53    1
   102    43    45   ar
   103    42    44   ar
   104   178   179    1
   105   175   176   ar
   106   171   172   ar
   107   179   180    2
   108   167   168    1
   109   168   169    2
   110    57    53   am
   111    57    58    1
   112    70    67    1
   113    70    71    1
   114    53    54    2
   115    45    46   ar
   116    66    67    1
   117   176   174   ar
   118   172   174   ar
   119    44    46   ar
   120    72    71    1
   121    72    73    1
   122    67    68    1
   123    65    63   am
   124    64    63    2
   125    61    62    1
   126    61    58    1
   127    63    62    1
   128    58    59    1
   129   119   118    1
   130    59    60    2
   131    73    74    2
   132   116   115    2
   133   212   213    1
   134   118   120    1
   135   118   117    1
   136    68    77   am
   137    68    69    2
   138    74    75    1
   139    74    76    1
   140   187   188    2
   141   187   186    1
   142   189   186    1
   143   189   190    1
   144    77    78    1
   145   185   186    1
   146   213   214    1
   147   213   216    1
   148   115   114    1
   149   191   190    1
   150   191   192    1
   151   214   215    2
   152   218   217    1
   153   117   114    1
   154   114   113    1
   155   192   193    1
   156   202   200   ar
   157   202   203   ar
   158   216   217    1
   159    78    81    1
   160    78    79    1
   161   211   209    1
   162   207   206    2
   163    81    82    1
   164   200   199   ar
   165   217   219    1
   166   203   201   ar
   167   226   225    1
   168   205   204    1
   169   205   206    1
   170   205   208    1
   171    79    80    2
   172   109   107   ar
   173   109   111   ar
   174   209   208    1
   175   209   210    1
   176   199   201   ar
   177   199   198    1
   178   107   106   ar
   179   112   111    1
   180   225   224    1
   181   225   227    1
   182    99    97    1
   183   197   196    2
   184   111   110   ar
   185    96    95    2
   186   104   103    2
   187   224   221    1
   188   195   198    1
   189   195   196    1
   190   195   194    1
   191   106   105    1
   192   106   108   ar
   193   239   238    1
   194   102   103    1
   195   102   105    1
   196   102   101    1
   197    95   101   am
   198    95    94    1
   199   237   238   ar
   200   237   235   ar
   201   110   108   ar
   202    97    98    1
   203    97    94    1
   204   100    98    1
   205   238   236   ar
   206   220   221    1
   207    94    93    1
   208   221   222    1
   209   235   233   ar
   210    92    90   ar
   211    92    91   ar
   212    90    88   ar
   213   222   223    2
   214   236   234   ar
   215   233   234   ar
   216   233   232    1
   217    91    89   ar
   218    88    89   ar
   219    88    87    1
   220    86    85    2
   221   232   229    1
   222    87    84    1
   223    84    85    1
   224    84    83    1
   225   229   228    1
   226   229   230    1
   227   230   231    2
