@<TRIPOS>MOLECULE
tmp/5y2uB00.pdb
 109 104 0 0 0
SMALL
GASTEIGER

@<TRIPOS>ATOM
      1  N         12.3490  -14.9810  -23.5310 N.3    21  PHE21      -0.1241
      2  CA        13.0180  -14.3290  -24.6570 C.3    21  PHE21       0.1605
      3  C         12.0770  -14.2520  -25.8560 C.2    21  PHE21       0.2264
      4  O         11.6390  -15.2960  -26.3360 O.2    21  PHE21      -0.2867
      5  CB        14.2720  -15.1120  -25.0660 C.3    21  PHE21       0.0534
      6  CG        15.4250  -15.0070  -24.0940 C.ar   21  PHE21      -0.0203
      7  CD1       15.5960  -15.9520  -23.0890 C.ar   21  PHE21      -0.0042
      8  CD2       16.3180  -13.9440  -24.1720 C.ar   21  PHE21      -0.0042
      9  CE1       16.6590  -15.8570  -22.1950 C.ar   21  PHE21      -0.0003
     10  CE2       17.3870  -13.8430  -23.2880 C.ar   21  PHE21      -0.0003
     11  CZ        17.5530  -14.7980  -22.2910 C.ar   21  PHE21      -0.0000
     12  N         16.3910   -7.8650  -31.7970 N.3    89  ARG89      -0.1245
     13  CA        17.4590   -8.8520  -31.9310 C.3    89  ARG89       0.1563
     14  C         16.8720  -10.2630  -31.9630 C.2    89  ARG89       0.2260
     15  O         15.9580  -10.5610  -31.2100 O.2    89  ARG89      -0.2867
     16  CB        18.4500   -8.7130  -30.7690 C.3    89  ARG89       0.0307
     17  CG        19.5370   -9.7670  -30.7460 C.3    89  ARG89       0.0489
     18  CD        20.5550   -9.5200  -29.6340 C.3    89  ARG89       0.2205
     19  NE        21.4600  -10.6600  -29.5340 N.pl3  89  ARG89      -0.0865
     20  CZ        22.3470  -10.8430  -28.5640 C.cat  89  ARG89       0.5346
     21  NH1       22.4800   -9.9420  -27.5960 N.pl3  89  ARG89       0.1354
     22  NH2       23.1110  -11.9300  -28.5780 N.pl3  89  ARG89       0.1354
     23  N         16.9570  -13.9570  -30.9560 N.3    91  TYR91      -0.1241
     24  CA        17.6330  -14.6460  -29.8520 C.3    91  TYR91       0.1605
     25  C         17.8320  -16.1400  -30.1010 C.2    91  TYR91       0.2264
     26  O         18.2170  -16.8790  -29.1920 O.2    91  TYR91      -0.2867
     27  CB        16.8800  -14.4220  -28.5430 C.3    91  TYR91       0.0534
     28  CG        17.1120  -13.0440  -27.9610 C.ar   91  TYR91      -0.0201
     29  CD1       18.3180  -12.7240  -27.3580 C.ar   91  TYR91      -0.0009
     30  CD2       16.1420  -12.0530  -28.0510 C.ar   91  TYR91      -0.0009
     31  CE1       18.5470  -11.4660  -26.8340 C.ar   91  TYR91       0.0417
     32  CE2       16.3630  -10.7850  -27.5400 C.ar   91  TYR91       0.0417
     33  CZ        17.5710  -10.4990  -26.9320 C.ar   91  TYR91       0.1957
     34  OH        17.7980   -9.2440  -26.4110 O.3    91  TYR91      -0.2866
     35  N         17.3640  -19.5100  -27.8520 N.3    94  LEU94      -0.1245
     36  CA        16.8270  -19.0510  -26.5690 C.3    94  LEU94       0.1561
     37  C         15.3770  -18.5910  -26.6880 C.2    94  LEU94       0.2260
     38  O         14.6690  -18.4570  -25.6890 O.2    94  LEU94      -0.2867
     39  CB        17.6760  -17.9160  -25.9930 C.3    94  LEU94       0.0270
     40  CG        19.1540  -18.2170  -25.7720 C.3    94  LEU94       0.0019
     41  CD1       19.8250  -17.0720  -25.0540 C.3    94  LEU94       0.0001
     42  CD2       19.2870  -19.4990  -24.9590 C.3    94  LEU94       0.0001
     43  N         13.8380  -17.2560  -18.0380 N.3    99  LYS99      -0.1245
     44  CA        15.1150  -17.0490  -17.3740 C.3    99  LYS99       0.1561
     45  C         15.6430  -18.3360  -16.7140 C.2    99  LYS99       0.2260
     46  O         16.8300  -18.6790  -16.8240 O.2    99  LYS99      -0.2867
     47  CB        14.9620  -15.9250  -16.3350 C.3    99  LYS99       0.0271
     48  CG        16.2620  -15.4330  -15.6960 C.3    99  LYS99       0.0035
     49  CD        16.0270  -14.1820  -14.8230 C.3    99  LYS99       0.0206
     50  CE        14.6050  -14.1370  -14.2490 C.3    99  LYS99       0.1093
     51  NZ        14.3520  -12.9390  -13.3880 N.3    99  LYS99      -0.1314
     52  N         25.2970  -17.6410  -19.7690 N.3   111  VAL111     -0.1245
     53  CA        24.3410  -16.5490  -19.8390 C.3   111  VAL111      0.1561
     54  C         25.0430  -15.2260  -19.5530 C.2   111  VAL111      0.2260
     55  O         24.7220  -14.2050  -20.1470 O.2   111  VAL111     -0.2867
     56  CB        23.1840  -16.7620  -18.8520 C.3   111  VAL111      0.0252
     57  CG1       22.3670  -15.4880  -18.6850 C.3   111  VAL111      0.0019
     58  CG2       22.3120  -17.8880  -19.3470 C.3   111  VAL111      0.0019
     59  N         26.9530  -14.3210  -22.7540 N.3   114  TRP114     -0.1227
     60  CA        26.0560  -13.8540  -23.8170 C.3   114  TRP114      0.1737
     61  C         25.5620  -12.4560  -23.4680 C.2   114  TRP114      0.2595
     62  O         25.5600  -11.5580  -24.3060 O.2   114  TRP114     -0.2718
     63  CB        24.8690  -14.8130  -24.0350 C.3   114  TRP114      0.0564
     64  CG        25.2220  -16.0970  -24.7770 C.ar  114  TRP114      0.0003
     65  CD1       26.1830  -16.2560  -25.7370 C.ar  114  TRP114      0.0946
     66  CD2       24.6230  -17.3960  -24.5950 C.ar  114  TRP114      0.0152
     67  NE1       26.2160  -17.5650  -26.1650 N.ar  114  TRP114     -0.2442
     68  CE2       25.2700  -18.2820  -25.4800 C.ar  114  TRP114      0.0810
     69  CE3       23.6070  -17.8900  -23.7690 C.ar  114  TRP114      0.0012
     70  CZ2       24.9380  -19.6410  -25.5530 C.ar  114  TRP114      0.0191
     71  CZ3       23.2760  -19.2390  -23.8500 C.ar  114  TRP114      0.0001
     72  CH2       23.9370  -20.0940  -24.7360 C.ar  114  TRP114      0.0015
     73  N         25.1720  -12.2790  -22.2110 N.am  115  ARG115     -0.1980
     74  CA        24.6760  -11.0050  -21.6960 C.3   115  ARG115      0.1597
     75  C         25.5560   -9.7930  -22.0140 C.2   115  ARG115      0.2287
     76  O         25.0660   -8.7660  -22.4800 O.2   115  ARG115     -0.2864
     77  CB        24.5260  -11.1320  -20.1790 C.3   115  ARG115      0.0334
     78  CG        24.3960   -9.8350  -19.4090 C.3   115  ARG115      0.0492
     79  CD        24.4700  -10.1240  -17.9100 C.3   115  ARG115      0.2205
     80  NE        24.1330   -8.9600  -17.0970 N.pl3 115  ARG115     -0.0865
     81  CZ        25.0280   -8.1980  -16.4720 C.cat 115  ARG115      0.5346
     82  NH1       26.3230   -8.4830  -16.5510 N.pl3 115  ARG115      0.1354
     83  NH2       24.6250   -7.1550  -15.7560 N.pl3 115  ARG115      0.1354
     84  N         23.8320  -16.1110  -29.4820 N.3   122  PRO122     -0.2116
     85  CA        23.2390  -17.2370  -28.7600 C.3   122  PRO122      0.1372
     86  C         23.1490  -18.4230  -29.7190 C.2   122  PRO122      0.2244
     87  O         23.4190  -18.2370  -30.9210 O.2   122  PRO122     -0.2868
     88  CB        21.8710  -16.6890  -28.3230 C.3   122  PRO122      0.0268
     89  CG        21.5190  -15.6900  -29.3710 C.3   122  PRO122      0.0207
     90  CD        22.8290  -15.0910  -29.8450 C.3   122  PRO122      0.0892
     91  N         19.2010    0.7570  -30.5660 N.3   190  ARG190     -0.1245
     92  CA        20.5940    0.8030  -30.1460 C.3   190  ARG190      0.1563
     93  C         21.4700    0.9960  -31.3640 C.2   190  ARG190      0.2260
     94  O         22.3940    1.7900  -31.3320 O.2   190  ARG190     -0.2867
     95  CB        21.0020   -0.4740  -29.4130 C.3   190  ARG190      0.0307
     96  CG        20.8500   -0.4170  -27.9190 C.3   190  ARG190      0.0489
     97  CD        21.2890   -1.7400  -27.3190 C.3   190  ARG190      0.2205
     98  NE        21.2370   -1.7340  -25.8600 N.pl3 190  ARG190     -0.0865
     99  CZ        21.2860   -2.8340  -25.1140 C.cat 190  ARG190      0.5346
    100  NH1       21.3890   -4.0230  -25.6900 N.pl3 190  ARG190      0.1354
    101  NH2       21.2410   -2.7450  -23.7920 N.pl3 190  ARG190      0.1354
    102  N         20.7240    1.6020  -21.9620 N.3   208  ASN208     -0.1240
    103  CA        19.3870    1.0310  -21.9030 C.3   208  ASN208      0.1653
    104  C         18.3430    2.1130  -22.1360 C.2   208  ASN208      0.2266
    105  O         18.0680    2.9340  -21.2560 O.2   208  ASN208     -0.2867
    106  CB        19.1470    0.3360  -20.5630 C.3   208  ASN208      0.1155
    107  CG        20.0120   -0.8910  -20.3880 C.2   208  ASN208      0.2627
    108  OD1       19.7560   -1.9330  -20.9960 O.2   208  ASN208     -0.2716
    109  ND2       21.0430   -0.7800  -19.5510 N.am  208  ASN208     -0.0877
@<TRIPOS>BOND
     1    14    13    1
     2    14    15    2
     3    13    12    1
     4    13    16    1
     5    93    94    2
     6    93    92    1
     7    23    24    1
     8    87    86    2
     9    16    17    1
    10    17    18    1
    11    91    92    1
    12    92    95    1
    13    25    24    1
    14    25    26    2
    15    24    27    1
    16    90    84    1
    17    90    89    1
    18    86    85    1
    19    18    19    1
    20    19    20    2
    21    84    85    1
    22    95    96    1
    23    89    88    1
    24    85    88    1
    25    22    20    1
    26    20    21    1
    27    27    28    1
    28    30    28   ar
    29    30    32   ar
    30    28    29   ar
    31    96    97    1
    32    35    36    1
    33    32    33   ar
    34    29    31   ar
    35    97    98    1
    36    33    31   ar
    37    33    34    1
    38    37    36    1
    39    37    38    2
    40    36    39    1
    41     4     3    2
    42    67    65   ar
    43    67    68   ar
    44    39    40    1
    45    98    99    2
    46     3     2    1
    47    40    41    1
    48    40    42    1
    49    65    64   ar
    50   100    99    1
    51    70    68   ar
    52    70    72   ar
    53    68    66   ar
    54    99   101    1
    55     5     2    1
    56     5     6    1
    57    64    66   ar
    58    64    63    1
    59    72    71   ar
    60     2     1    1
    61    66    69   ar
    62    62    61    2
    63     8     6   ar
    64     8    10   ar
    65     6     7   ar
    66    63    60    1
    67    71    69   ar
    68    60    61    1
    69    60    59    1
    70    61    73   am
    71    10    11   ar
    72     7     9   ar
    73    76    75    2
    74    11     9   ar
    75    73    74    1
    76   104   103    1
    77   104   105    2
    78    75    74    1
    79   102   103    1
    80   103   106    1
    81    74    77    1
    82   108   107    2
    83   106   107    1
    84   107   109   am
    85    77    78    1
    86    55    54    2
    87    53    52    1
    88    53    54    1
    89    53    56    1
    90    78    79    1
    91    58    56    1
    92    56    57    1
    93    43    44    1
    94    79    80    1
    95    44    45    1
    96    44    47    1
    97    80    81    2
    98    46    45    2
    99    82    81    1
   100    81    83    1
   101    47    48    1
   102    48    49    1
   103    49    50    1
   104    50    51    1
