@<TRIPOS>MOLECULE
tmp/5y2wA00.pdb
 107 99 0 0 0
SMALL
GASTEIGER

@<TRIPOS>ATOM
      1  N         16.8140   10.2690    3.0680 N.3     9  ILE9       -0.1231
      2  CA        15.9670   11.0260    3.9890 C.3     9  ILE9        0.1692
      3  C         15.9080   12.5150    3.6070 C.2     9  ILE9        0.2593
      4  O         16.7810   13.0260    2.9160 O.2     9  ILE9       -0.2718
      5  CB        16.4100   10.8370    5.4310 C.3     9  ILE9        0.0266
      6  CG1       17.9040   11.1500    5.5600 C.3     9  ILE9        0.0019
      7  CG2       16.0270    9.4350    5.8930 C.3     9  ILE9        0.0020
      8  CD1       18.3220   11.4430    6.9570 C.3     9  ILE9        0.0001
      9  N         14.9000   13.2250    4.1090 N.am   10  THR10      -0.1939
     10  CA        14.5770   14.5320    3.5810 C.3    10  THR10       0.2028
     11  C         15.7480   15.4760    3.6800 C.2    10  THR10       0.2642
     12  O         15.9850   16.2760    2.7930 O.2    10  THR10      -0.2714
     13  CB        13.4020   15.1690    4.3380 C.3    10  THR10       0.1808
     14  OG1       13.7200   15.1510    5.7360 O.3    10  THR10      -0.2208
     15  CG2       12.1100   14.4190    4.0830 C.3    10  THR10       0.0379
     16  N         16.4950   15.3810    4.7490 N.am   11  THR11      -0.1950
     17  CA        17.4930   16.3870    5.0480 C.3    11  THR11       0.1897
     18  C         18.7500   16.2880    4.1530 C.2    11  THR11       0.2313
     19  O         19.6410   17.1610    4.1660 O.2    11  THR11      -0.2863
     20  CB        17.8880   16.2610    6.5280 C.3    11  THR11       0.1794
     21  OG1       18.2650   14.8870    6.8330 O.3    11  THR11      -0.2208
     22  CG2       16.7100   16.6080    7.3730 C.3    11  THR11       0.0378
     23  N         10.9530   10.3800    4.1190 N.3    38  ASN38      -0.1225
     24  CA        11.2100   10.3250    5.5380 C.3    38  ASN38       0.1785
     25  C         11.5140    8.9020    5.9710 C.2    38  ASN38       0.2597
     26  O         11.5130    7.9970    5.1720 O.2    38  ASN38      -0.2718
     27  CB        10.0430   10.9760    6.3330 C.3    38  ASN38       0.1169
     28  CG         8.7890   10.1030    6.3980 C.2    38  ASN38       0.2627
     29  OD1        8.8250    8.9050    6.1420 O.2    38  ASN38      -0.2716
     30  ND2        7.6730   10.7230    6.7480 N.am   38  ASN38      -0.0877
     31  N         11.8480    8.7090    7.2330 N.am   39  HIS39      -0.1975
     32  CA        12.3530    7.4030    7.6510 C.3    39  HIS39       0.1656
     33  C         11.2790    6.3190    7.5430 C.2    39  HIS39       0.2291
     34  O         11.5850    5.1720    7.2100 O.2    39  HIS39      -0.2864
     35  CB        12.9000    7.4490    9.0680 C.3    39  HIS39       0.0771
     36  CG        14.3230    7.9090    9.1570 C.ar   39  HIS39       0.0820
     37  ND1       14.6790    9.2380    9.3010 N.ar   39  HIS39      -0.2267
     38  CD2       15.4840    7.2020    9.1870 C.ar   39  HIS39       0.1154
     39  CE1       15.9980    9.3280    9.4040 C.ar   39  HIS39       0.1986
     40  NE2       16.5100    8.1060    9.3100 N.ar   39  HIS39      -0.2212
     41  N         19.4970    8.3400    9.0150 N.3    57  SER57      -0.1217
     42  CA        20.1340    8.6360   10.3070 C.3    57  SER57       0.1889
     43  C         19.8940    7.5900   11.4200 C.2    57  SER57       0.2288
     44  O         20.7090    7.3990   12.2920 O.2    57  SER57      -0.2866
     45  CB        19.6260    9.9910   10.8160 C.3    57  SER57       0.2089
     46  OG        20.0520   10.9800    9.9440 O.3    57  SER57      -0.2183
     47  N         24.9190   14.4910   11.3430 N.3    73  ASN73      -0.1240
     48  CA        23.6500   15.0900   11.0660 C.3    73  ASN73       0.1653
     49  C         23.0970   15.6980   12.3530 C.2    73  ASN73       0.2266
     50  O         22.1280   15.2080   12.9340 O.2    73  ASN73      -0.2867
     51  CB        22.7190   14.0250   10.5270 C.3    73  ASN73       0.1155
     52  CG        21.3600   14.5950   10.1650 C.2    73  ASN73       0.2627
     53  OD1       21.2220   15.7980    9.8040 O.2    73  ASN73      -0.2716
     54  ND2       20.3510   13.7570   10.2780 N.am   73  ASN73      -0.0877
     55  N         20.9060   17.7000   14.7340 N.3    75  LEU75      -0.1245
     56  CA        19.5970   18.3440   14.7900 C.3    75  LEU75       0.1561
     57  C         19.6150   19.5060   15.7930 C.2    75  LEU75       0.2260
     58  O         20.0470   19.3540   16.9430 O.2    75  LEU75      -0.2867
     59  CB        18.5680   17.3480   15.2560 C.3    75  LEU75       0.0270
     60  CG        18.4450   16.0290   14.5030 C.3    75  LEU75       0.0019
     61  CD1       17.1820   15.3080   14.9760 C.3    75  LEU75       0.0001
     62  CD2       18.3970   16.1650   12.9960 C.3    75  LEU75       0.0001
     63  N          7.2830   18.0520   12.6110 N.3   104  ARG104     -0.1245
     64  CA         7.2340   17.3270   11.3570 C.3   104  ARG104      0.1563
     65  C          6.0690   16.3170   11.4090 C.2   104  ARG104      0.2260
     66  O          5.5140   16.0520   12.4910 O.2   104  ARG104     -0.2867
     67  CB         8.5660   16.5500   11.1740 C.3   104  ARG104      0.0307
     68  CG         9.7530   17.3920   10.7370 C.3   104  ARG104      0.0489
     69  CD         9.7340   17.7200    9.2660 C.3   104  ARG104      0.2205
     70  NE         9.6540   16.4750    8.5080 N.pl3 104  ARG104     -0.0865
     71  CZ        10.6810   15.6880    8.1840 C.cat 104  ARG104      0.5346
     72  NH1       10.4220   14.5050    7.6000 N.pl3 104  ARG104      0.1354
     73  NH2       11.9400   16.0700    8.4460 N.pl3 104  ARG104      0.1354
     74  N          8.3630   10.9800   10.5870 N.3   108  SER108     -0.1202
     75  CA         9.6360   11.6640   10.5100 C.3   108  SER108      0.2020
     76  C         10.5620   11.1410   11.6110 C.2   108  SER108      0.2619
     77  O         10.1730   11.0770   12.7530 O.2   108  SER108     -0.2717
     78  CB         9.4290   13.1560   10.6980 C.3   108  SER108      0.2103
     79  OG        10.6280   13.7640   11.0810 O.3   108  SER108     -0.2182
     80  N         11.7980   10.7820   11.2780 N.am  109  GLY109     -0.1942
     81  CA        12.7930   10.4490   12.3250 C.3   109  GLY109      0.2014
     82  C         13.2090   11.6660   13.0950 C.2   109  GLY109      0.2639
     83  O         13.6160   11.5670   14.2590 O.2   109  GLY109     -0.2714
     84  N         13.0770   12.8440   12.4650 N.am  110  THR110     -0.1950
     85  CA        13.4080   14.0940   13.1480 C.3   110  THR110      0.1897
     86  C         12.4680   14.2070   14.3200 C.2   110  THR110      0.2313
     87  O         12.9290   14.3590   15.4640 O.2   110  THR110     -0.2863
     88  CB        13.3090   15.3260   12.2490 C.3   110  THR110      0.1794
     89  OG1       14.2880   15.2460   11.2420 O.3   110  THR110     -0.2208
     90  CG2       13.5430   16.6450   13.0310 C.3   110  THR110      0.0378
     91  N         17.3570   19.1910   11.1490 N.3   151  SER151     -0.1217
     92  CA        18.7500   19.0040   10.7420 C.3   151  SER151      0.1889
     93  C         19.3630   20.3040   10.3770 C.2   151  SER151      0.2288
     94  O         18.8010   21.0690    9.5950 O.2   151  SER151     -0.2866
     95  CB        18.8610   18.0980    9.5130 C.3   151  SER151      0.2089
     96  OG        20.2180   17.9920    9.1550 O.3   151  SER151     -0.2183
     97  N         23.6550   12.9030   15.7380 N.3   176  ARG176     -0.1245
     98  CA        22.9880   11.9740   14.8380 C.3   176  ARG176      0.1563
     99  C         23.8620   11.9450   13.6070 C.2   176  ARG176      0.2260
    100  O         24.6550   12.8490   13.3720 O.2   176  ARG176     -0.2867
    101  CB        21.5930   12.5330   14.6250 C.3   176  ARG176      0.0307
    102  CG        20.6470   11.8510   13.7020 C.3   176  ARG176      0.0489
    103  CD        19.3820   12.7340   13.6600 C.3   176  ARG176      0.2205
    104  NE        18.2940   12.2490   12.7930 N.pl3 176  ARG176     -0.0865
    105  CZ        17.4410   11.2800   13.1270 C.cat 176  ARG176      0.5346
    106  NH1       17.5220   10.7370   14.3160 N.pl3 176  ARG176      0.1354
    107  NH2       16.4650   10.9060   12.3000 N.pl3 176  ARG176      0.1354
@<TRIPOS>BOND
     1    12    11    2
     2     4     3    2
     3     1     2    1
     4    10    11    1
     5    10     9    1
     6    10    13    1
     7     3     2    1
     8     3     9   am
     9    11    16   am
    10     2     5    1
    11    15    13    1
    12    23    24    1
    13    18    19    2
    14    18    17    1
    15    13    14    1
    16    16    17    1
    17    17    20    1
    18    26    25    2
    19     5     6    1
    20     5     7    1
    21    24    25    1
    22    24    27    1
    23     6     8    1
    24    25    31   am
    25    29    28    2
    26    27    28    1
    27    28    30   am
    28    20    21    1
    29    20    22    1
    30    34    33    2
    31    31    32    1
    32    33    32    1
    33    72    71    1
    34    32    35    1
    35    71    73    1
    36    71    70    2
    37    70    69    1
    38    41    42    1
    39    35    36    1
    40    96    95    1
    41    36    38   ar
    42    36    37   ar
    43    38    40   ar
    44    69    68    1
    45    37    39   ar
    46    40    39   ar
    47    95    92    1
    48    94    93    2
    49    53    52    2
    50    46    45    1
    51    52    54   am
    52    52    51    1
    53    42    45    1
    54    42    43    1
    55    93    92    1
    56    75    74    1
    57    75    78    1
    58    75    76    1
    59    51    48    1
    60    78    79    1
    61    68    67    1
    62    92    91    1
    63    48    47    1
    64    48    49    1
    65    67    64    1
    66    89    88    1
    67    80    76   am
    68    80    81    1
    69    64    65    1
    70    64    63    1
    71    65    66    2
    72    43    44    2
    73    76    77    2
    74    88    90    1
    75    88    85    1
    76   107   105    1
    77    81    82    1
    78    49    50    2
    79    84    82   am
    80    84    85    1
    81   104   105    2
    82   104   103    1
    83    62    60    1
    84    82    83    2
    85   105   106    1
    86    85    86    1
    87   100    99    2
    88    99    98    1
    89   103   102    1
    90   102   101    1
    91    86    87    2
    92    60    61    1
    93    60    59    1
    94   101    98    1
    95    55    56    1
    96    56    59    1
    97    56    57    1
    98    98    97    1
    99    57    58    2
