@<TRIPOS>MOLECULE
tmp/5y2yB00.pdb
 165 163 0 0 0
SMALL
GASTEIGER

@<TRIPOS>ATOM
      1  N        -25.9810   37.0360  -15.9970 N.3    38  ASN38      -0.1226
      2  CA       -25.0860   36.9190  -17.1450 C.3    38  ASN38       0.1770
      3  C        -25.4030   35.6440  -17.9200 C.2    38  ASN38       0.2439
      4  O        -25.5430   34.5830  -17.3230 O.2    38  ASN38      -0.2733
      5  CB       -23.6160   36.9170  -16.6630 C.3    38  ASN38       0.1168
      6  CG       -22.6400   37.1730  -17.7720 C.2    38  ASN38       0.2627
      7  OD1      -22.9100   37.9750  -18.6470 O.2    38  ASN38      -0.2716
      8  ND2      -21.4690   36.5490  -17.7100 N.am   38  ASN38      -0.0877
      9  N        -25.5010   35.7350  -19.2550 N.am   39  PRO39      -0.2729
     10  CA       -25.3660   36.8930  -20.1490 C.3    39  PRO39       0.1401
     11  C        -26.7040   37.3420  -20.6940 C.2    39  PRO39       0.2269
     12  O        -26.8480   37.5650  -21.9190 O.2    39  PRO39      -0.2865
     13  CB       -24.4970   36.3430  -21.2710 C.3    39  PRO39       0.0296
     14  CG       -25.0220   34.9170  -21.4070 C.3    39  PRO39       0.0237
     15  CD       -25.4630   34.4740  -20.0080 C.3    39  PRO39       0.0939
     16  N        -28.8990   34.2460  -10.8000 N.3   103  ASP103     -0.1239
     17  CA       -27.4740   34.3760  -11.2120 C.3   103  ASP103      0.1674
     18  C        -26.8580   35.6820  -10.6790 C.2   103  ASP103      0.2266
     19  O        -26.9010   35.9560   -9.4630 O.2   103  ASP103     -0.2867
     20  CB       -27.3780   34.2660  -12.7480 C.3   103  ASP103      0.1410
     21  CG       -25.9210   34.1990  -13.2930 C.2   103  ASP103      0.3668
     22  OD1      -25.2380   33.1510  -13.2050 O.co2 103  ASP103     -0.2456
     23  OD2      -25.4860   35.2250  -13.8820 O.co2 103  ASP103     -0.2456
     24  N        -15.4640   21.3120   -7.4510 N.3   137  GLU137     -0.1231
     25  CA       -16.9210   21.2510   -7.4910 C.3   137  GLU137      0.1699
     26  C        -17.4530   21.1860   -8.9220 C.2   137  GLU137      0.2592
     27  O        -18.5530   20.6910   -9.1390 O.2   137  GLU137     -0.2718
     28  CB       -17.5290   22.4540   -6.7600 C.3   137  GLU137      0.0402
     29  CG       -17.4140   22.3380   -5.2490 C.3   137  GLU137      0.1161
     30  CD       -18.2490   23.3550   -4.4770 C.2   137  GLU137      0.3649
     31  OE1      -19.0460   24.1010   -5.0950 O.co2 137  GLU137     -0.2457
     32  OE2      -18.1120   23.3930   -3.2320 O.co2 137  GLU137     -0.2457
     33  N        -16.6560   21.6600   -9.8820 N.am  138  TRP138     -0.1963
     34  CA       -17.0400   21.7100  -11.2920 C.3   138  TRP138      0.1756
     35  C        -16.4420   20.5830  -12.1370 C.2   138  TRP138      0.2461
     36  O        -15.3600   20.0900  -11.8450 O.2   138  TRP138     -0.2730
     37  CB       -16.6220   23.0540  -11.9100 C.3   138  TRP138      0.0590
     38  CG       -17.5290   24.1870  -11.5740 C.ar  138  TRP138      0.0006
     39  CD1      -18.4620   24.2350  -10.5680 C.ar  138  TRP138      0.0946
     40  CD2      -17.6350   25.4280  -12.2790 C.ar  138  TRP138      0.0152
     41  NE1      -19.1270   25.4450  -10.5970 N.ar  138  TRP138     -0.2442
     42  CE2      -18.6260   26.1980  -11.6310 C.ar  138  TRP138      0.0810
     43  CE3      -16.9840   25.9650  -13.3840 C.ar  138  TRP138      0.0012
     44  CZ2      -18.9750   27.4840  -12.0630 C.ar  138  TRP138      0.0191
     45  CZ3      -17.3340   27.2400  -13.8110 C.ar  138  TRP138      0.0001
     46  CH2      -18.3150   27.9800  -13.1540 C.ar  138  TRP138      0.0015
     47  N        -17.1410   20.1820  -13.2100 N.am  139  PRO139     -0.2727
     48  CA       -16.5660   19.1500  -14.0900 C.3   139  PRO139      0.1402
     49  C        -15.4660   19.7000  -14.9940 C.2   139  PRO139      0.2269
     50  O        -15.3480   20.9170  -15.1300 O.2   139  PRO139     -0.2865
     51  CB       -17.7720   18.6730  -14.9020 C.3   139  PRO139      0.0296
     52  CG       -18.6600   19.8710  -14.9640 C.3   139  PRO139      0.0237
     53  CD       -18.5060   20.5580  -13.6160 C.3   139  PRO139      0.0939
     54  N        -14.8370   20.0250  -18.2160 N.3   141  PHE141     -0.1227
     55  CA       -15.0980   20.9140  -19.3620 C.3   141  PHE141      0.1736
     56  C        -15.3820   22.3340  -18.8750 C.2   141  PHE141      0.2595
     57  O        -14.8980   23.3140  -19.4530 O.2   141  PHE141     -0.2718
     58  CB       -16.2850   20.4410  -20.2210 C.3   141  PHE141      0.0547
     59  CG       -17.6550   20.6880  -19.5970 C.ar  141  PHE141     -0.0202
     60  CD1      -18.2200   19.8010  -18.7020 C.ar  141  PHE141     -0.0042
     61  CD2      -18.3870   21.8170  -19.9550 C.ar  141  PHE141     -0.0042
     62  CE1      -19.4870   20.0510  -18.1680 C.ar  141  PHE141     -0.0003
     63  CE2      -19.6480   22.0710  -19.4230 C.ar  141  PHE141     -0.0003
     64  CZ       -20.1970   21.1950  -18.5230 C.ar  141  PHE141     -0.0000
     65  N        -16.1770   22.4270  -17.8040 N.am  142  ALA142     -0.1980
     66  CA       -16.6310   23.7130  -17.2720 C.3   142  ALA142      0.1597
     67  C        -15.4870   24.4110  -16.5720 C.2   142  ALA142      0.2287
     68  O        -15.2510   25.5960  -16.7580 O.2   142  ALA142     -0.2864
     69  CB       -17.7940   23.5000  -16.3220 C.3   142  ALA142      0.0319
     70  N        -12.9060   25.5630  -19.1070 N.3   145  THR145     -0.1203
     71  CA       -13.4330   26.7350  -19.8200 C.3   145  THR145      0.1994
     72  C        -13.4110   28.0140  -18.9640 C.2   145  THR145      0.2617
     73  O        -12.9600   29.0630  -19.4050 O.2   145  THR145     -0.2717
     74  CB       -14.8530   26.4770  -20.3030 C.3   145  THR145      0.1784
     75  OG1      -14.8130   25.4990  -21.3480 O.3   145  THR145     -0.2211
     76  CG2      -15.4590   27.7330  -20.8650 C.3   145  THR145      0.0376
     77  N        -13.8800   27.9280  -17.7280 N.am  146  PHE146     -0.1975
     78  CA       -13.9680   29.1280  -16.9150 C.3   146  PHE146      0.1639
     79  C        -12.6200   29.5530  -16.4080 C.2   146  PHE146      0.2290
     80  O        -12.3700   30.7570  -16.2750 O.2   146  PHE146     -0.2864
     81  CB       -14.9670   28.9490  -15.7720 C.3   146  PHE146      0.0560
     82  CG       -16.3530   29.4150  -16.1340 C.ar  146  PHE146     -0.0200
     83  CD1      -17.1510   28.6710  -16.9890 C.ar  146  PHE146     -0.0042
     84  CD2      -16.8580   30.6110  -15.6220 C.ar  146  PHE146     -0.0042
     85  CE1      -18.4470   29.1160  -17.3300 C.ar  146  PHE146     -0.0003
     86  CE2      -18.1470   31.0520  -15.9450 C.ar  146  PHE146     -0.0003
     87  CZ       -18.9380   30.3160  -16.7990 C.ar  146  PHE146     -0.0000
     88  N        -19.1170   33.3080  -24.8790 N.3   165  PHE165     -0.1241
     89  CA       -20.0570   33.2310  -23.7660 C.3   165  PHE165      0.1605
     90  C        -21.5110   33.1480  -24.2760 C.2   165  PHE165      0.2264
     91  O        -22.3540   32.4650  -23.6980 O.2   165  PHE165     -0.2867
     92  CB       -19.8780   34.4020  -22.8040 C.3   165  PHE165      0.0534
     93  CG       -20.1500   34.0450  -21.3630 C.ar  165  PHE165     -0.0203
     94  CD1      -21.4530   33.9940  -20.8770 C.ar  165  PHE165     -0.0042
     95  CD2      -19.1010   33.7170  -20.5070 C.ar  165  PHE165     -0.0042
     96  CE1      -21.7190   33.6540  -19.5710 C.ar  165  PHE165     -0.0003
     97  CE2      -19.3520   33.3620  -19.1850 C.ar  165  PHE165     -0.0003
     98  CZ       -20.6760   33.3350  -18.7080 C.ar  165  PHE165     -0.0000
     99  N        -21.2290   29.1010  -23.9730 N.3   169  THR169     -0.1203
    100  CA       -21.5800   28.9500  -22.5720 C.3   169  THR169      0.1994
    101  C        -23.0860   29.0440  -22.3520 C.2   169  THR169      0.2617
    102  O        -23.6540   28.2480  -21.6070 O.2   169  THR169     -0.2717
    103  CB       -20.8290   30.0050  -21.7080 C.3   169  THR169      0.1784
    104  OG1      -19.4310   29.8920  -21.9790 O.3   169  THR169     -0.2211
    105  CG2      -21.0570   29.7910  -20.2090 C.3   169  THR169      0.0376
    106  N        -23.7380   30.0030  -22.9980 N.am  170  LEU170     -0.1979
    107  CA       -25.1700   30.2070  -22.7920 C.3   170  LEU170      0.1596
    108  C        -26.0140   28.9560  -23.1130 C.2   170  LEU170      0.2287
    109  O        -26.8800   28.5560  -22.2920 O.2   170  LEU170     -0.2864
    110  CB       -25.6470   31.4150  -23.5990 C.3   170  LEU170      0.0297
    111  CG       -27.1640   31.5770  -23.7490 C.3   170  LEU170      0.0022
    112  CD1      -27.8470   31.7710  -22.3740 C.3   170  LEU170      0.0001
    113  CD2      -27.5060   32.7340  -24.7080 C.3   170  LEU170      0.0001
    114  N        -25.1580   26.0060  -22.9050 N.3   172  CYS172     -0.1221
    115  CA       -24.8540   24.9820  -21.9190 C.3   172  CYS172      0.1808
    116  C        -25.6580   25.1840  -20.6470 C.2   172  CYS172      0.2601
    117  O        -25.6380   24.3360  -19.7620 O.2   172  CYS172     -0.2717
    118  CB       -23.3730   24.9820  -21.5710 C.3   172  CYS172      0.0970
    119  SG       -22.3850   24.2530  -22.8430 S.3   172  CYS172     -0.0800
    120  N        -26.3190   26.3270  -20.5180 N.am  173  GLY173     -0.1957
    121  CA       -27.0750   26.5780  -19.3000 C.3   173  GLY173      0.1869
    122  C        -28.5570   26.3090  -19.4380 C.2   173  GLY173      0.2309
    123  O        -29.3210   26.5820  -18.5100 O.2   173  GLY173     -0.2863
    124  N        -29.7150   18.6730  -13.3480 N.3   240  PRO240     -0.2102
    125  CA       -28.7460   18.6820  -12.2450 C.3   240  PRO240      0.1504
    126  C        -28.4610   20.0630  -11.6560 C.2   240  PRO240      0.2576
    127  O        -27.8230   20.1340  -10.6110 O.2   240  PRO240     -0.2718
    128  CB       -27.4800   18.1140  -12.8990 C.3   240  PRO240      0.0282
    129  CG       -27.5850   18.5290  -14.3100 C.3   240  PRO240      0.0208
    130  CD       -29.0520   18.4550  -14.6500 C.3   240  PRO240      0.0893
    131  N        -28.9070   21.1290  -12.3120 N.am  241  GLY241     -0.1943
    132  CA       -28.5970   22.4790  -11.8660 C.3   241  GLY241      0.2014
    133  C        -27.1620   22.8070  -12.2310 C.2   241  GLY241      0.2638
    134  O        -26.4710   21.9500  -12.7690 O.2   241  GLY241     -0.2714
    135  N        -26.7150   24.0310  -11.9530 N.am  242  VAL242     -0.1977
    136  CA       -25.3360   24.4450  -12.2230 C.3   242  VAL242      0.1596
    137  C        -24.7760   25.0710  -10.9400 C.2   242  VAL242      0.2287
    138  O        -23.9100   24.4890  -10.2970 O.2   242  VAL242     -0.2864
    139  CB       -25.2310   25.4410  -13.4230 C.3   242  VAL242      0.0276
    140  CG1      -23.8630   26.1220  -13.4760 C.3   242  VAL242      0.0022
    141  CG2      -25.5600   24.7380  -14.7710 C.3   242  VAL242      0.0022
    142  N        -30.6460   23.4890  -15.6700 N.3   268  LEU268     -0.1231
    143  CA       -29.2280   23.7550  -15.4680 C.3   268  LEU268      0.1693
    144  C        -29.0820   25.1350  -14.7700 C.2   268  LEU268      0.2592
    145  O        -29.2070   25.2360  -13.5400 O.2   268  LEU268     -0.2718
    146  CB       -28.4830   23.6760  -16.8000 C.3   268  LEU268      0.0284
    147  CG       -28.4360   22.2370  -17.3370 C.3   268  LEU268      0.0019
    148  CD1      -28.0750   22.1610  -18.8280 C.3   268  LEU268      0.0001
    149  CD2      -27.4490   21.4070  -16.5180 C.3   268  LEU268      0.0001
    150  N        -28.8550   26.1950  -15.5380 N.am  269  ASN269     -0.1960
    151  CA       -28.7430   27.5120  -14.9370 C.3   269  ASN269      0.1819
    152  C        -29.9470   28.4040  -15.2650 C.2   269  ASN269      0.2621
    153  O        -30.5630   28.9600  -14.3630 O.2   269  ASN269     -0.2715
    154  CB       -27.4390   28.1720  -15.3720 C.3   269  ASN269      0.1195
    155  CG       -27.2530   29.5690  -14.7760 C.2   269  ASN269      0.2630
    156  OD1      -27.4340   30.5610  -15.4620 O.2   269  ASN269     -0.2716
    157  ND2      -26.8580   29.6420  -13.5070 N.am  269  ASN269     -0.0877
    158  N        -30.2900   28.5410  -16.5470 N.am  270  LEU270     -0.1977
    159  CA       -31.4350   29.3730  -16.9360 C.3   270  LEU270      0.1596
    160  C        -32.7450   28.5930  -16.7820 C.2   270  LEU270      0.2287
    161  O        -33.3660   28.1880  -17.7770 O.2   270  LEU270     -0.2864
    162  CB       -31.2900   29.8900  -18.3880 C.3   270  LEU270      0.0297
    163  CG       -30.5390   31.1870  -18.7040 C.3   270  LEU270      0.0022
    164  CD1      -29.0490   31.0490  -18.4290 C.3   270  LEU270      0.0001
    165  CD2      -30.7500   31.5760  -20.1580 C.3   270  LEU270      0.0001
@<TRIPOS>BOND
     1    88    89    1
     2   113   111    1
     3    90    89    1
     4    90    91    2
     5    99   100    1
     6    89    92    1
     7   111   110    1
     8   111   112    1
     9   110   107    1
    10   108   107    1
    11   108   109    2
    12   106   107    1
    13   106   101   am
    14   114   115    1
    15   119   118    1
    16    92    93    1
    17   100   101    1
    18   100   103    1
    19   101   102    2
    20   104   103    1
    21   115   118    1
    22   115   116    1
    23    12    11    2
    24   103   105    1
    25    14    13    1
    26    14    15    1
    27    93    94   ar
    28    93    95   ar
    29    75    74    1
    30    13    10    1
    31    94    96   ar
    32    76    74    1
    33    11    10    1
    34   116   120   am
    35   116   117    2
    36   120   121    1
    37    95    97   ar
    38    74    71    1
    39    58    59    1
    40    58    55    1
    41   165   163    1
    42    10     9    1
    43    15     9    1
    44    61    59   ar
    45    61    63   ar
    46    71    70    1
    47    71    72    1
    48    59    60   ar
    49    96    98   ar
    50    57    56    2
    51   122   121    1
    52   122   123    2
    53    63    64   ar
    54    73    72    2
    55    55    56    1
    56    55    54    1
    57     9     3   am
    58    97    98   ar
    59    72    77   am
    60    56    65   am
    61   148   147    1
    62   163   164    1
    63   163   162    1
    64    60    62   ar
    65     7     6    2
    66    64    62   ar
    67   162   159    1
    68     3     4    2
    69     3     2    1
    70    65    66    1
    71   161   160    2
    72     6     8   am
    73     6     5    1
    74    77    78    1
    75   147   146    1
    76   147   149    1
    77    85    83   ar
    78    85    87   ar
    79    66    67    1
    80    66    69    1
    81     2     5    1
    82     2     1    1
    83    83    82   ar
    84   159   160    1
    85   159   158    1
    86    78    79    1
    87    78    81    1
    88   146   143    1
    89    87    86   ar
    90    68    67    2
    91   158   152   am
    92    79    80    2
    93    82    81    1
    94    82    84   ar
    95    86    84   ar
    96   142   143    1
    97   150   151    1
    98   150   144   am
    99   143   144    1
   100   156   155    2
   101   154   151    1
   102   154   155    1
   103   152   151    1
   104   152   153    2
   105    50    49    2
   106    49    48    1
   107    52    51    1
   108    52    53    1
   109    51    48    1
   110   155   157   am
   111   141   139    1
   112   144   145    2
   113   130   129    1
   114   130   124    1
   115   129   128    1
   116    48    47    1
   117    23    21   ar
   118    45    43   ar
   119    45    46   ar
   120    53    47    1
   121   140   139    1
   122   139   136    1
   123    43    40   ar
   124   124   125    1
   125    21    22   ar
   126    21    20    1
   127    47    35   am
   128    46    44   ar
   129   128   125    1
   130   134   133    2
   131    20    17    1
   132   131   132    1
   133   131   126   am
   134    40    42   ar
   135    40    38   ar
   136   125   126    1
   137   133   135   am
   138   133   132    1
   139   136   135    1
   140   136   137    1
   141    35    36    2
   142    35    34    1
   143    44    42   ar
   144    37    38    1
   145    37    34    1
   146   126   127    2
   147    42    41   ar
   148    38    39   ar
   149    34    33    1
   150    17    16    1
   151    17    18    1
   152   137   138    2
   153    18    19    2
   154    41    39   ar
   155    33    26   am
   156    27    26    2
   157    26    25    1
   158    25    24    1
   159    25    28    1
   160    28    29    1
   161    29    30    1
   162    31    30   ar
   163    30    32   ar
