@<TRIPOS>MOLECULE
tmp/5y32A01.pdb
 91 85 0 0 0
SMALL
GASTEIGER

@<TRIPOS>ATOM
      1  N        -54.7130  -33.8930   25.4670 N.3    26  PHE26      -0.1241
      2  CA       -55.6430  -34.1380   26.5640 C.3    26  PHE26       0.1605
      3  C        -55.8950  -32.8520   27.3190 C.2    26  PHE26       0.2264
      4  O        -56.9730  -32.6370   27.8710 O.2    26  PHE26      -0.2867
      5  CB       -55.1040  -35.2060   27.5150 C.3    26  PHE26       0.0534
      6  CG       -54.9540  -36.5530   26.8820 C.ar   26  PHE26      -0.0203
      7  CD1      -56.0570  -37.3800   26.7140 C.ar   26  PHE26      -0.0042
      8  CD2      -53.7160  -36.9960   26.4500 C.ar   26  PHE26      -0.0042
      9  CE1      -55.9310  -38.6180   26.1280 C.ar   26  PHE26      -0.0003
     10  CE2      -53.5830  -38.2390   25.8630 C.ar   26  PHE26      -0.0003
     11  CZ       -54.6920  -39.0490   25.7020 C.ar   26  PHE26      -0.0000
     12  N        -58.5680  -32.2680   23.1180 N.3    30  ILE30      -0.1231
     13  CA       -59.5880  -33.3130   23.2320 C.3    30  ILE30       0.1692
     14  C        -60.2230  -33.2950   24.6160 C.2    30  ILE30       0.2592
     15  O        -59.6120  -32.8280   25.5890 O.2    30  ILE30      -0.2718
     16  CB       -59.0070  -34.7140   22.9640 C.3    30  ILE30       0.0266
     17  CG1      -58.0560  -34.6930   21.7700 C.3    30  ILE30       0.0019
     18  CG2      -60.1110  -35.7150   22.7270 C.3    30  ILE30       0.0020
     19  CD1      -57.2820  -35.9910   21.5920 C.3    30  ILE30       0.0001
     20  N        -61.4460  -33.8060   24.7050 N.am   31  ARG31      -0.1966
     21  CA       -62.2110  -33.7030   25.9360 C.3    31  ARG31       0.1729
     22  C        -61.7680  -34.6820   27.0270 C.2    31  ARG31       0.2616
     23  O        -61.7150  -34.3160   28.2030 O.2    31  ARG31      -0.2715
     24  CB       -63.6980  -33.8950   25.6410 C.3    31  ARG31       0.0348
     25  CG       -64.5850  -33.6440   26.8540 C.3    31  ARG31       0.0492
     26  CD       -66.0300  -33.4240   26.4400 C.3    31  ARG31       0.2205
     27  NE       -66.2050  -32.1750   25.7010 N.pl3  31  ARG31      -0.0865
     28  CZ       -66.6420  -31.0400   26.2410 C.cat  31  ARG31       0.5346
     29  NH1      -66.9550  -30.9910   27.5290 N.pl3  31  ARG31       0.1354
     30  NH2      -66.7660  -29.9510   25.4920 N.pl3  31  ARG31       0.1354
     31  N        -61.4360  -35.9120   26.6460 N.am   32  THR32      -0.1951
     32  CA       -61.1380  -36.9490   27.6360 C.3    32  THR32       0.1897
     33  C        -59.7010  -36.9360   28.1430 C.2    32  THR32       0.2313
     34  O        -58.8460  -36.2320   27.6030 O.2    32  THR32      -0.2863
     35  CB       -61.4160  -38.3530   27.0800 C.3    32  THR32       0.1794
     36  OG1      -60.5660  -38.5940   25.9500 O.3    32  THR32      -0.2208
     37  CG2      -62.8750  -38.4790   26.6800 C.3    32  THR32       0.0378
     38  N        -58.9510  -42.9020   29.7850 N.3    36  LEU36      -0.1231
     39  CA       -60.1830  -43.1270   29.0370 C.3    36  LEU36       0.1693
     40  C        -59.8970  -43.4070   27.5720 C.2    36  LEU36       0.2591
     41  O        -60.5920  -44.2010   26.9330 O.2    36  LEU36      -0.2718
     42  CB       -61.1250  -41.9320   29.1730 C.3    36  LEU36       0.0284
     43  CG       -61.7040  -41.7910   30.5810 C.3    36  LEU36       0.0019
     44  CD1      -62.7900  -40.7270   30.6350 C.3    36  LEU36       0.0001
     45  CD2      -62.2290  -43.1360   31.0650 C.3    36  LEU36       0.0001
     46  N        -58.8680  -42.7540   27.0450 N.am   37  ALA37      -0.1980
     47  CA       -58.4410  -43.0000   25.6770 C.3    37  ALA37       0.1597
     48  C        -58.0120  -44.4540   25.5060 C.2    37  ALA37       0.2287
     49  O        -58.4070  -45.1170   24.5480 O.2    37  ALA37      -0.2864
     50  CB       -57.3140  -42.0590   25.2990 C.3    37  ALA37       0.0319
     51  N        -60.9380  -46.8940   25.8420 N.3    40  ALA40      -0.1245
     52  CA       -61.7150  -46.8430   24.6080 C.3    40  ALA40       0.1562
     53  C        -60.9140  -47.4010   23.4330 C.2    40  ALA40       0.2260
     54  O        -61.3580  -47.3570   22.2810 O.2    40  ALA40      -0.2867
     55  CB       -62.1570  -45.4230   24.3220 C.3    40  ALA40       0.0290
     56  N        -57.6860  -46.6980   22.2560 N.3    42  LEU42      -0.1245
     57  CA       -56.8580  -45.8510   21.4060 C.3    42  LEU42       0.1561
     58  C        -55.3940  -45.9820   21.8060 C.2    42  LEU42       0.2260
     59  O        -55.0820  -46.2060   22.9760 O.2    42  LEU42      -0.2867
     60  CB       -57.2980  -44.3840   21.4800 C.3    42  LEU42       0.0270
     61  CG       -58.7560  -43.9530   21.2610 C.3    42  LEU42       0.0019
     62  CD1      -58.7810  -42.5840   20.6450 C.3    42  LEU42       0.0001
     63  CD2      -59.5350  -44.9090   20.3960 C.3    42  LEU42       0.0001
     64  N        -52.3790  -40.1200   18.6050 N.3    90  ILE90      -0.1245
     65  CA       -53.4580  -40.9260   19.1560 C.3    90  ILE90       0.1561
     66  C        -54.1860  -41.6270   17.9980 C.2    90  ILE90       0.2260
     67  O        -54.3870  -41.0190   16.9500 O.2    90  ILE90      -0.2867
     68  CB       -54.4270  -40.0610   19.9950 C.3    90  ILE90       0.0252
     69  CG1      -54.0820  -40.1640   21.4770 C.3    90  ILE90       0.0019
     70  CG2      -55.8600  -40.4960   19.8140 C.3    90  ILE90       0.0019
     71  CD1      -52.8270  -39.4510   21.8660 C.3    90  ILE90       0.0001
     72  N        -57.2140  -44.6330   16.4220 N.3    92  ASN92      -0.1240
     73  CA       -58.1810  -45.6890   16.1870 C.3    92  ASN92       0.1653
     74  C        -57.7000  -46.4490   14.9900 C.2    92  ASN92       0.2266
     75  O        -56.5280  -46.4100   14.6480 O.2    92  ASN92      -0.2867
     76  CB       -59.5360  -45.1240   15.8240 C.3    92  ASN92       0.1155
     77  CG       -60.5970  -45.2780   16.8800 C.2    92  ASN92       0.2627
     78  OD1      -60.5240  -46.0790   17.8080 O.2    92  ASN92      -0.2716
     79  ND2      -61.6330  -44.4720   16.6890 N.am   92  ASN92      -0.0877
     80  N        -59.7170  -43.2130   13.3720 N.3    95  TYR95      -0.1241
     81  CA       -59.5220  -41.9360   14.0660 C.3    95  TYR95       0.1605
     82  C        -58.0380  -41.7350   14.3310 C.2    95  TYR95       0.2264
     83  O        -57.3600  -42.6310   14.8150 O.2    95  TYR95      -0.2867
     84  CB       -60.3230  -41.8970   15.3830 C.3    95  TYR95       0.0534
     85  CG       -60.2580  -40.6090   16.2120 C.ar   95  TYR95      -0.0201
     86  CD1      -61.4250  -39.9630   16.6180 C.ar   95  TYR95      -0.0009
     87  CD2      -59.0470  -40.0660   16.6240 C.ar   95  TYR95      -0.0009
     88  CE1      -61.3810  -38.7990   17.3750 C.ar   95  TYR95       0.0417
     89  CE2      -58.9960  -38.9040   17.3770 C.ar   95  TYR95       0.0417
     90  CZ       -60.1630  -38.2750   17.7530 C.ar   95  TYR95       0.1957
     91  OH       -60.1050  -37.1220   18.5070 O.3    95  TYR95      -0.2866
@<TRIPOS>BOND
     1    80    81    1
     2    81    82    1
     3    81    84    1
     4    82    83    2
     5    75    74    2
     6    74    73    1
     7    84    85    1
     8    76    73    1
     9    76    77    1
    10    73    72    1
    11    85    86   ar
    12    85    87   ar
    13    86    88   ar
    14    87    89   ar
    15    79    77   am
    16    77    78    2
    17    67    66    2
    18    88    90   ar
    19    89    90   ar
    20    90    91    1
    21    66    65    1
    22    64    65    1
    23    65    68    1
    24    70    68    1
    25    68    69    1
    26    63    61    1
    27    62    61    1
    28    61    60    1
    29    57    60    1
    30    57    58    1
    31    57    56    1
    32    69    71    1
    33    19    17    1
    34    17    16    1
    35    58    59    2
    36    54    53    2
    37    18    16    1
    38    16    13    1
    39    12    13    1
    40    13    14    1
    41    53    52    1
    42    55    52    1
    43    49    48    2
    44    52    51    1
    45    14    20   am
    46    14    15    2
    47    20    21    1
    48    50    47    1
    49     1     2    1
    50    30    28    1
    51    48    47    1
    52    24    21    1
    53    24    25    1
    54    47    46    1
    55    27    28    2
    56    27    26    1
    57    11    10   ar
    58    11     9   ar
    59    10     8   ar
    60    21    22    1
    61    36    35    1
    62     9     7   ar
    63    28    29    1
    64    26    25    1
    65     8     6   ar
    66     2     3    1
    67     2     5    1
    68    31    22   am
    69    31    32    1
    70    37    35    1
    71     7     6   ar
    72     6     5    1
    73    41    40    2
    74    22    23    2
    75    46    40   am
    76    35    32    1
    77     3     4    2
    78    40    39    1
    79    34    33    2
    80    32    33    1
    81    39    42    1
    82    39    38    1
    83    42    43    1
    84    43    44    1
    85    43    45    1
