@<TRIPOS>MOLECULE
tmp/5y3kA00.pdb
 82 74 0 0 0
SMALL
GASTEIGER

@<TRIPOS>ATOM
      1  N        -20.3380   -8.9100   61.1240 N.3   604  ARG604     -0.1245
      2  CA       -19.1310   -9.4430   61.7300 C.3   604  ARG604      0.1563
      3  C        -19.0680   -9.0430   63.1950 C.2   604  ARG604      0.2260
      4  O        -19.5690   -7.9960   63.5840 O.2   604  ARG604     -0.2867
      5  CB       -17.8630   -8.9450   61.0360 C.3   604  ARG604      0.0307
      6  CG       -17.7820   -9.2460   59.5570 C.3   604  ARG604      0.0489
      7  CD       -16.7720   -8.3410   58.8580 C.3   604  ARG604      0.2205
      8  NE       -15.4290   -8.5600   59.3690 N.pl3 604  ARG604     -0.0865
      9  CZ       -14.6440   -9.5790   59.0370 C.cat 604  ARG604      0.5346
     10  NH1      -13.4330   -9.6860   59.5740 N.pl3 604  ARG604      0.1354
     11  NH2      -15.0450  -10.4990   58.1650 N.pl3 604  ARG604      0.1354
     12  N        -18.7040  -13.5670   60.0420 N.3   628  ALA628     -0.1245
     13  CA       -17.4450  -13.9260   60.7160 C.3   628  ALA628      0.1562
     14  C        -17.4440  -13.3650   62.1200 C.2   628  ALA628      0.2260
     15  O        -18.0010  -12.3150   62.3520 O.2   628  ALA628     -0.2867
     16  CB       -16.2400  -13.4160   59.9450 C.3   628  ALA628      0.0290
     17  N        -19.2100  -16.1820   54.7430 N.3   650  ASP650     -0.1239
     18  CA       -18.1380  -16.2490   55.7230 C.3   650  ASP650      0.1674
     19  C        -18.7620  -16.5570   57.0650 C.2   650  ASP650      0.2266
     20  O        -19.5020  -15.7390   57.5920 O.2   650  ASP650     -0.2867
     21  CB       -17.3900  -14.9050   55.7810 C.3   650  ASP650      0.1410
     22  CG       -16.0970  -14.9710   56.6100 C.2   650  ASP650      0.3668
     23  OD1      -15.8740  -15.9530   57.3510 O.co2 650  ASP650     -0.2456
     24  OD2      -15.2990  -14.0230   56.5350 O.co2 650  ASP650     -0.2456
     25  N        -16.4830  -17.7150   59.4990 N.3   652  SER652     -0.1202
     26  CA       -15.2130  -17.9800   60.1610 C.3   652  SER652      0.2020
     27  C        -15.2560  -17.4150   61.5790 C.2   652  SER652      0.2618
     28  O        -16.1170  -16.6030   61.8980 O.2   652  SER652     -0.2717
     29  CB       -14.0390  -17.3810   59.3730 C.3   652  SER652      0.2103
     30  OG       -14.0890  -15.9650   59.3160 O.3   652  SER652     -0.2182
     31  N        -14.3370  -17.8570   62.4280 N.am  653  ARG653     -0.1979
     32  CA       -14.2590  -17.4250   63.8320 C.3   653  ARG653      0.1597
     33  C        -15.6020  -17.5150   64.5890 C.2   653  ARG653      0.2287
     34  O        -15.9550  -16.6540   65.3750 O.2   653  ARG653     -0.2864
     35  CB       -13.6170  -16.0400   63.9160 C.3   653  ARG653      0.0334
     36  CG       -12.1290  -16.0310   63.5480 C.3   653  ARG653      0.0492
     37  CD       -11.4890  -14.6500   63.6270 C.3   653  ARG653      0.2205
     38  NE       -12.2210  -13.6930   62.7880 N.pl3 653  ARG653     -0.0865
     39  CZ       -13.1130  -12.7790   63.2070 C.cat 653  ARG653      0.5346
     40  NH1      -13.4290  -12.6300   64.4850 N.pl3 653  ARG653      0.1354
     41  NH2      -13.7070  -11.9970   62.3130 N.pl3 653  ARG653      0.1354
     42  N        -16.0230  -19.7310   53.7330 N.3   674  ASN674     -0.1240
     43  CA       -14.9850  -19.6870   54.7520 C.3   674  ASN674      0.1653
     44  C        -15.4710  -20.3300   56.0600 C.2   674  ASN674      0.2266
     45  O        -16.3500  -19.7920   56.7490 O.2   674  ASN674     -0.2867
     46  CB       -14.5380  -18.2420   54.9790 C.3   674  ASN674      0.1155
     47  CG       -13.1990  -18.1520   55.6780 C.2   674  ASN674      0.2627
     48  OD1      -12.8100  -19.0810   56.3800 O.2   674  ASN674     -0.2716
     49  ND2      -12.4770  -17.0340   55.4800 N.am  674  ASN674     -0.0877
     50  N        -13.1040  -21.3000   58.3720 N.3   676  SER676     -0.1202
     51  CA       -11.9120  -21.2290   59.1690 C.3   676  SER676      0.2020
     52  C        -12.2020  -20.9090   60.6380 C.2   676  SER676      0.2618
     53  O        -13.2200  -20.3090   60.9570 O.2   676  SER676     -0.2717
     54  CB       -11.0140  -20.1500   58.5880 C.3   676  SER676      0.2103
     55  OG        -9.8280  -20.0470   59.3180 O.3   676  SER676     -0.2182
     56  N        -11.2850  -21.3140   61.5200 N.am  677  ALA677     -0.1979
     57  CA       -11.2940  -20.9600   62.9450 C.3   677  ALA677      0.1597
     58  C        -12.6300  -21.3020   63.6170 C.2   677  ALA677      0.2287
     59  O        -13.2860  -20.4760   64.2360 O.2   677  ALA677     -0.2864
     60  CB       -10.9080  -19.5080   63.1450 C.3   677  ALA677      0.0319
     61  N        -13.4660  -21.2200   46.5230 N.3   697  VAL697     -0.1245
     62  CA       -12.6960  -21.1140   47.7690 C.3   697  VAL697      0.1561
     63  C        -13.3990  -21.9120   48.8590 C.2   697  VAL697      0.2260
     64  O        -14.6020  -21.7180   49.0890 O.2   697  VAL697     -0.2867
     65  CB       -12.5370  -19.6400   48.2090 C.3   697  VAL697      0.0252
     66  CG1      -11.7730  -19.5240   49.5240 C.3   697  VAL697      0.0019
     67  CG2      -11.8370  -18.8300   47.1090 C.3   697  VAL697      0.0019
     68  N        -12.1090  -22.4700   52.6710 N.3   699  ASP699     -0.1239
     69  CA       -11.1020  -22.3670   53.7300 C.3   699  ASP699      0.1674
     70  C        -11.5690  -23.1870   54.9230 C.2   699  ASP699      0.2266
     71  O        -12.6200  -22.8910   55.4970 O.2   699  ASP699     -0.2867
     72  CB       -10.8470  -20.9020   54.1260 C.3   699  ASP699      0.1410
     73  CG        -9.5360  -20.7070   54.8960 C.2   699  ASP699      0.3668
     74  OD1       -8.9840  -21.7080   55.4240 O.co2 699  ASP699     -0.2456
     75  OD2       -9.0380  -19.5530   54.9630 O.co2 699  ASP699     -0.2456
     76  N         -7.3910  -23.0880   50.1200 N.3   725  PRO725     -0.2116
     77  CA        -6.1270  -22.3590   50.2570 C.3   725  PRO725      0.1372
     78  C         -5.2940  -22.9340   51.4010 C.2   725  PRO725      0.2244
     79  O         -5.8410  -23.3400   52.4250 O.2   725  PRO725     -0.2868
     80  CB        -6.5760  -20.9310   50.5660 C.3   725  PRO725      0.0268
     81  CG        -7.8540  -21.1090   51.3050 C.3   725  PRO725      0.0207
     82  CD        -8.4940  -22.3820   50.7990 C.3   725  PRO725      0.0892
@<TRIPOS>BOND
     1    61    62    1
     2    67    65    1
     3    62    65    1
     4    62    63    1
     5    65    66    1
     6    63    64    2
     7    76    77    1
     8    76    82    1
     9    77    80    1
    10    77    78    1
    11    80    81    1
    12    82    81    1
    13    78    79    2
    14    68    69    1
    15    69    72    1
    16    69    70    1
    17    42    43    1
    18    72    73    1
    19    17    18    1
    20    43    46    1
    21    43    44    1
    22    73    75   ar
    23    73    74   ar
    24    70    71    2
    25    46    47    1
    26    49    47   am
    27    47    48    2
    28    18    21    1
    29    18    19    1
    30    21    22    1
    31    44    45    2
    32    24    22   ar
    33    22    23   ar
    34    19    20    2
    35    11     9    1
    36    50    51    1
    37    54    51    1
    38    54    55    1
    39     7     8    1
    40     7     6    1
    41     9     8    2
    42     9    10    1
    43    51    52    1
    44    30    29    1
    45    29    26    1
    46    25    26    1
    47     6     5    1
    48    16    13    1
    49    12    13    1
    50    26    27    1
    51    52    53    2
    52    52    56   am
    53    13    14    1
    54     5     2    1
    55     1     2    1
    56    56    57    1
    57    27    28    2
    58    27    31   am
    59     2     3    1
    60    14    15    2
    61    41    39    1
    62    31    32    1
    63    38    39    2
    64    38    37    1
    65    57    60    1
    66    57    58    1
    67     3     4    2
    68    39    40    1
    69    36    37    1
    70    36    35    1
    71    58    59    2
    72    32    35    1
    73    32    33    1
    74    33    34    2
