@<TRIPOS>MOLECULE
tmp/5y3nA00.pdb
 162 153 0 0 0
SMALL
GASTEIGER

@<TRIPOS>ATOM
      1  N          9.0070   13.9840   17.5060 N.3    47  LEU47      -0.1245
      2  CA         9.8060   13.3010   18.5200 C.3    47  LEU47       0.1561
      3  C         10.2250   14.2810   19.6200 C.2    47  LEU47       0.2260
      4  O         10.1780   13.9360   20.8030 O.2    47  LEU47      -0.2867
      5  CB        11.0210   12.6270   17.8910 C.3    47  LEU47       0.0270
      6  CG        10.6710   11.4760   16.9380 C.3    47  LEU47       0.0019
      7  CD1       11.9110   10.9770   16.2100 C.3    47  LEU47       0.0001
      8  CD2       10.0090   10.3310   17.6890 C.3    47  LEU47       0.0001
      9  N          7.2740   14.6890   21.7520 N.3    50  ASN50      -0.1225
     10  CA         7.1370   13.5170   22.6150 C.3    50  ASN50       0.1785
     11  C          8.1070   13.5740   23.7890 C.2    50  ASN50       0.2597
     12  O          7.7410   13.2530   24.9210 O.2    50  ASN50      -0.2718
     13  CB         7.3720   12.2230   21.8320 C.3    50  ASN50       0.1169
     14  CG         6.1430   11.7670   21.0470 C.2    50  ASN50       0.2627
     15  OD1        5.0480   12.2960   21.2020 O.2    50  ASN50      -0.2716
     16  ND2        6.3300   10.7620   20.2120 N.am   50  ASN50      -0.0877
     17  N          9.3440   13.9800   23.5100 N.am   51  ALA51      -0.1979
     18  CA        10.3820   14.0230   24.5360 C.3    51  ALA51       0.1597
     19  C         10.0330   15.0600   25.6000 C.2    51  ALA51       0.2287
     20  O         10.3140   14.8730   26.7830 O.2    51  ALA51      -0.2864
     21  CB        11.7320   14.3310   23.9160 C.3    51  ALA51       0.0319
     22  N          7.2450   13.7050   27.9400 N.3    54  ALA54      -0.1245
     23  CA         7.7420   12.7020   28.8850 C.3    54  ALA54       0.1562
     24  C          8.5350   13.3840   30.0030 C.2    54  ALA54       0.2260
     25  O          8.5110   12.9460   31.1610 O.2    54  ALA54      -0.2867
     26  CB         8.5930   11.6660   28.1750 C.3    54  ALA54       0.0290
     27  N          5.9120   14.9640   32.3920 N.3    57  LYS57      -0.1245
     28  CA         5.2170   13.9760   33.2110 C.3    57  LYS57       0.1561
     29  C          6.0800   13.5570   34.3900 C.2    57  LYS57       0.2260
     30  O          5.5740   13.3500   35.4920 O.2    57  LYS57      -0.2867
     31  CB         4.8270   12.7550   32.3700 C.3    57  LYS57       0.0271
     32  CG         3.9240   11.7590   33.0840 C.3    57  LYS57       0.0035
     33  CD         3.5910   10.5600   32.1880 C.3    57  LYS57       0.0206
     34  CE         2.8810    9.4540   32.9650 C.3    57  LYS57       0.1093
     35  NZ         2.5170    8.2920   32.0960 N.3    57  LYS57      -0.1314
     36  N         15.6280   11.7260   25.5230 N.3    89  ASP89      -0.1239
     37  CA        15.1750   12.5640   26.6240 C.3    89  ASP89       0.1674
     38  C         15.4610   11.8360   27.9400 C.2    89  ASP89       0.2266
     39  O         15.6750   10.6350   27.9560 O.2    89  ASP89      -0.2867
     40  CB        13.6900   12.9010   26.4950 C.3    89  ASP89       0.1410
     41  CG        12.7880   11.6850   26.6730 C.2    89  ASP89       0.3668
     42  OD1       12.6110   11.2430   27.8260 O.co2  89  ASP89      -0.2456
     43  OD2       12.2320   11.1840   25.6650 O.co2  89  ASP89      -0.2456
     44  N         10.0950   10.7170   31.8550 N.3    92  ILE92      -0.1231
     45  CA         9.4810    9.5140   32.3750 C.3    92  ILE92       0.1692
     46  C          9.5270    8.5400   31.2140 C.2    92  ILE92       0.2593
     47  O          9.1680    8.8820   30.0880 O.2    92  ILE92      -0.2718
     48  CB         8.0390    9.7480   32.8870 C.3    92  ILE92       0.0266
     49  CG1        7.7680    8.8810   34.1170 C.3    92  ILE92       0.0019
     50  CG2        7.0060    9.4750   31.7930 C.3    92  ILE92       0.0020
     51  CD1        6.4280    9.1540   34.7610 C.3    92  ILE92       0.0001
     52  N         10.0310    7.3470   31.4650 N.am   93  GLY93      -0.1942
     53  CA        10.2670    6.4220   30.3760 C.3    93  GLY93       0.2014
     54  C          9.0530    5.5740   30.0300 C.2    93  GLY93       0.2638
     55  O          7.9040    5.9760   30.2280 O.2    93  GLY93      -0.2714
     56  N          9.3160    4.3910   29.4950 N.am   94  MET94      -0.1976
     57  CA         8.2510    3.4820   29.1010 C.3    94  MET94       0.1605
     58  C          8.4240    2.1140   29.7520 C.2    94  MET94       0.2287
     59  O          9.5360    1.6180   29.8730 O.2    94  MET94      -0.2864
     60  CB         8.2160    3.3460   27.5870 C.3    94  MET94       0.0413
     61  CG         8.0820    4.6860   26.8520 C.3    94  MET94       0.0598
     62  SD         8.1610    4.4700   25.0680 S.3    94  MET94      -0.1393
     63  CE         6.6650    3.5210   24.7970 C.3    94  MET94       0.0692
     64  N          4.0110   -0.8620   27.6950 N.3    98  GLU98      -0.1231
     65  CA         3.8130    0.2880   26.8170 C.3    98  GLU98       0.1699
     66  C          4.5570    0.1110   25.5020 C.2    98  GLU98       0.2592
     67  O          4.0270    0.4120   24.4350 O.2    98  GLU98      -0.2718
     68  CB         4.2660    1.5770   27.4960 C.3    98  GLU98       0.0402
     69  CG         3.4880    1.9260   28.7440 C.3    98  GLU98       0.1161
     70  CD         4.1690    3.0080   29.5430 C.2    98  GLU98       0.3649
     71  OE1        5.2860    3.4070   29.1570 O.co2  98  GLU98      -0.2457
     72  OE2        3.5940    3.4620   30.5520 O.co2  98  GLU98      -0.2457
     73  N          5.7900   -0.3760   25.5840 N.am   99  LEU99      -0.1980
     74  CA         6.5770   -0.6440   24.3870 C.3    99  LEU99       0.1596
     75  C          5.9230   -1.7060   23.5090 C.2    99  LEU99       0.2287
     76  O          6.1160   -1.7220   22.2930 O.2    99  LEU99      -0.2864
     77  CB         7.9870   -1.0800   24.7670 C.3    99  LEU99       0.0297
     78  CG         8.8870    0.0580   25.2310 C.3    99  LEU99       0.0022
     79  CD1       10.1670   -0.4750   25.8520 C.3    99  LEU99       0.0001
     80  CD2        9.1810    0.9700   24.0430 C.3    99  LEU99       0.0001
     81  N          1.3320   -0.1360   22.9870 N.3   102  ASN102     -0.1240
     82  CA         1.1760    1.1700   22.3520 C.3   102  ASN102      0.1653
     83  C          1.5030    1.1450   20.8630 C.2   102  ASN102      0.2266
     84  O          1.3490    2.1480   20.1680 O.2   102  ASN102     -0.2867
     85  CB         2.0530    2.2120   23.0490 C.3   102  ASN102      0.1155
     86  CG         1.7420    2.3420   24.5270 C.2   102  ASN102      0.2627
     87  OD1        0.7750    1.7620   25.0230 O.2   102  ASN102     -0.2716
     88  ND2        2.5590    3.1110   25.2380 N.am  102  ASN102     -0.0877
     89  N          0.1520    9.2680   23.8150 N.3   104  PHE104     -0.1227
     90  CA         1.2660   10.1970   23.7770 C.3   104  PHE104      0.1736
     91  C          1.1620   10.7730   22.3900 C.2   104  PHE104      0.2596
     92  O          1.3740   11.9630   22.1590 O.2   104  PHE104     -0.2718
     93  CB         2.5930    9.4630   23.9560 C.3   104  PHE104      0.0547
     94  CG         3.5150   10.1100   24.9490 C.ar  104  PHE104     -0.0202
     95  CD1        3.1030   10.3350   26.2520 C.ar  104  PHE104     -0.0042
     96  CD2        4.7930   10.4940   24.5800 C.ar  104  PHE104     -0.0042
     97  CE1        3.9500   10.9290   27.1690 C.ar  104  PHE104     -0.0003
     98  CE2        5.6440   11.0890   25.4920 C.ar  104  PHE104     -0.0003
     99  CZ         5.2220   11.3070   26.7880 C.ar  104  PHE104     -0.0000
    100  N          0.8160    9.8870   21.4680 N.am  105  GLY105     -0.1957
    101  CA         0.5090   10.2540   20.1070 C.3   105  GLY105      0.1869
    102  C          1.1580    9.2660   19.1730 C.2   105  GLY105      0.2309
    103  O          2.0790    8.5430   19.5510 O.2   105  GLY105     -0.2863
    104  N          5.3460    9.3330   17.2350 N.3   108  PHE108     -0.1227
    105  CA         6.5520    8.5060   17.2230 C.3   108  PHE108      0.1736
    106  C          6.7190    7.7550   15.9020 C.2   108  PHE108      0.2595
    107  O          7.8300    7.6030   15.3990 O.2   108  PHE108     -0.2718
    108  CB         6.5520    7.5030   18.3760 C.3   108  PHE108      0.0547
    109  CG         7.4950    6.3470   18.1600 C.ar  108  PHE108     -0.0202
    110  CD1        8.8370    6.4590   18.4850 C.ar  108  PHE108     -0.0042
    111  CD2        7.0400    5.1540   17.6090 C.ar  108  PHE108     -0.0042
    112  CE1        9.7060    5.4010   18.2770 C.ar  108  PHE108     -0.0003
    113  CE2        7.9050    4.0960   17.3980 C.ar  108  PHE108     -0.0003
    114  CZ         9.2400    4.2190   17.7320 C.ar  108  PHE108     -0.0000
    115  N          5.6180    7.2810   15.3370 N.am  109  TYR109     -0.1976
    116  CA         5.7060    6.4730   14.1310 C.3   109  TYR109      0.1639
    117  C          6.0520    7.3070   12.8950 C.2   109  TYR109      0.2290
    118  O          6.3860    6.7590   11.8430 O.2   109  TYR109     -0.2864
    119  CB         4.4020    5.6950   13.9280 C.3   109  TYR109      0.0560
    120  CG         4.1960    4.6230   14.9830 C.ar  109  TYR109     -0.0198
    121  CD1        3.5280    4.9050   16.1690 C.ar  109  TYR109     -0.0009
    122  CD2        4.6960    3.3360   14.8050 C.ar  109  TYR109     -0.0009
    123  CE1        3.3480    3.9300   17.1430 C.ar  109  TYR109      0.0417
    124  CE2        4.5220    2.3570   15.7720 C.ar  109  TYR109      0.0417
    125  CZ         3.8480    2.6600   16.9400 C.ar  109  TYR109      0.1957
    126  OH         3.6720    1.6910   17.9070 O.3   109  TYR109     -0.2866
    127  N         15.1960    1.4820   19.5660 N.3   120  VAL120     -0.1245
    128  CA        14.7470    2.2280   20.7360 C.3   120  VAL120      0.1561
    129  C         15.1960    1.6090   22.0530 C.2   120  VAL120      0.2260
    130  O         15.1750    0.3860   22.2180 O.2   120  VAL120     -0.2867
    131  CB        13.2130    2.3490   20.7490 C.3   120  VAL120      0.0252
    132  CG1       12.7390    3.1140   21.9840 C.3   120  VAL120      0.0019
    133  CG2       12.7260    3.0050   19.4650 C.3   120  VAL120      0.0019
    134  N         13.7050   -1.9390   21.7130 N.3   134  TRP134     -0.1241
    135  CA        12.6180   -2.0890   20.7540 C.3   134  TRP134      0.1605
    136  C         13.2170   -1.8480   19.3740 C.2   134  TRP134      0.2264
    137  O         13.8080   -0.7940   19.1310 O.2   134  TRP134     -0.2867
    138  CB        11.4920   -1.0960   21.0710 C.3   134  TRP134      0.0550
    139  CG        10.2740   -1.1220   20.1680 C.ar  134  TRP134      0.0003
    140  CD1        9.0630   -1.6880   20.4450 C.ar  134  TRP134      0.0946
    141  CD2       10.1390   -0.5150   18.8780 C.ar  134  TRP134      0.0152
    142  NE1        8.1960   -1.4900   19.4060 N.ar  134  TRP134     -0.2442
    143  CE2        8.8310   -0.7660   18.4290 C.ar  134  TRP134      0.0810
    144  CE3       10.9990    0.2170   18.0530 C.ar  134  TRP134      0.0012
    145  CZ2        8.3620   -0.3220   17.1980 C.ar  134  TRP134      0.0191
    146  CZ3       10.5270    0.6620   16.8240 C.ar  134  TRP134      0.0001
    147  CH2        9.2250    0.3930   16.4130 C.ar  134  TRP134      0.0015
    148  N         14.0130    7.8410   27.4870 N.3   154  THR154     -0.1218
    149  CA        13.8600    7.1780   26.2010 C.3   154  THR154      0.1862
    150  C         14.8810    7.6500   25.1780 C.2   154  THR154      0.2287
    151  O         15.1230    8.8380   25.0260 O.2   154  THR154     -0.2866
    152  CB        12.4470    7.4020   25.6550 C.3   154  THR154      0.1770
    153  OG1       11.4990    6.8570   26.5790 O.3   154  THR154     -0.2211
    154  CG2       12.2660    6.7390   24.2920 C.3   154  THR154      0.0375
    155  N         15.8780    7.1810   21.0960 N.3   156  ILE156     -0.1245
    156  CA        15.4510    6.7050   19.7840 C.3   156  ILE156      0.1561
    157  C         16.5600    6.9070   18.7570 C.2   156  ILE156      0.2260
    158  O         17.0100    8.0360   18.5290 O.2   156  ILE156     -0.2867
    159  CB        14.1700    7.4230   19.3070 C.3   156  ILE156      0.0252
    160  CG1       13.0280    7.1720   20.2910 C.3   156  ILE156      0.0019
    161  CG2       13.7830    6.9550   17.9180 C.3   156  ILE156      0.0019
    162  CD1       11.9640    8.2330   20.2590 C.3   156  ILE156      0.0001
@<TRIPOS>BOND
     1   118   117    2
     2   117   116    1
     3   119   116    1
     4   119   120    1
     5   116   115    1
     6   122   120   ar
     7   122   124   ar
     8   120   121   ar
     9   115   106   am
    10   107   106    2
    11   124   125   ar
    12   106   105    1
    13   121   123   ar
    14     7     6    1
    15   147   146   ar
    16   147   145   ar
    17   146   144   ar
    18     6     8    1
    19     6     5    1
    20   125   123   ar
    21   125   126    1
    22   145   143   ar
    23   105   104    1
    24   105   108    1
    25   113   111   ar
    26   113   114   ar
    27     1     2    1
    28   111   109   ar
    29   114   112   ar
    30     5     2    1
    31   161   159    1
    32   144   141   ar
    33   109   108    1
    34   109   110   ar
    35   112   110   ar
    36   143   141   ar
    37   143   142   ar
    38     2     3    1
    39   158   157    2
    40   157   156    1
    41   141   139   ar
    42   137   136    2
    43   102   103    2
    44   102   101    1
    45   159   156    1
    46   159   160    1
    47   136   135    1
    48   142   140   ar
    49   133   131    1
    50   127   128    1
    51     3     4    2
    52   156   155    1
    53   101   100    1
    54    84    83    2
    55   139   140   ar
    56   139   138    1
    57    16    14   am
    58   162   160    1
    59   128   131    1
    60   128   129    1
    61   131   132    1
    62   135   138    1
    63   135   134    1
    64    83    82    1
    65    14    15    2
    66    14    13    1
    67   100    91   am
    68     9    10    1
    69    13    10    1
    70   129   130    2
    71    92    91    2
    72    76    75    2
    73    82    81    1
    74    82    85    1
    75    91    90    1
    76    10    11    1
    77    85    86    1
    78    75    74    1
    79    17    11   am
    80    17    18    1
    81    90    89    1
    82    90    93    1
    83    11    12    2
    84    21    18    1
    85    93    94    1
    86    80    78    1
    87   154   152    1
    88    74    77    1
    89    74    73    1
    90    67    66    2
    91    86    87    2
    92    86    88   am
    93    18    19    1
    94    96    94   ar
    95    96    98   ar
    96    77    78    1
    97    63    62    1
    98    94    95   ar
    99   151   150    2
   100    62    61    1
   101   150   149    1
   102    78    79    1
   103    98    99   ar
   104    66    73   am
   105    66    65    1
   106    36    37    1
   107    19    20    2
   108   152   149    1
   109   152   153    1
   110    43    41   ar
   111   149   148    1
   112    95    97   ar
   113    40    37    1
   114    40    41    1
   115    37    38    1
   116    41    42   ar
   117    99    97   ar
   118    65    68    1
   119    65    64    1
   120    61    60    1
   121    68    69    1
   122    60    57    1
   123    38    39    2
   124    22    23    1
   125    26    23    1
   126    69    70    1
   127    23    24    1
   128    57    56    1
   129    57    58    1
   130    71    70   ar
   131    56    54   am
   132    70    72   ar
   133    58    59    2
   134    24    25    2
   135    54    55    2
   136    54    53    1
   137    47    46    2
   138    53    52    1
   139    46    52   am
   140    46    45    1
   141    50    48    1
   142    44    45    1
   143    35    34    1
   144    33    34    1
   145    33    32    1
   146    31    32    1
   147    31    28    1
   148    45    48    1
   149    27    28    1
   150    48    49    1
   151    28    29    1
   152    49    51    1
   153    29    30    2
