@<TRIPOS>MOLECULE
tmp/5y3oA00.pdb
 162 154 0 0 0
SMALL
GASTEIGER

@<TRIPOS>ATOM
      1  N          2.8340   -5.7810   14.7360 N.3    22  PHE22      -0.1241
      2  CA         1.8050   -4.7820   14.9820 C.3    22  PHE22       0.1605
      3  C          0.4350   -5.3900   14.6900 C.2    22  PHE22       0.2264
      4  O          0.3220   -6.3280   13.9000 O.2    22  PHE22      -0.2867
      5  CB         2.0230   -3.5370   14.1140 C.3    22  PHE22       0.0534
      6  CG         3.3720   -2.8870   14.2900 C.ar   22  PHE22      -0.0203
      7  CD1        4.3490   -3.0260   13.3210 C.ar   22  PHE22      -0.0042
      8  CD2        3.6580   -2.1250   15.4100 C.ar   22  PHE22      -0.0042
      9  CE1        5.5910   -2.4310   13.4630 C.ar   22  PHE22      -0.0003
     10  CE2        4.9020   -1.5250   15.5600 C.ar   22  PHE22      -0.0003
     11  CZ         5.8680   -1.6800   14.5830 C.ar   22  PHE22      -0.0000
     12  N          9.1480   14.2490   17.5170 N.3    48  LEU48      -0.1245
     13  CA         9.9560   13.6060   18.5440 C.3    48  LEU48       0.1561
     14  C         10.3030   14.5770   19.6690 C.2    48  LEU48       0.2260
     15  O         10.0730   14.2780   20.8440 O.2    48  LEU48      -0.2867
     16  CB        11.2260   13.0230   17.9250 C.3    48  LEU48       0.0270
     17  CG        10.9620   11.9010   16.9200 C.3    48  LEU48       0.0019
     18  CD1       12.2580   11.3860   16.3170 C.3    48  LEU48       0.0001
     19  CD2       10.1900   10.7720   17.5880 C.3    48  LEU48       0.0001
     20  N          7.3930   15.1040   21.7470 N.3    51  ASN51      -0.1225
     21  CA         7.2650   13.9550   22.6330 C.3    51  ASN51       0.1785
     22  C          8.2410   14.0810   23.7930 C.2    51  ASN51       0.2597
     23  O          7.8580   13.9310   24.9580 O.2    51  ASN51      -0.2718
     24  CB         7.5010   12.6460   21.8760 C.3    51  ASN51       0.1169
     25  CG         6.3060   12.2320   21.0400 C.2    51  ASN51       0.2627
     26  OD1        5.1880   12.6980   21.2580 O.2    51  ASN51      -0.2716
     27  ND2        6.5360   11.3450   20.0790 N.am   51  ASN51      -0.0877
     28  N          9.4900   14.4080   23.4650 N.am   52  ALA52      -0.1979
     29  CA        10.5370   14.5580   24.4700 C.3    52  ALA52       0.1597
     30  C         10.1380   15.5980   25.5040 C.2    52  ALA52       0.2287
     31  O         10.4860   15.4810   26.6790 O.2    52  ALA52      -0.2864
     32  CB        11.8580   14.9380   23.8170 C.3    52  ALA52       0.0319
     33  N          7.0650   13.9050   27.8800 N.3    55  ALA55      -0.1245
     34  CA         7.7020   13.0140   28.8400 C.3    55  ALA55       0.1562
     35  C          8.3200   13.8180   29.9760 C.2    55  ALA55       0.2260
     36  O          8.0050   13.5920   31.1500 O.2    55  ALA55      -0.2867
     37  CB         8.7580   12.1600   28.1560 C.3    55  ALA55       0.0290
     38  N         15.8390   11.9120   25.6550 N.3    90  ASP90      -0.1239
     39  CA        15.2570   12.6780   26.7460 C.3    90  ASP90       0.1674
     40  C         15.2780   11.8110   28.0020 C.2    90  ASP90       0.2266
     41  O         15.0180   10.6100   27.9360 O.2    90  ASP90      -0.2867
     42  CB        13.8240   13.0920   26.4100 C.3    90  ASP90       0.1410
     43  CG        12.8550   11.9280   26.4580 C.2    90  ASP90       0.3668
     44  OD1       12.3150   11.6460   27.5490 O.co2  90  ASP90      -0.2456
     45  OD2       12.6320   11.2940   25.4050 O.co2  90  ASP90      -0.2456
     46  N         10.1700   11.0570   31.8630 N.3    93  ILE93      -0.1231
     47  CA         9.5750    9.8090   32.3090 C.3    93  ILE93       0.1692
     48  C          9.7340    8.8240   31.1590 C.2    93  ILE93       0.2593
     49  O          9.8020    9.2240   29.9950 O.2    93  ILE93      -0.2718
     50  CB         8.0890    9.9720   32.7110 C.3    93  ILE93       0.0266
     51  CG1        7.7410    9.0320   33.8680 C.3    93  ILE93       0.0019
     52  CG2        7.1620    9.7370   31.5230 C.3    93  ILE93       0.0020
     53  CD1        6.4290    9.3580   34.5470 C.3    93  ILE93       0.0001
     54  N          9.8270    7.5420   31.4790 N.am   94  GLY94      -0.1942
     55  CA        10.1180    6.5560   30.4590 C.3    94  GLY94       0.2014
     56  C          8.9110    5.7490   30.0400 C.2    94  GLY94       0.2638
     57  O          7.7660    6.1380   30.2760 O.2    94  GLY94      -0.2714
     58  N          9.1750    4.6160   29.4050 N.am   95  MET95      -0.1976
     59  CA         8.1190    3.7090   28.9950 C.3    95  MET95       0.1605
     60  C          8.3100    2.3570   29.6560 C.2    95  MET95       0.2287
     61  O          9.3940    1.7780   29.5990 O.2    95  MET95      -0.2864
     62  CB         8.1040    3.5530   27.4770 C.3    95  MET95       0.0413
     63  CG         8.0100    4.8620   26.7220 C.3    95  MET95       0.0598
     64  SD         8.0650    4.5960   24.9460 S.3    95  MET95      -0.1393
     65  CE         6.5980    3.6020   24.6930 C.3    95  MET95       0.0692
     66  N          4.0060   -0.4890   27.7500 N.3    99  GLU99      -0.1231
     67  CA         3.8480    0.6300   26.8280 C.3    99  GLU99       0.1699
     68  C          4.5940    0.3880   25.5200 C.2    99  GLU99       0.2592
     69  O          4.0870    0.6900   24.4410 O.2    99  GLU99      -0.2718
     70  CB         4.3330    1.9280   27.4760 C.3    99  GLU99       0.0402
     71  CG         3.5650    2.3190   28.7290 C.3    99  GLU99       0.1161
     72  CD         4.1150    3.5700   29.3880 C.2    99  GLU99       0.3649
     73  OE1        4.5850    4.4700   28.6600 O.co2  99  GLU99      -0.2457
     74  OE2        4.0780    3.6520   30.6340 O.co2  99  GLU99      -0.2457
     75  N          5.8000   -0.1610   25.6250 N.am  100  LEU100     -0.1980
     76  CA         6.6120   -0.4520   24.4490 C.3   100  LEU100      0.1596
     77  C          5.9830   -1.5360   23.5820 C.2   100  LEU100      0.2287
     78  O          5.9480   -1.4180   22.3570 O.2   100  LEU100     -0.2864
     79  CB         8.0220   -0.8730   24.8650 C.3   100  LEU100      0.0297
     80  CG         8.9250    0.2420   25.3900 C.3   100  LEU100      0.0022
     81  CD1       10.0750   -0.3400   26.1840 C.3   100  LEU100      0.0001
     82  CD2        9.4440    1.0830   24.2330 C.3   100  LEU100      0.0001
     83  N          2.7160   -2.7140   23.3720 N.3   102  SER102     -0.1217
     84  CA         1.4410   -2.3870   22.7400 C.3   102  SER102      0.1889
     85  C          1.4130   -0.9500   22.2270 C.2   102  SER102      0.2288
     86  O          1.2790   -0.0050   23.0040 O.2   102  SER102     -0.2866
     87  CB         0.2880   -2.6170   23.7190 C.3   102  SER102      0.2089
     88  OG         0.4930   -1.9030   24.9250 O.3   102  SER102     -0.2183
     89  N          0.3050   10.2980   23.9960 N.3   103  PHE103     -0.1227
     90  CA         1.2640   10.9470   23.1090 C.3   103  PHE103      0.1736
     91  C          0.7010   11.1020   21.6990 C.2   103  PHE103      0.2596
     92  O          0.5420   12.2190   21.2070 O.2   103  PHE103     -0.2718
     93  CB         2.5760   10.1620   23.0750 C.3   103  PHE103      0.0547
     94  CG         3.4230   10.3480   24.3020 C.ar  103  PHE103     -0.0202
     95  CD1        4.3970   11.3330   24.3430 C.ar  103  PHE103     -0.0042
     96  CD2        3.2400    9.5470   25.4170 C.ar  103  PHE103     -0.0042
     97  CE1        5.1770   11.5120   25.4720 C.ar  103  PHE103     -0.0003
     98  CE2        4.0160    9.7210   26.5490 C.ar  103  PHE103     -0.0003
     99  CZ         4.9860   10.7050   26.5760 C.ar  103  PHE103     -0.0000
    100  N          0.4020    9.9810   21.0520 N.am  104  GLY104     -0.1957
    101  CA        -0.2010   10.0130   19.7320 C.3   104  GLY104      0.1869
    102  C          0.5230    9.1740   18.6980 C.2   104  GLY104      0.2309
    103  O          0.8900    8.0280   18.9560 O.2   104  GLY104     -0.2863
    104  N          5.6680    9.8620   16.9530 N.3   107  PHE107     -0.1227
    105  CA         6.8430    8.9970   16.8900 C.3   107  PHE107      0.1736
    106  C          7.0120    8.3160   15.5370 C.2   107  PHE107      0.2595
    107  O          8.1010    8.3110   14.9660 O.2   107  PHE107     -0.2718
    108  CB         6.7800    7.9250   17.9770 C.3   107  PHE107      0.0547
    109  CG         7.8320    6.8660   17.8290 C.ar  107  PHE107     -0.0202
    110  CD1        9.1470    7.1280   18.1730 C.ar  107  PHE107     -0.0042
    111  CD2        7.5120    5.6170   17.3210 C.ar  107  PHE107     -0.0042
    112  CE1       10.1210    6.1620   18.0270 C.ar  107  PHE107     -0.0003
    113  CE2        8.4820    4.6470   17.1710 C.ar  107  PHE107     -0.0003
    114  CZ         9.7890    4.9220   17.5200 C.ar  107  PHE107     -0.0000
    115  N          5.9230    7.7530   15.0260 N.am  108  TYR108     -0.1976
    116  CA         5.9760    6.9600   13.8060 C.3   108  TYR108      0.1639
    117  C          6.3580    7.7920   12.5800 C.2   108  TYR108      0.2290
    118  O          6.7440    7.2400   11.5440 O.2   108  TYR108     -0.2864
    119  CB         4.6370    6.2560   13.5890 C.3   108  TYR108      0.0560
    120  CG         4.2900    5.2970   14.7100 C.ar  108  TYR108     -0.0198
    121  CD1        3.4430    5.6790   15.7430 C.ar  108  TYR108     -0.0009
    122  CD2        4.8300    4.0180   14.7470 C.ar  108  TYR108     -0.0009
    123  CE1        3.1320    4.8060   16.7710 C.ar  108  TYR108      0.0417
    124  CE2        4.5250    3.1400   15.7680 C.ar  108  TYR108      0.0417
    125  CZ         3.6770    3.5370   16.7780 C.ar  108  TYR108      0.1957
    126  OH         3.3730    2.6640   17.7970 O.3   108  TYR108     -0.2866
    127  N         15.3910    2.0010   19.5510 N.3   119  VAL119     -0.1245
    128  CA        14.9450    2.7790   20.7000 C.3   119  VAL119      0.1561
    129  C         15.2960    2.1110   22.0240 C.2   119  VAL119      0.2260
    130  O         15.1370    0.9080   22.1790 O.2   119  VAL119     -0.2867
    131  CB        13.4210    3.0070   20.6450 C.3   119  VAL119      0.0252
    132  CG1       12.9600    3.8860   21.8000 C.3   119  VAL119      0.0019
    133  CG2       13.0350    3.6270   19.3130 C.3   119  VAL119      0.0019
    134  N         13.8950   -1.6120   21.6700 N.3   133  TRP133     -0.1241
    135  CA        12.8110   -1.7550   20.7110 C.3   133  TRP133      0.1605
    136  C         13.3790   -1.5040   19.3210 C.2   133  TRP133      0.2264
    137  O         13.9550   -0.4500   19.0720 O.2   133  TRP133     -0.2867
    138  CB        11.6920   -0.7630   21.0400 C.3   133  TRP133      0.0550
    139  CG        10.4900   -0.7810   20.1350 C.ar  133  TRP133      0.0003
    140  CD1        9.2920   -1.3830   20.3840 C.ar  133  TRP133      0.0946
    141  CD2       10.3540   -0.1350   18.8620 C.ar  133  TRP133      0.0152
    142  NE1        8.4240   -1.1670   19.3440 N.ar  133  TRP133     -0.2442
    143  CE2        9.0520   -0.4010   18.3950 C.ar  133  TRP133      0.0810
    144  CE3       11.2080    0.6390   18.0680 C.ar  133  TRP133      0.0012
    145  CZ2        8.5830    0.0730   17.1740 C.ar  133  TRP133      0.0191
    146  CZ3       10.7400    1.1100   16.8550 C.ar  133  TRP133      0.0001
    147  CH2        9.4390    0.8290   16.4230 C.ar  133  TRP133      0.0015
    148  N         13.9200    8.2890   27.4020 N.3   153  THR153     -0.1218
    149  CA        13.8510    7.5870   26.1240 C.3   153  THR153      0.1862
    150  C         14.9560    8.0200   25.1670 C.2   153  THR153      0.2287
    151  O         15.2050    9.2100   24.9890 O.2   153  THR153     -0.2866
    152  CB        12.4820    7.8030   25.4420 C.3   153  THR153      0.1770
    153  OG1       11.4450    7.2530   26.2640 O.3   153  THR153     -0.2211
    154  CG2       12.4430    7.1320   24.0760 C.3   153  THR153      0.0375
    155  N         16.1010    7.5580   21.2010 N.3   155  ILE155     -0.1245
    156  CA        15.6860    7.1120   19.8770 C.3   155  ILE155      0.1561
    157  C         16.8050    7.2820   18.8560 C.2   155  ILE155      0.2260
    158  O         17.2460    8.4020   18.5800 O.2   155  ILE155     -0.2867
    159  CB        14.4410    7.8770   19.3870 C.3   155  ILE155      0.0252
    160  CG1       13.2770    7.6790   20.3590 C.3   155  ILE155      0.0019
    161  CG2       14.0530    7.4200   17.9880 C.3   155  ILE155      0.0019
    162  CD1       12.0930    8.5830   20.0850 C.3   155  ILE155      0.0001
@<TRIPOS>BOND
     1   118   117    2
     2   117   116    1
     3     7     9   ar
     4     7     6   ar
     5     9    11   ar
     6   119   116    1
     7   119   120    1
     8   116   115    1
     9     4     3    2
    10     5     6    1
    11     5     2    1
    12     6     8   ar
    13    11    10   ar
    14     3     2    1
    15   120   122   ar
    16   120   121   ar
    17     1     2    1
    18   122   124   ar
    19   107   106    2
    20   115   106   am
    21     8    10   ar
    22   106   105    1
    23   121   123   ar
    24   124   125   ar
    25    18    17    1
    26   147   146   ar
    27   147   145   ar
    28   123   125   ar
    29   125   126    1
    30   146   144   ar
    31   105   104    1
    32   105   108    1
    33    17    19    1
    34    17    16    1
    35   113   111   ar
    36   113   114   ar
    37   145   143   ar
    38   111   109   ar
    39    12    13    1
    40   114   112   ar
    41   109   108    1
    42   109   110   ar
    43    16    13    1
    44   161   159    1
    45   112   110   ar
    46   144   141   ar
    47   143   141   ar
    48   143   142   ar
    49    13    14    1
    50   158   157    2
    51   102   103    2
    52   102   101    1
    53   157   156    1
    54   141   139   ar
    55   137   136    2
    56   133   131    1
    57   136   135    1
    58   142   140   ar
    59   159   156    1
    60   159   160    1
    61   127   128    1
    62    14    15    2
    63   101   100    1
    64   156   155    1
    65    27    25   am
    66   162   160    1
    67   139   140   ar
    68   139   138    1
    69   131   128    1
    70   131   132    1
    71   128   129    1
    72   135   138    1
    73   135   134    1
    74    25    26    2
    75    25    24    1
    76   100    91   am
    77    92    91    2
    78    91    90    1
    79    20    21    1
    80    24    21    1
    81   129   130    2
    82    85    84    1
    83    85    86    2
    84    78    77    2
    85    21    22    1
    86    84    83    1
    87    84    87    1
    88    93    90    1
    89    93    94    1
    90    90    89    1
    91    28    22   am
    92    28    29    1
    93    77    76    1
    94    87    88    1
    95    22    23    2
    96    32    29    1
    97   154   152    1
    98    82    80    1
    99    94    95   ar
   100    94    96   ar
   101    95    97   ar
   102    69    68    2
   103    76    79    1
   104    76    75    1
   105    29    30    1
   106    65    64    1
   107    79    80    1
   108    64    63    1
   109   151   150    2
   110   150   149    1
   111    80    81    1
   112    45    43   ar
   113    96    98   ar
   114   152   149    1
   115   152   153    1
   116    97    99   ar
   117    30    31    2
   118    68    75   am
   119    68    67    1
   120    38    39    1
   121   149   148    1
   122    42    43    1
   123    42    39    1
   124    43    44   ar
   125    98    99   ar
   126    63    62    1
   127    39    40    1
   128    67    70    1
   129    67    66    1
   130    70    71    1
   131    62    59    1
   132    33    34    1
   133    41    40    2
   134    37    34    1
   135    73    72   ar
   136    71    72    1
   137    34    35    1
   138    59    58    1
   139    59    60    1
   140    72    74   ar
   141    58    56   am
   142    61    60    2
   143    35    36    2
   144    49    48    2
   145    56    57    2
   146    56    55    1
   147    55    54    1
   148    48    54   am
   149    48    47    1
   150    52    50    1
   151    46    47    1
   152    47    50    1
   153    50    51    1
   154    51    53    1
