@<TRIPOS>MOLECULE
tmp/5y3zB00.pdb
 99 95 0 0 0
SMALL
GASTEIGER

@<TRIPOS>ATOM
      1  N        -21.1560   34.2330    7.5510 N.3    29  THR29      -0.1203
      2  CA       -21.3490   32.8720    8.0400 C.3    29  THR29       0.1994
      3  C        -20.7660   31.8430    7.0770 C.2    29  THR29       0.2618
      4  O        -21.0550   31.8650    5.8810 O.2    29  THR29      -0.2717
      5  CB       -22.8420   32.5620    8.2650 C.3    29  THR29       0.1784
      6  OG1      -23.3660   33.4310    9.2770 O.3    29  THR29      -0.2211
      7  CG2      -23.0280   31.1190    8.7030 C.3    29  THR29       0.0376
      8  N        -19.9310   30.9540    7.6070 N.am   30  GLY30      -0.1956
      9  CA       -19.3420   29.8860    6.8200 C.3    30  GLY30       0.1869
     10  C        -18.3430   30.3730    5.7900 C.2    30  GLY30       0.2309
     11  O        -17.9740   29.6360    4.8760 O.2    30  GLY30      -0.2863
     12  N        -14.5210   31.4530   15.3090 N.3    62  THR62      -0.1203
     13  CA       -15.8400   31.2290   14.7330 C.3    62  THR62       0.1994
     14  C        -16.9140   31.4750   15.7830 C.2    62  THR62       0.2617
     15  O        -16.6170   31.5180   16.9770 O.2    62  THR62      -0.2717
     16  CB       -16.0010   29.7920   14.1960 C.3    62  THR62       0.1784
     17  OG1      -15.9410   28.8630   15.2860 O.3    62  THR62      -0.2211
     18  CG2      -14.9040   29.4580   13.1860 C.3    62  THR62       0.0376
     19  N        -18.1610   31.6300   15.3480 N.am   63  ASP63      -0.1973
     20  CA       -19.2730   31.5930   16.2920 C.3    63  ASP63       0.1709
     21  C        -19.5650   30.1340   16.6530 C.2    63  ASP63       0.2293
     22  O        -18.9080   29.2240   16.1520 O.2    63  ASP63      -0.2864
     23  CB       -20.5120   32.3100   15.7280 C.3    63  ASP63       0.1436
     24  CG       -21.0170   31.7070   14.4270 C.2    63  ASP63       0.3671
     25  OD1      -21.0950   30.4660   14.3090 O.co2  63  ASP63      -0.2456
     26  OD2      -21.3430   32.4870   13.5100 O.co2  63  ASP63      -0.2456
     27  N        -22.0910   28.1240   16.1080 N.3    65  PHE65      -0.1228
     28  CA       -22.8480   27.2670   15.1970 C.3    65  PHE65       0.1721
     29  C        -21.9540   26.2410   14.4990 C.2    65  PHE65       0.2437
     30  O        -20.9790   26.5990   13.8360 O.2    65  PHE65      -0.2733
     31  CB       -23.5910   28.1170   14.1680 C.3    65  PHE65       0.0547
     32  CG       -24.6650   28.9860   14.7650 C.ar   65  PHE65      -0.0202
     33  CD1      -24.3780   30.2680   15.2080 C.ar   65  PHE65      -0.0042
     34  CD2      -25.9630   28.5170   14.8810 C.ar   65  PHE65      -0.0042
     35  CE1      -25.3670   31.0650   15.7590 C.ar   65  PHE65      -0.0003
     36  CE2      -26.9540   29.3060   15.4300 C.ar   65  PHE65      -0.0003
     37  CZ       -26.6570   30.5820   15.8690 C.ar   65  PHE65      -0.0000
     38  N        -22.2910   24.9530   14.6520 N.am   66  PRO66      -0.2718
     39  CA       -21.5110   23.8410   14.1050 C.3    66  PRO66       0.1535
     40  C        -21.8350   23.5580   12.6440 C.2    66  PRO66       0.2599
     41  O        -22.8090   24.0900   12.1090 O.2    66  PRO66      -0.2715
     42  CB       -21.9280   22.6650   14.9880 C.3    66  PRO66       0.0310
     43  CG       -23.3400   22.9800   15.3520 C.3    66  PRO66       0.0237
     44  CD       -23.4150   24.4820   15.4810 C.3    66  PRO66       0.0939
     45  N        -21.0150   22.7290   12.0080 N.am   67  TYR67      -0.1960
     46  CA       -21.2820   22.2920   10.6450 C.3    67  TYR67       0.1771
     47  C        -22.1250   21.0220   10.6490 C.2    67  TYR67       0.2619
     48  O        -22.3070   20.3930   11.6910 O.2    67  TYR67      -0.2715
     49  CB       -19.9750   22.0680    9.8840 C.3    67  TYR67       0.0574
     50  CG       -19.4110   23.3240    9.2540 C.ar   67  TYR67      -0.0198
     51  CD1      -18.6430   24.2140    9.9950 C.ar   67  TYR67      -0.0009
     52  CD2      -19.6470   23.6180    7.9170 C.ar   67  TYR67      -0.0009
     53  CE1      -18.1280   25.3640    9.4210 C.ar   67  TYR67       0.0417
     54  CE2      -19.1360   24.7640    7.3350 C.ar   67  TYR67       0.0417
     55  CZ       -18.3770   25.6330    8.0900 C.ar   67  TYR67       0.1957
     56  OH       -17.8650   26.7740    7.5130 O.3    67  TYR67      -0.2866
     57  N        -22.6250   20.6540    9.4720 N.am   68  ALA68      -0.1977
     58  CA       -23.5490   19.5420    9.3140 C.3    68  ALA68       0.1597
     59  C        -23.1500   18.2210    9.9460 C.2    68  ALA68       0.2287
     60  O        -23.9890   17.5220   10.5130 O.2    68  ALA68      -0.2864
     61  CB       -23.8110   19.2480    7.8210 C.3    68  ALA68       0.0319
     62  N        -15.5200   24.0740   12.5560 N.3    76  ASN76      -0.1240
     63  CA       -15.0930   25.4040   12.9660 C.3    76  ASN76       0.1653
     64  C        -13.5800   25.4800   13.1390 C.2    76  ASN76       0.2266
     65  O        -13.0020   26.5640   13.1350 O.2    76  ASN76      -0.2867
     66  CB       -15.7960   25.8160   14.2600 C.3    76  ASN76       0.1155
     67  CG       -17.2230   26.2720   14.0250 C.2    76  ASN76       0.2627
     68  OD1      -17.5190   26.9200   13.0230 O.2    76  ASN76      -0.2716
     69  ND2      -18.1150   25.9340   14.9470 N.am   76  ASN76      -0.0877
     70  N        -12.4550   26.1800    9.5970 N.3    79  LEU79      -0.1245
     71  CA       -12.9130   27.5240    9.2680 C.3    79  LEU79       0.1561
     72  C        -12.0980   28.6010    9.9790 C.2    79  LEU79       0.2260
     73  O        -11.7190   29.6010    9.3680 O.2    79  LEU79      -0.2867
     74  CB       -14.3940   27.6830    9.6130 C.3    79  LEU79       0.0270
     75  CG       -14.9910   29.0630    9.3310 C.3    79  LEU79       0.0019
     76  CD1      -14.8280   29.4330    7.8640 C.3    79  LEU79       0.0001
     77  CD2      -16.4510   29.1010    9.7350 C.3    79  LEU79       0.0001
     78  N         -9.6370   31.3670    8.3320 N.3    83  ARG83      -0.1245
     79  CA        -9.8280   32.7860    8.6010 C.3    83  ARG83       0.1563
     80  C         -8.5210   33.4330    9.0460 C.2    83  ARG83       0.2260
     81  O         -8.2390   34.5790    8.6970 O.2    83  ARG83      -0.2867
     82  CB       -10.9250   32.9940    9.6480 C.3    83  ARG83       0.0307
     83  CG       -12.3250   32.9370    9.0540 C.3    83  ARG83       0.0489
     84  CD       -13.4100   32.8450   10.1140 C.3    83  ARG83       0.2205
     85  NE       -14.7370   32.8470    9.5010 N.pl3  83  ARG83      -0.0865
     86  CZ       -15.8710   32.6200   10.1560 C.cat  83  ARG83       0.5346
     87  NH1      -15.8530   32.3650   11.4570 N.pl3  83  ARG83       0.1354
     88  NH2      -17.0260   32.6440    9.5050 N.pl3  83  ARG83       0.1354
     89  N        -17.0750   35.8350   14.8000 N.3   124  ARG124     -0.1245
     90  CA       -16.4400   35.5330   13.5230 C.3   124  ARG124      0.1563
     91  C        -15.3770   36.5850   13.2340 C.2   124  ARG124      0.2260
     92  O        -15.6750   37.6530   12.7000 O.2   124  ARG124     -0.2867
     93  CB       -17.4780   35.4830   12.4000 C.3   124  ARG124      0.0307
     94  CG       -18.6450   34.5490   12.6880 C.3   124  ARG124      0.0489
     95  CD       -19.4380   34.2310   11.4290 C.3   124  ARG124      0.2205
     96  NE       -20.1210   35.4000   10.8810 N.pl3 124  ARG124     -0.0865
     97  CZ       -21.3900   35.7070   11.1290 C.cat 124  ARG124      0.5346
     98  NH1      -22.1190   34.9330   11.9220 N.pl3 124  ARG124      0.1354
     99  NH2      -21.9320   36.7880   10.5860 N.pl3 124  ARG124      0.1354
@<TRIPOS>BOND
     1    11    10    2
     2    10     9    1
     3     4     3    2
     4     9     8    1
     5     3     8   am
     6     3     2    1
     7    54    52   ar
     8    54    55   ar
     9    56    55    1
    10     1     2    1
    11    61    58    1
    12    76    75    1
    13    52    50   ar
    14     2     5    1
    15    55    53   ar
    16     5     7    1
    17     5     6    1
    18    78    79    1
    19    79    80    1
    20    79    82    1
    21    81    80    2
    22    83    82    1
    23    83    84    1
    24    50    49    1
    25    50    51   ar
    26    71    70    1
    27    71    74    1
    28    71    72    1
    29    58    57    1
    30    58    59    1
    31    75    74    1
    32    75    77    1
    33    73    72    2
    34    53    51   ar
    35    57    47   am
    36    85    84    1
    37    85    86    2
    38    88    86    1
    39    49    46    1
    40    59    60    2
    41    86    87    1
    42    99    97    1
    43    46    47    1
    44    46    45    1
    45    47    48    2
    46    96    97    2
    47    96    95    1
    48    97    98    1
    49    95    94    1
    50    45    40   am
    51    41    40    2
    52    93    94    1
    53    93    90    1
    54    62    63    1
    55    40    39    1
    56    92    91    2
    57    63    64    1
    58    63    66    1
    59    68    67    2
    60    65    64    2
    61    18    16    1
    62    91    90    1
    63    26    24   ar
    64    90    89    1
    65    30    29    2
    66    67    66    1
    67    67    69   am
    68    39    38    1
    69    39    42    1
    70    31    32    1
    71    31    28    1
    72    16    13    1
    73    16    17    1
    74    25    24   ar
    75    24    23    1
    76    29    38   am
    77    29    28    1
    78    38    44    1
    79    13    12    1
    80    13    14    1
    81    32    34   ar
    82    32    33   ar
    83    34    36   ar
    84    42    43    1
    85    28    27    1
    86    33    35   ar
    87    19    14   am
    88    19    20    1
    89    43    44    1
    90    36    37   ar
    91    23    20    1
    92    35    37   ar
    93    14    15    2
    94    22    21    2
    95    20    21    1
