@<TRIPOS>MOLECULE
tmp/5y41B01.pdb
 178 168 0 0 0
SMALL
GASTEIGER

@<TRIPOS>ATOM
      1  N         28.2570  -56.2790  -23.7770 N.3    44  LEU44      -0.1245
      2  CA        28.8640  -56.4820  -22.4770 C.3    44  LEU44       0.1561
      3  C         29.9090  -55.3820  -22.1880 C.2    44  LEU44       0.2260
      4  O         29.9340  -54.8560  -21.0730 O.2    44  LEU44      -0.2867
      5  CB        29.5320  -57.8710  -22.3550 C.3    44  LEU44       0.0270
      6  CG        28.6880  -59.1620  -22.2690 C.3    44  LEU44       0.0019
      7  CD1       29.5730  -60.3940  -22.2980 C.3    44  LEU44       0.0001
      8  CD2       27.7700  -59.2140  -21.0620 C.3    44  LEU44       0.0001
      9  N         29.8700  -52.5410  -19.1990 N.3    48  MET48      -0.1245
     10  CA        30.9390  -52.4810  -18.1770 C.3    48  MET48       0.1570
     11  C         31.2780  -51.0630  -17.7810 C.2    48  MET48       0.2261
     12  O         31.3420  -50.7350  -16.5890 O.2    48  MET48      -0.2867
     13  CB        32.2340  -53.1150  -18.6580 C.3    48  MET48       0.0387
     14  CG        32.2810  -54.5980  -18.4490 C.3    48  MET48       0.0595
     15  SD        33.9030  -55.2060  -19.0540 S.3    48  MET48      -0.1393
     16  CE        33.3480  -56.8650  -19.3710 C.3    48  MET48       0.0692
     17  N         37.0590  -55.2650   -6.4840 N.3    71  LEU71      -0.1245
     18  CA        36.4430  -56.5330   -6.0850 C.3    71  LEU71       0.1561
     19  C         34.8970  -56.4940   -6.1750 C.2    71  LEU71       0.2260
     20  O         34.2890  -57.4130   -6.7460 O.2    71  LEU71      -0.2867
     21  CB        36.9030  -56.9910   -4.6930 C.3    71  LEU71       0.0270
     22  CG        36.2960  -58.2920   -4.1180 C.3    71  LEU71       0.0019
     23  CD1       36.5540  -59.5170   -4.9770 C.3    71  LEU71       0.0001
     24  CD2       36.9050  -58.5650   -2.7750 C.3    71  LEU71       0.0001
     25  N         33.7780  -56.0190  -10.0320 N.3    74  GLU74      -0.1231
     26  CA        34.0780  -57.1760  -10.8520 C.3    74  GLU74       0.1699
     27  C         33.2350  -58.3800  -10.5050 C.2    74  GLU74       0.2592
     28  O         32.7370  -59.0400  -11.4120 O.2    74  GLU74      -0.2718
     29  CB        35.5630  -57.4980  -10.7910 C.3    74  GLU74       0.0402
     30  CG        36.3510  -56.5160  -11.6390 C.3    74  GLU74       0.1161
     31  CD        37.8550  -56.6270  -11.4260 C.2    74  GLU74       0.3649
     32  OE1       38.3320  -57.6450  -10.8370 O.co2  74  GLU74      -0.2457
     33  OE2       38.5740  -55.6710  -11.8160 O.co2  74  GLU74      -0.2457
     34  N         33.0350  -58.6180   -9.2040 N.am   75  SER75      -0.1952
     35  CA        32.1910  -59.7190   -8.7430 C.3    75  SER75       0.1924
     36  C         30.7170  -59.5660   -9.1230 C.2    75  SER75       0.2314
     37  O         30.0120  -60.5650   -9.2540 O.2    75  SER75      -0.2863
     38  CB        32.2690  -59.8670   -7.2240 C.3    75  SER75       0.2116
     39  OG        33.5960  -59.9580   -6.7880 O.3    75  SER75      -0.2180
     40  N         29.4710  -57.4210  -11.6700 N.3    77  PHE77      -0.1227
     41  CA        29.2140  -56.8880  -12.9930 C.3    77  PHE77       0.1736
     42  C         28.1020  -57.5850  -13.7720 C.2    77  PHE77       0.2595
     43  O         27.1610  -56.9390  -14.2320 O.2    77  PHE77      -0.2718
     44  CB        30.4650  -56.7380  -13.8660 C.3    77  PHE77       0.0547
     45  CG        30.1260  -56.6300  -15.3400 C.ar   77  PHE77      -0.0202
     46  CD1       29.4790  -55.4850  -15.8350 C.ar   77  PHE77      -0.0042
     47  CD2       30.3860  -57.7070  -16.2330 C.ar   77  PHE77      -0.0042
     48  CE1       29.1180  -55.4200  -17.1780 C.ar   77  PHE77      -0.0003
     49  CE2       30.0170  -57.6140  -17.5760 C.ar   77  PHE77      -0.0003
     50  CZ        29.3780  -56.4790  -18.0430 C.ar   77  PHE77      -0.0000
     51  N         28.2050  -58.9010  -13.8930 N.am   78  LEU78      -0.1966
     52  CA        27.2790  -59.6610  -14.7150 C.3    78  LEU78       0.1728
     53  C         25.9080  -59.7460  -14.0470 C.2    78  LEU78       0.2616
     54  O         24.8970  -59.6840  -14.7180 O.2    78  LEU78      -0.2715
     55  CB        27.8970  -61.0300  -15.0100 C.3    78  LEU78       0.0311
     56  CG        27.7700  -61.6590  -16.3950 C.3    78  LEU78       0.0022
     57  CD1       27.8150  -60.6760  -17.5600 C.3    78  LEU78       0.0001
     58  CD2       28.8420  -62.7580  -16.5410 C.3    78  LEU78       0.0001
     59  N         25.8800  -59.8560  -12.7310 N.am   79  GLU79      -0.1977
     60  CA        24.6110  -59.7120  -11.9880 C.3    79  GLU79       0.1602
     61  C         23.9130  -58.3820  -12.2920 C.2    79  GLU79       0.2287
     62  O         22.7200  -58.3660  -12.6030 O.2    79  GLU79      -0.2864
     63  CB        24.8060  -59.8860  -10.4910 C.3    79  GLU79       0.0415
     64  CG        25.3360  -61.2460  -10.1600 C.3    79  GLU79       0.1163
     65  CD        25.2880  -61.5600   -8.6770 C.2    79  GLU79       0.3649
     66  OE1       26.0870  -62.4380   -8.2290 O.co2  79  GLU79      -0.2457
     67  OE2       24.4360  -61.0010   -7.9420 O.co2  79  GLU79      -0.2457
     68  N         28.6680  -58.3180    0.8890 N.3   148  GLU148     -0.1231
     69  CA        29.8060  -59.1500    1.3580 C.3   148  GLU148      0.1699
     70  C         30.4760  -59.9710    0.2380 C.2   148  GLU148      0.2592
     71  O         29.7970  -60.6250   -0.5510 O.2   148  GLU148     -0.2718
     72  CB        29.4690  -60.0220    2.5930 C.3   148  GLU148      0.0402
     73  CG        28.0650  -60.6210    2.6950 C.3   148  GLU148      0.1161
     74  CD        27.0550  -59.6380    3.2860 C.2   148  GLU148      0.3649
     75  OE1       27.2230  -59.2370    4.4620 O.co2 148  GLU148     -0.2457
     76  OE2       26.0850  -59.2700    2.5810 O.co2 148  GLU148     -0.2457
     77  N         31.7970  -59.8450    0.1310 N.am  149  ARG149     -0.1966
     78  CA        32.6140  -60.6550   -0.7830 C.3   149  ARG149      0.1729
     79  C         33.7950  -61.1250    0.0190 C.2   149  ARG149      0.2616
     80  O         34.2350  -60.3910    0.8930 O.2   149  ARG149     -0.2715
     81  CB        33.1530  -59.8330   -1.9510 C.3   149  ARG149      0.0348
     82  CG        32.0990  -59.2190   -2.8390 C.3   149  ARG149      0.0492
     83  CD        31.3170  -60.2920   -3.5770 C.3   149  ARG149      0.2205
     84  NE        30.4040  -59.6540   -4.5140 N.pl3 149  ARG149     -0.0865
     85  CZ        29.4380  -60.2760   -5.1550 C.cat 149  ARG149      0.5346
     86  NH1       29.2340  -61.5660   -4.9720 N.pl3 149  ARG149      0.1354
     87  NH2       28.6720  -59.6010   -5.9930 N.pl3 149  ARG149      0.1354
     88  N         34.3300  -62.3120   -0.2710 N.am  150  HIS150     -0.1973
     89  CA        35.5380  -62.7540    0.4570 C.3   150  HIS150      0.1656
     90  C         36.7440  -61.9470   -0.0310 C.2   150  HIS150      0.2291
     91  O         36.9110  -61.6980   -1.2230 O.2   150  HIS150     -0.2864
     92  CB        35.7780  -64.2660    0.3560 C.3   150  HIS150      0.0771
     93  CG        36.7940  -64.7800    1.3410 C.ar  150  HIS150      0.0820
     94  ND1       37.9070  -65.5000    0.9600 N.ar  150  HIS150     -0.2267
     95  CD2       36.8860  -64.6380    2.6860 C.ar  150  HIS150      0.1154
     96  CE1       38.6320  -65.7960    2.0270 C.ar  150  HIS150      0.1986
     97  NE2       38.0330  -65.2850    3.0870 N.ar  150  HIS150     -0.2212
     98  N         22.5890  -64.6210   -8.9250 N.3   197  ARG197     -0.1245
     99  CA        23.8210  -65.4180   -8.9420 C.3   197  ARG197      0.1563
    100  C         23.8000  -66.5180  -10.0370 C.2   197  ARG197      0.2260
    101  O         24.7690  -66.6640  -10.8120 O.2   197  ARG197     -0.2867
    102  CB        24.1310  -66.0320   -7.5650 C.3   197  ARG197      0.0307
    103  CG        25.6080  -66.3710   -7.4440 C.3   197  ARG197      0.0489
    104  CD        25.9420  -67.4880   -6.4680 C.3   197  ARG197      0.2205
    105  NE        27.3330  -67.8850   -6.7340 N.pl3 197  ARG197     -0.0865
    106  CZ        27.7270  -69.0660   -7.2270 C.cat 197  ARG197      0.5346
    107  NH1       26.8410  -70.0430   -7.4560 N.pl3 197  ARG197      0.1354
    108  NH2       29.0230  -69.2740   -7.4680 N.pl3 197  ARG197      0.1354
    109  N         24.1190  -65.1010  -13.4270 N.3   200  CYS200     -0.1221
    110  CA        25.4980  -64.7480  -13.6530 C.3   200  CYS200      0.1808
    111  C         26.2950  -65.9590  -14.1290 C.2   200  CYS200      0.2601
    112  O         26.9830  -65.8860  -15.1460 O.2   200  CYS200     -0.2717
    113  CB        26.1180  -64.1160  -12.3910 C.3   200  CYS200      0.0970
    114  SG        27.8990  -63.9010  -12.5080 S.3   200  CYS200     -0.0800
    115  N         26.1530  -67.0650  -13.4140 N.am  201  THR201     -0.1953
    116  CA        26.8000  -68.3250  -13.7690 C.3   201  THR201      0.1897
    117  C         26.4250  -68.7600  -15.1930 C.2   201  THR201      0.2313
    118  O         27.3170  -69.2290  -15.9300 O.2   201  THR201     -0.2863
    119  CB        26.4500  -69.4290  -12.7340 C.3   201  THR201      0.1794
    120  OG1       26.8150  -68.9360  -11.4440 O.3   201  THR201     -0.2208
    121  CG2       27.2370  -70.6730  -12.9470 C.3   201  THR201      0.0378
    122  N         28.4770  -66.5790  -17.4740 N.3   204  LEU204     -0.1245
    123  CA        29.8740  -67.0070  -17.4160 C.3   204  LEU204      0.1561
    124  C         30.1080  -68.2820  -18.2340 C.2   204  LEU204      0.2260
    125  O         31.0830  -68.3670  -18.9500 O.2   204  LEU204     -0.2867
    126  CB        30.2680  -67.2300  -15.9520 C.3   204  LEU204      0.0270
    127  CG        31.6820  -66.8400  -15.5460 C.3   204  LEU204      0.0019
    128  CD1       32.0650  -65.4500  -16.0340 C.3   204  LEU204      0.0001
    129  CD2       31.8520  -66.9740  -14.0350 C.3   204  LEU204      0.0001
    130  N         30.4140  -67.3200  -21.9500 N.3   207  ILE207     -0.1245
    131  CA        31.7230  -66.7530  -22.2190 C.3   207  ILE207      0.1561
    132  C         32.7940  -67.8480  -22.2430 C.2   207  ILE207      0.2260
    133  O         33.6690  -67.8440  -23.1430 O.2   207  ILE207     -0.2867
    134  CB        32.0910  -65.6540  -21.1780 C.3   207  ILE207      0.0252
    135  CG1       31.1160  -64.4970  -21.3410 C.3   207  ILE207      0.0019
    136  CG2       33.5660  -65.2230  -21.3240 C.3   207  ILE207      0.0019
    137  CD1       30.9750  -63.6020  -20.1410 C.3   207  ILE207      0.0001
    138  N         36.9860  -58.3750  -21.6620 N.3   222  ILE222     -0.1245
    139  CA        36.1780  -59.5410  -21.2180 C.3   222  ILE222      0.1561
    140  C         37.1010  -60.6400  -20.6780 C.2   222  ILE222      0.2260
    141  O         36.8540  -61.1650  -19.5970 O.2   222  ILE222     -0.2867
    142  CB        35.2320  -60.0650  -22.3130 C.3   222  ILE222      0.0252
    143  CG1       34.1730  -58.9820  -22.6220 C.3   222  ILE222      0.0019
    144  CG2       34.6530  -61.4590  -21.9350 C.3   222  ILE222      0.0019
    145  CD1       33.1270  -59.3150  -23.6950 C.3   222  ILE222      0.0001
    146  N         38.5080  -59.5370  -17.1720 N.3   225  LEU225     -0.1231
    147  CA        37.4890  -59.6590  -16.1260 C.3   225  LEU225      0.1693
    148  C         37.1360  -61.1430  -15.8420 C.2   225  LEU225      0.2592
    149  O         37.0040  -61.5400  -14.6630 O.2   225  LEU225     -0.2718
    150  CB        36.2230  -58.8690  -16.4710 C.3   225  LEU225      0.0284
    151  CG        35.6680  -58.0080  -15.3340 C.3   225  LEU225      0.0019
    152  CD1       36.7490  -56.9730  -14.9960 C.3   225  LEU225      0.0001
    153  CD2       34.3590  -57.3020  -15.7420 C.3   225  LEU225      0.0001
    154  N         37.0310  -61.9390  -16.9230 N.am  226  PHE226     -0.1976
    155  CA        36.7180  -63.3680  -16.8150 C.3   226  PHE226      0.1639
    156  C         37.8080  -64.0570  -15.9900 C.2   226  PHE226      0.2290
    157  O         37.5130  -64.7300  -14.9940 O.2   226  PHE226     -0.2864
    158  CB        36.6010  -63.9910  -18.2250 C.3   226  PHE226      0.0560
    159  CG        36.4250  -65.4740  -18.2220 C.ar  226  PHE226     -0.0200
    160  CD1       35.1430  -65.9930  -18.1130 C.ar  226  PHE226     -0.0042
    161  CD2       37.5170  -66.3510  -18.3700 C.ar  226  PHE226     -0.0042
    162  CE1       34.9370  -67.3850  -18.1440 C.ar  226  PHE226     -0.0003
    163  CE2       37.3250  -67.7270  -18.3460 C.ar  226  PHE226     -0.0003
    164  CZ        36.0260  -68.2340  -18.2310 C.ar  226  PHE226     -0.0000
    165  N         38.2190  -62.9910  -12.1300 N.3   229  THR229     -0.1218
    166  CA        37.1220  -63.2310  -11.1970 C.3   229  THR229      0.1862
    167  C         36.8900  -64.7050  -11.0690 C.2   229  THR229      0.2287
    168  O         36.0940  -65.1100  -10.1970 O.2   229  THR229     -0.2866
    169  CB        35.8170  -62.5200  -11.6380 C.3   229  THR229      0.1770
    170  OG1       35.4970  -62.9730  -12.9360 O.3   229  THR229     -0.2211
    171  CG2       35.9920  -60.9640  -11.6810 C.3   229  THR229      0.0375
    172  N         36.7390  -68.3860   -9.8730 N.3   231  PRO231     -0.2116
    173  CA        36.9870  -69.0230   -8.5790 C.3   231  PRO231      0.1372
    174  C         37.8770  -70.2230   -8.6410 C.2   231  PRO231      0.2244
    175  O         38.0760  -70.8180   -7.5980 O.2   231  PRO231     -0.2868
    176  CB        35.5970  -69.4800   -8.1370 C.3   231  PRO231      0.0268
    177  CG        34.6720  -68.6050   -8.8770 C.3   231  PRO231      0.0207
    178  CD        35.3180  -68.4840  -10.2320 C.3   231  PRO231      0.0892
@<TRIPOS>BOND
     1     1     2    1
     2   145   143    1
     3   133   132    2
     4   143   142    1
     5     2     5    1
     6     2     3    1
     7     5     6    1
     8   142   144    1
     9   142   139    1
    10     7     6    1
    11     6     8    1
    12   132   131    1
    13   131   130    1
    14   131   134    1
    15     3     4    2
    16   138   139    1
    17   135   134    1
    18   135   137    1
    19   136   134    1
    20   139   140    1
    21   140   141    2
    22    16    15    1
    23     9    10    1
    24    15    14    1
    25   125   124    2
    26    13    14    1
    27    13    10    1
    28   161   163   ar
    29   161   159   ar
    30   163   164   ar
    31   124   123    1
    32   164   162   ar
    33   158   159    1
    34   158   155    1
    35   159   160   ar
    36    10    11    1
    37   162   160   ar
    38    50    49   ar
    39    50    48   ar
    40    11    12    2
    41    49    47   ar
    42    57    56    1
    43   122   123    1
    44   123   126    1
    45    48    46   ar
    46   146   147    1
    47   154   155    1
    48   154   148   am
    49   155   156    1
    50    58    56    1
    51   150   147    1
    52   150   151    1
    53    56    55    1
    54    47    45   ar
    55   147   148    1
    56   128   127    1
    57   156   157    2
    58   126   127    1
    59   118   117    2
    60   148   149    2
    61    46    45   ar
    62   153   151    1
    63   127   129    1
    64    45    44    1
    65   151   152    1
    66   117   116    1
    67   112   111    2
    68    55    52    1
    69    54    53    2
    70    52    53    1
    71    52    51    1
    72    43    42    2
    73   111   110    1
    74   111   115   am
    75    53    59   am
    76    51    42   am
    77    44    41    1
    78    42    41    1
    79   116   115    1
    80   116   119    1
    81   110   109    1
    82   110   113    1
    83    41    40    1
    84   121   119    1
    85   170   169    1
    86   119   120    1
    87    59    60    1
    88    62    61    2
    89   114   113    1
    90    61    60    1
    91   165   166    1
    92    60    63    1
    93    33    31   ar
    94   171   169    1
    95    30    31    1
    96    30    29    1
    97   169   166    1
    98    31    32   ar
    99    28    27    2
   100   166   167    1
   101   167   168    2
   102    26    29    1
   103    26    27    1
   104    26    25    1
   105   101   100    2
   106    27    34   am
   107    63    64    1
   108   178   172    1
   109   178   177    1
   110    64    65    1
   111   100    99    1
   112   172   173    1
   113    37    36    2
   114    34    35    1
   115    36    35    1
   116    99    98    1
   117    99   102    1
   118   177   176    1
   119    35    38    1
   120    65    66   ar
   121    65    67   ar
   122   174   173    1
   123   174   175    2
   124   173   176    1
   125   102   103    1
   126   108   106    1
   127   107   106    1
   128   103   104    1
   129   106   105    2
   130    38    39    1
   131    20    19    2
   132   105   104    1
   133    17    18    1
   134    19    18    1
   135    18    21    1
   136    87    85    1
   137    85    86    1
   138    85    84    2
   139    23    22    1
   140    21    22    1
   141    84    83    1
   142    22    24    1
   143    83    82    1
   144    82    81    1
   145    81    78    1
   146    91    90    2
   147    78    79    1
   148    78    77    1
   149    71    70    2
   150    88    79   am
   151    88    89    1
   152    90    89    1
   153    79    80    2
   154    77    70   am
   155    70    69    1
   156    92    89    1
   157    92    93    1
   158    68    69    1
   159    94    93   ar
   160    94    96   ar
   161    93    95   ar
   162    69    72    1
   163    96    97   ar
   164    76    74   ar
   165    72    73    1
   166    95    97   ar
   167    73    74    1
   168    74    75   ar
