@<TRIPOS>MOLECULE
tmp/5y44A00.pdb
 183 177 0 0 0
SMALL
GASTEIGER

@<TRIPOS>ATOM
      1  N          7.8180    8.4290  -22.2760 N.3    41  PHE41      -0.1241
      2  CA         6.9440    8.2570  -21.1400 C.3    41  PHE41       0.1605
      3  C          7.5120    7.2730  -20.1110 C.2    41  PHE41       0.2264
      4  O          7.4200    7.5330  -18.9230 O.2    41  PHE41      -0.2867
      5  CB         5.5130    7.8540  -21.5500 C.3    41  PHE41       0.0534
      6  CG         4.5890    7.5820  -20.3680 C.ar   41  PHE41      -0.0203
      7  CD1        3.9520    8.6250  -19.7180 C.ar   41  PHE41      -0.0042
      8  CD2        4.4030    6.2830  -19.8890 C.ar   41  PHE41      -0.0042
      9  CE1        3.1330    8.3830  -18.6150 C.ar   41  PHE41      -0.0003
     10  CE2        3.5900    6.0230  -18.7920 C.ar   41  PHE41      -0.0003
     11  CZ         2.9330    7.0840  -18.1700 C.ar   41  PHE41      -0.0000
     12  N         10.2600    9.2260  -18.2170 N.3    44  LEU44      -0.1231
     13  CA         9.6500   10.1730  -17.3630 C.3    44  LEU44       0.1693
     14  C          8.9860    9.5510  -16.1520 C.2    44  LEU44       0.2592
     15  O          9.0530   10.1370  -15.0600 O.2    44  LEU44      -0.2718
     16  CB         8.6430   10.9860  -18.1490 C.3    44  LEU44       0.0284
     17  CG         9.1790   11.8150  -19.3190 C.3    44  LEU44       0.0019
     18  CD1        8.1140   12.8160  -19.7460 C.3    44  LEU44       0.0001
     19  CD2       10.4600   12.5570  -18.9740 C.3    44  LEU44       0.0001
     20  N          8.3960    8.3740  -16.3320 N.am   45  THR45      -0.1953
     21  CA         7.8130    7.6410  -15.2180 C.3    45  THR45       0.1897
     22  C          8.8990    7.3450  -14.2330 C.2    45  THR45       0.2313
     23  O          8.7810    7.6330  -13.0640 O.2    45  THR45      -0.2863
     24  CB         7.1010    6.3930  -15.6960 C.3    45  THR45       0.1794
     25  OG1        5.9790    6.8240  -16.4500 O.3    45  THR45      -0.2208
     26  CG2        6.6320    5.5510  -14.5690 C.3    45  THR45       0.0378
     27  N         11.8880    8.8290  -13.8780 N.3    47  MET47      -0.1230
     28  CA        12.3500   10.0770  -13.2640 C.3    47  MET47       0.1702
     29  C         11.4190   10.6130  -12.1660 C.2    47  MET47       0.2592
     30  O         11.8880   10.9640  -11.0990 O.2    47  MET47      -0.2718
     31  CB        12.4500   11.2150  -14.2750 C.3    47  MET47       0.0401
     32  CG        13.7220   11.1640  -15.0880 C.3    47  MET47       0.0596
     33  SD        13.7330   12.6370  -16.1310 S.3    47  MET47      -0.1393
     34  CE        14.1430   13.9570  -15.0020 C.3    47  MET47       0.0692
     35  N         10.1340   10.6020  -12.4390 N.am   48  ALA48      -0.1980
     36  CA         9.1400   11.0330  -11.4610 C.3    48  ALA48       0.1597
     37  C          9.2210   10.1670  -10.2460 C.2    48  ALA48       0.2287
     38  O          9.2800   10.6540   -9.1360 O.2    48  ALA48      -0.2864
     39  CB         7.7070   11.0740  -12.0390 C.3    48  ALA48       0.0319
     40  N         12.2660   11.2180   -8.3320 N.3    51  HIS51      -0.1241
     41  CA        12.0220   12.4820   -7.6310 C.3    51  HIS51       0.1621
     42  C         11.2370   12.2560   -6.3210 C.2    51  HIS51       0.2264
     43  O         11.6050   12.7910   -5.3110 O.2    51  HIS51      -0.2867
     44  CB        11.2100   13.4430   -8.4760 C.3    51  HIS51       0.0745
     45  CG        11.9420   14.0390   -9.6370 C.ar   51  HIS51       0.0817
     46  ND1       13.3050   14.0340   -9.7650 N.ar   51  HIS51      -0.2268
     47  CD2       11.4770   14.6590  -10.7510 C.ar   51  HIS51       0.1154
     48  CE1       13.6470   14.6110  -10.9040 C.ar   51  HIS51       0.1986
     49  NE2       12.5520   15.0240  -11.5090 N.ar   51  HIS51      -0.2212
     50  N          8.5440   18.2850   -6.3920 N.3    85  MET85      -0.1230
     51  CA         9.0580   17.6950   -7.6010 C.3    85  MET85       0.1702
     52  C          9.3440   18.7470   -8.7290 C.2    85  MET85       0.2592
     53  O         10.4190   18.7400   -9.3450 O.2    85  MET85      -0.2718
     54  CB         8.0690   16.6080   -8.0690 C.3    85  MET85       0.0401
     55  CG         8.4830   15.9720   -9.3870 C.3    85  MET85       0.0596
     56  SD         7.3270   14.6960   -9.8520 S.3    85  MET85      -0.1393
     57  CE         5.7600   15.5100  -10.1280 C.3    85  MET85       0.0692
     58  N          8.3720   19.6050   -9.0350 N.am   86  PHE86      -0.1976
     59  CA         8.6060   20.6270  -10.0700 C.3    86  PHE86       0.1639
     60  C          9.7600   21.5210   -9.7760 C.2    86  PHE86       0.2290
     61  O         10.4780   21.9510  -10.6830 O.2    86  PHE86      -0.2864
     62  CB         7.3600   21.4390  -10.3190 C.3    86  PHE86       0.0560
     63  CG         6.4730   20.8090  -11.3510 C.ar   86  PHE86      -0.0200
     64  CD1        6.6820   21.0570  -12.6870 C.ar   86  PHE86      -0.0042
     65  CD2        5.4850   19.9430  -10.9970 C.ar   86  PHE86      -0.0042
     66  CE1        5.9030   20.4460  -13.6570 C.ar   86  PHE86      -0.0003
     67  CE2        4.6790   19.3230  -11.9600 C.ar   86  PHE86      -0.0003
     68  CZ         4.8750   19.5910  -13.2910 C.ar   86  PHE86      -0.0000
     69  N         12.8820   19.5140  -10.4340 N.3    89  SER89      -0.1217
     70  CA        13.1590   19.3200  -11.8710 C.3    89  SER89       0.1889
     71  C         13.7270   20.6210  -12.5020 C.2    89  SER89       0.2288
     72  O         14.6410   20.5540  -13.3210 O.2    89  SER89      -0.2866
     73  CB        11.9510   18.8190  -12.6120 C.3    89  SER89       0.2089
     74  OG        10.9580   19.7890  -12.5690 O.3    89  SER89      -0.2183
     75  N         10.2980   15.1780  -22.9950 N.3   106  ILE106     -0.1245
     76  CA         9.1540   15.7350  -22.3220 C.3   106  ILE106      0.1561
     77  C          8.0990   16.1930  -23.3450 C.2   106  ILE106      0.2260
     78  O          6.9160   15.9700  -23.1340 O.2   106  ILE106     -0.2867
     79  CB         9.5840   16.9300  -21.4400 C.3   106  ILE106      0.0252
     80  CG1       10.4130   16.4360  -20.2700 C.3   106  ILE106      0.0019
     81  CG2        8.3600   17.6570  -20.8870 C.3   106  ILE106      0.0019
     82  CD1       11.0070   17.5520  -19.4240 C.3   106  ILE106      0.0001
     83  N          1.9220   14.5070  -23.4110 N.3   111  ILE111     -0.1245
     84  CA         1.5260   15.6750  -22.6390 C.3   111  ILE111      0.1561
     85  C          1.1420   16.8000  -23.6380 C.2   111  ILE111      0.2260
     86  O          1.9490   17.1960  -24.5180 O.2   111  ILE111     -0.2867
     87  CB         2.6540   16.2180  -21.7180 C.3   111  ILE111      0.0252
     88  CG1        3.2830   15.1180  -20.8860 C.3   111  ILE111      0.0019
     89  CG2        2.1030   17.2640  -20.7480 C.3   111  ILE111      0.0019
     90  CD1        4.5430   15.5280  -20.1460 C.3   111  ILE111      0.0001
     91  N          5.2260   24.7340  -17.9470 N.3   119  MET119     -0.1245
     92  CA         6.2700   24.0240  -17.2950 C.3   119  MET119      0.1570
     93  C          7.5280   24.7170  -17.6730 C.2   119  MET119      0.2261
     94  O          8.2370   25.1740  -16.8140 O.2   119  MET119     -0.2867
     95  CB         6.2150   22.5600  -17.7110 C.3   119  MET119      0.0387
     96  CG         7.3050   21.6320  -17.2430 C.3   119  MET119      0.0595
     97  SD         7.1020   19.9050  -17.8990 S.3   119  MET119     -0.1393
     98  CE         5.3260   19.7260  -17.7170 C.3   119  MET119      0.0692
     99  N         10.4830   26.9600  -15.6100 N.3   123  TYR123     -0.1241
    100  CA        11.9200   26.7020  -15.6120 C.3   123  TYR123      0.1605
    101  C         12.7550   27.9520  -15.9210 C.2   123  TYR123      0.2264
    102  O         13.8490   28.1240  -15.3730 O.2   123  TYR123     -0.2867
    103  CB        12.2710   25.5540  -16.6050 C.3   123  TYR123      0.0534
    104  CG        11.7810   24.1360  -16.2430 C.ar  123  TYR123     -0.0201
    105  CD1       11.3850   23.8030  -14.9430 C.ar  123  TYR123     -0.0009
    106  CD2       11.7620   23.1200  -17.2030 C.ar  123  TYR123     -0.0009
    107  CE1       10.9410   22.5410  -14.6370 C.ar  123  TYR123      0.0417
    108  CE2       11.3430   21.8370  -16.8900 C.ar  123  TYR123      0.0417
    109  CZ        10.9350   21.5610  -15.5960 C.ar  123  TYR123      0.1957
    110  OH        10.5280   20.3260  -15.2140 O.3   123  TYR123     -0.2866
    111  N         -0.9410   19.3050  -12.8890 N.3   201  HIS201     -0.1241
    112  CA        -0.4450   17.9700  -12.7640 C.3   201  HIS201      0.1621
    113  C         -1.6100   16.9960  -12.6690 C.2   201  HIS201      0.2264
    114  O         -1.5590   15.9120  -13.2480 O.2   201  HIS201     -0.2867
    115  CB         0.5130   17.8300  -11.5510 C.3   201  HIS201      0.0745
    116  CG         1.2060   16.5120  -11.4740 C.ar  201  HIS201      0.0817
    117  ND1        0.6670   15.4230  -10.8080 N.ar  201  HIS201     -0.2268
    118  CD2        2.3690   16.0890  -12.0260 C.ar  201  HIS201      0.1154
    119  CE1        1.4920   14.3940  -10.9260 C.ar  201  HIS201      0.1986
    120  NE2        2.5400   14.7730  -11.6500 N.ar  201  HIS201     -0.2212
    121  N         -2.7170   16.4660  -16.2430 N.3   204  MET204     -0.1230
    122  CA        -1.8360   15.5520  -16.9320 C.3   204  MET204      0.1702
    123  C         -2.0750   14.0920  -16.5470 C.2   204  MET204      0.2592
    124  O         -2.0730   13.2040  -17.4310 O.2   204  MET204     -0.2718
    125  CB        -0.4030   15.8410  -16.6040 C.3   204  MET204      0.0401
    126  CG         0.1730   17.0360  -17.2820 C.3   204  MET204      0.0596
    127  SD         1.9120   16.9980  -16.8100 S.3   204  MET204     -0.1393
    128  CE         1.8920   18.4430  -15.7850 C.3   204  MET204      0.0692
    129  N         -2.2070   13.8180  -15.2440 N.am  205  LEU205     -0.1980
    130  CA        -2.5140   12.4550  -14.8100 C.3   205  LEU205      0.1596
    131  C         -3.8380   11.9450  -15.3580 C.2   205  LEU205      0.2287
    132  O         -3.9340   10.7940  -15.7160 O.2   205  LEU205     -0.2864
    133  CB        -2.5330   12.3020  -13.3030 C.3   205  LEU205      0.0297
    134  CG        -1.1910   12.4500  -12.6280 C.3   205  LEU205      0.0022
    135  CD1       -1.2610   11.7870  -11.2640 C.3   205  LEU205      0.0001
    136  CD2       -0.0250   11.9090  -13.4350 C.3   205  LEU205      0.0001
    137  N         -3.2150   11.0120  -19.1050 N.3   208  TRP208     -0.1241
    138  CA        -2.4180    9.7980  -19.1550 C.3   208  TRP208      0.1605
    139  C         -3.2240    8.5660  -18.8880 C.2   208  TRP208      0.2264
    140  O         -2.9910    7.5560  -19.5570 O.2   208  TRP208     -0.2867
    141  CB        -1.1950    9.8100  -18.2580 C.3   208  TRP208      0.0550
    142  CG        -0.0330   10.4660  -18.8730 C.ar  208  TRP208      0.0003
    143  CD1        0.3170   10.4870  -20.2230 C.ar  208  TRP208      0.0946
    144  CD2        0.9780   11.1800  -18.1880 C.ar  208  TRP208      0.0152
    145  NE1        1.4760   11.1890  -20.3930 N.ar  208  TRP208     -0.2442
    146  CE2        1.9210   11.6100  -19.1570 C.ar  208  TRP208      0.0810
    147  CE3        1.2030   11.4840  -16.8440 C.ar  208  TRP208      0.0012
    148  CZ2        3.0650   12.3800  -18.8100 C.ar  208  TRP208      0.0191
    149  CZ3        2.3590   12.2180  -16.4980 C.ar  208  TRP208      0.0001
    150  CH2        3.2620   12.6580  -17.4790 C.ar  208  TRP208      0.0015
    151  N          1.3820    3.0560  -13.9200 N.3   214  PHE214     -0.1241
    152  CA         2.2600    3.8100  -13.0130 C.3   214  PHE214      0.1605
    153  C          2.9350    2.9410  -11.9800 C.2   214  PHE214      0.2264
    154  O          2.3850    1.9080  -11.5080 O.2   214  PHE214     -0.2867
    155  CB         1.4810    4.8700  -12.2210 C.3   214  PHE214      0.0534
    156  CG         0.7300    5.8650  -13.0540 C.ar  214  PHE214     -0.0203
    157  CD1        1.0410    6.1190  -14.3790 C.ar  214  PHE214     -0.0042
    158  CD2       -0.2960    6.5800  -12.4680 C.ar  214  PHE214     -0.0042
    159  CE1        0.3460    7.0660  -15.1030 C.ar  214  PHE214     -0.0003
    160  CE2       -1.0140    7.5300  -13.1850 C.ar  214  PHE214     -0.0003
    161  CZ        -0.6940    7.7720  -14.5040 C.ar  214  PHE214     -0.0000
    162  N          4.1130    6.1190   -7.2760 N.3   218  LEU218     -0.1245
    163  CA         3.3800    7.1960   -7.8250 C.3   218  LEU218      0.1561
    164  C          1.9040    6.9720   -7.6300 C.2   218  LEU218      0.2260
    165  O          1.1350    7.9340   -7.5030 O.2   218  LEU218     -0.2867
    166  CB         3.6800    7.3260   -9.3070 C.3   218  LEU218      0.0270
    167  CG         5.1500    7.5890   -9.5780 C.3   218  LEU218      0.0019
    168  CD1        5.4280    7.7600  -11.0740 C.3   218  LEU218      0.0001
    169  CD2        5.6160    8.8200   -8.8180 C.3   218  LEU218      0.0001
    170  N         -0.0290    9.8690   -5.2500 N.3   222  TRP222     -0.1241
    171  CA        -1.1580   10.6320   -5.8000 C.3   222  TRP222      0.1605
    172  C         -2.5270    9.9670   -5.7780 C.2   222  TRP222      0.2264
    173  O         -3.3930   10.4940   -6.4020 O.2   222  TRP222     -0.2867
    174  CB        -0.8140   11.1020   -7.2140 C.3   222  TRP222      0.0550
    175  CG         0.2640   12.0700   -7.1690 C.ar  222  TRP222      0.0003
    176  CD1        0.3340   13.1560   -6.3550 C.ar  222  TRP222      0.0946
    177  CD2        1.4550   12.0820   -7.9670 C.ar  222  TRP222      0.0152
    178  NE1        1.4850   13.8200   -6.5880 N.ar  222  TRP222     -0.2442
    179  CE2        2.1980   13.1880   -7.5660 C.ar  222  TRP222      0.0810
    180  CE3        1.9730   11.2330   -8.9700 C.ar  222  TRP222      0.0012
    181  CZ2        3.4460   13.4940   -8.0980 C.ar  222  TRP222      0.0191
    182  CZ3        3.2100   11.5690   -9.5650 C.ar  222  TRP222      0.0001
    183  CH2        3.9400   12.6770   -9.0910 C.ar  222  TRP222      0.0015
@<TRIPOS>BOND
     1    86    85    2
     2    85    84    1
     3    83    84    1
     4    77    78    2
     5    77    76    1
     6    75    76    1
     7    84    87    1
     8    76    79    1
     9     1     2    1
    10    87    88    1
    11    87    89    1
    12     5     2    1
    13     5     6    1
    14    79    81    1
    15    79    80    1
    16     2     3    1
    17    88    90    1
    18   145   143   ar
    19   145   146   ar
    20     6     8   ar
    21     6     7   ar
    22    80    82    1
    23   143   142   ar
    24     3     4    2
    25     8    10   ar
    26    18    17    1
    27     7     9   ar
    28   140   139    2
    29    17    19    1
    30    17    16    1
    31   146   148   ar
    32   146   144   ar
    33   138   137    1
    34   138   139    1
    35   138   141    1
    36   142   141    1
    37   142   144   ar
    38   148   150   ar
    39    10    11   ar
    40     9    11   ar
    41    12    13    1
    42   144   147   ar
    43    16    13    1
    44    91    92    1
    45    97    98    1
    46    97    96    1
    47    95    92    1
    48    95    96    1
    49    93    92    1
    50    93    94    2
    51   150   149   ar
    52   124   123    2
    53    13    14    1
    54   126   127    1
    55   126   125    1
    56   106   108   ar
    57   106   104   ar
    58   122   125    1
    59   122   123    1
    60   122   121    1
    61   108   109   ar
    62   147   149   ar
    63   127   128    1
    64   103   104    1
    65   103   100    1
    66   123   129   am
    67    25    24    1
    68    20    14   am
    69    20    21    1
    70   104   105   ar
    71    14    15    2
    72    33    32    1
    73    33    34    1
    74   101   100    1
    75   101   102    2
    76   132   131    2
    77    24    21    1
    78    24    26    1
    79   100    99    1
    80   109   110    1
    81   109   107   ar
    82   131   130    1
    83   129   130    1
    84    21    22    1
    85   159   161   ar
    86   159   157   ar
    87    32    31    1
    88   105   107   ar
    89   130   133    1
    90   161   160   ar
    91   157   156   ar
    92    31    28    1
    93    22    23    2
    94   151   152    1
    95    27    28    1
    96    66    68   ar
    97    66    64   ar
    98   136   134    1
    99    72    71    2
   100   133   134    1
   101    68    67   ar
   102    28    29    1
   103   114   113    2
   104   160   158   ar
   105   156   158   ar
   106   156   155    1
   107   152   155    1
   108   152   153    1
   109   111   112    1
   110   112   113    1
   111   112   115    1
   112    64    63   ar
   113   134   135    1
   114    73    74    1
   115    73    70    1
   116    71    70    1
   117    35    29   am
   118    35    36    1
   119    29    30    2
   120    39    36    1
   121   118   120   ar
   122   118   116   ar
   123   153   154    2
   124    67    65   ar
   125    70    69    1
   126   120   119   ar
   127   115   116    1
   128    49    48   ar
   129    49    47   ar
   130   116   117   ar
   131    36    37    1
   132    63    65   ar
   133    63    62    1
   134   168   167    1
   135   119   117   ar
   136    48    46   ar
   137    47    45   ar
   138    61    60    2
   139    62    59    1
   140    37    38    2
   141    57    56    1
   142    59    60    1
   143    59    58    1
   144    56    55    1
   145    46    45   ar
   146    45    44    1
   147   167   166    1
   148   167   169    1
   149   182   183   ar
   150   182   180   ar
   151    55    54    1
   152    53    52    2
   153   166   163    1
   154   183   181   ar
   155    58    52   am
   156   180   177   ar
   157    52    51    1
   158    44    41    1
   159    40    41    1
   160   181   179   ar
   161    54    51    1
   162   177   179   ar
   163   177   175   ar
   164   163   164    1
   165   163   162    1
   166    41    42    1
   167   164   165    2
   168    51    50    1
   169   179   178   ar
   170   174   175    1
   171   174   171    1
   172   175   176   ar
   173   178   176   ar
   174   173   172    2
   175    42    43    2
   176   171   172    1
   177   171   170    1
