@<TRIPOS>MOLECULE
tmp/5y48A00.pdb
 90 87 0 0 0
SMALL
GASTEIGER

@<TRIPOS>ATOM
      1  N         -5.8910  -28.5720    0.6680 N.3    69  VAL69      -0.1231
      2  CA        -4.9440  -27.6070    1.2460 C.3    69  VAL69       0.1692
      3  C         -5.2930  -26.1720    0.8660 C.2    69  VAL69       0.2592
      4  O         -4.3530  -25.3340    0.8000 O.2    69  VAL69      -0.2718
      5  CB        -3.4470  -27.9220    0.9330 C.3    69  VAL69       0.0266
      6  CG1       -2.5830  -27.5290    2.1140 C.3    69  VAL69       0.0020
      7  CG2       -3.2140  -29.4380    0.5910 C.3    69  VAL69       0.0020
      8  N         -6.5420  -25.9360    0.5400 N.am   70  TYR70      -0.1962
      9  CA        -7.0210  -24.5810    0.1560 C.3    70  TYR70       0.1771
     10  C         -7.2460  -23.8000    1.4110 C.2    70  TYR70       0.2619
     11  O         -7.8190  -24.2490    2.4000 O.2    70  TYR70      -0.2715
     12  CB        -8.3280  -24.6230   -0.6230 C.3    70  TYR70       0.0574
     13  CG        -8.2080  -24.9540   -2.0980 C.ar   70  TYR70      -0.0198
     14  CD1       -7.0760  -25.5630   -2.6550 C.ar   70  TYR70      -0.0009
     15  CD2       -9.2870  -24.6940   -2.9330 C.ar   70  TYR70      -0.0009
     16  CE1       -6.9580  -25.8790   -4.0160 C.ar   70  TYR70       0.0417
     17  CE2       -9.2430  -25.0180   -4.3010 C.ar   70  TYR70       0.0417
     18  CZ        -8.0900  -25.6120   -4.8390 C.ar   70  TYR70       0.1957
     19  OH        -8.0760  -25.9070   -6.1840 O.3    70  TYR70      -0.2866
     20  N         -6.7610  -22.5470    1.3790 N.am   71  ILE71      -0.1977
     21  CA        -7.0630  -21.6320    2.4790 C.3    71  ILE71       0.1596
     22  C         -8.4580  -21.1350    2.3150 C.2    71  ILE71       0.2287
     23  O         -8.8120  -20.6670    1.2170 O.2    71  ILE71      -0.2864
     24  CB        -6.0650  -20.4430    2.4950 C.3    71  ILE71       0.0276
     25  CG1       -4.7170  -20.8730    3.1040 C.3    71  ILE71       0.0022
     26  CG2       -6.5360  -19.3080    3.3990 C.3    71  ILE71       0.0022
     27  CD1       -3.9230  -21.8000    2.2690 C.3    71  ILE71       0.0001
     28  N        -12.7350  -16.0350    1.8900 N.3    83  PHE83      -0.1241
     29  CA       -12.8810  -15.8470    0.4560 C.3    83  PHE83       0.1605
     30  C        -14.3410  -15.8270   -0.0020 C.2    83  PHE83       0.2264
     31  O        -15.1800  -16.4890    0.5940 O.2    83  PHE83      -0.2867
     32  CB       -12.0920  -16.8850   -0.2760 C.3    83  PHE83       0.0534
     33  CG       -10.6000  -16.6790   -0.2190 C.ar   83  PHE83      -0.0203
     34  CD1      -10.0200  -15.5180   -0.7750 C.ar   83  PHE83      -0.0042
     35  CD2       -9.7690  -17.6380    0.3500 C.ar   83  PHE83      -0.0042
     36  CE1       -8.6510  -15.2910   -0.6720 C.ar   83  PHE83      -0.0003
     37  CE2       -8.3870  -17.4470    0.3790 C.ar   83  PHE83      -0.0003
     38  CZ        -7.8390  -16.3060   -0.2120 C.ar   83  PHE83      -0.0000
     39  N        -16.3910  -17.3920   -2.0230 N.3    85  GLU85      -0.1245
     40  CA       -16.5290  -18.6450   -2.7970 C.3    85  GLU85       0.1567
     41  C        -17.2950  -19.6430   -1.9300 C.2    85  GLU85       0.2260
     42  O        -17.2710  -19.6180   -0.6790 O.2    85  GLU85      -0.2867
     43  CB       -15.1730  -19.1600   -3.3330 C.3    85  GLU85       0.0388
     44  CG       -14.3120  -19.7040   -2.1770 C.3    85  GLU85       0.1160
     45  CD       -12.8170  -19.8430   -2.3150 C.2    85  GLU85       0.3649
     46  OE1      -12.2220  -19.2860   -3.1490 O.co2  85  GLU85      -0.2457
     47  OE2      -12.1880  -20.5590   -1.4520 O.co2  85  GLU85      -0.2457
     48  N        -10.2980  -17.2240   -3.8400 N.3   109  GLY109     -0.1210
     49  CA        -8.9240  -17.5490   -3.5370 C.3   109  GLY109      0.1956
     50  C         -8.0600  -18.1510   -4.6130 C.2   109  GLY109      0.2612
     51  O         -6.9060  -18.5210   -4.3840 O.2   109  GLY109     -0.2717
     52  N         -8.5530  -18.2330   -5.8300 N.am  110  ASN110     -0.1960
     53  CA        -7.6550  -18.7130   -6.8360 C.3   110  ASN110      0.1819
     54  C         -6.6540  -17.6740   -7.3210 C.2   110  ASN110      0.2621
     55  O         -6.8380  -16.4400   -7.2150 O.2   110  ASN110     -0.2715
     56  CB        -8.4280  -19.3100   -7.9550 C.3   110  ASN110      0.1195
     57  CG        -9.2450  -18.3010   -8.6360 C.2   110  ASN110      0.2630
     58  OD1       -8.7740  -17.5630   -9.5240 O.2   110  ASN110     -0.2716
     59  ND2      -10.4890  -18.2320   -8.2230 N.am  110  ASN110     -0.0877
     60  N         -5.5860  -18.1730   -7.8920 N.am  111  TYR111     -0.1974
     61  CA        -4.4890  -17.2830   -8.2310 C.3   111  TYR111      0.1639
     62  C         -4.8830  -16.1610   -9.2000 C.2   111  TYR111      0.2290
     63  O         -4.4630  -15.0090   -9.0520 O.2   111  TYR111     -0.2864
     64  CB        -3.3860  -18.1010   -8.7840 C.3   111  TYR111      0.0560
     65  CG        -2.5340  -18.8170   -7.7100 C.ar  111  TYR111     -0.0198
     66  CD1       -2.0470  -18.1330   -6.6190 C.ar  111  TYR111     -0.0009
     67  CD2       -2.1380  -20.1320   -7.8750 C.ar  111  TYR111     -0.0009
     68  CE1       -1.2140  -18.7540   -5.6950 C.ar  111  TYR111      0.0417
     69  CE2       -1.3380  -20.7720   -6.9700 C.ar  111  TYR111      0.0417
     70  CZ        -0.8820  -20.0940   -5.8520 C.ar  111  TYR111      0.1957
     71  OH        -0.0570  -20.6940   -4.9510 O.3   111  TYR111     -0.2866
     72  N         -0.3490  -18.2440    0.8390 N.3   155  ILE155     -0.1245
     73  CA        -0.6750  -19.5350    0.1760 C.3   155  ILE155      0.1561
     74  C          0.6110  -20.2210   -0.3140 C.2   155  ILE155      0.2260
     75  O          0.7480  -21.4380   -0.1230 O.2   155  ILE155     -0.2867
     76  CB        -1.6690  -19.3220   -0.9810 C.3   155  ILE155      0.0252
     77  CG1       -3.0300  -18.9220   -0.4140 C.3   155  ILE155      0.0019
     78  CG2       -1.7320  -20.5760   -1.9100 C.3   155  ILE155      0.0019
     79  CD1       -3.9150  -18.3500   -1.5210 C.3   155  ILE155      0.0001
     80  N          2.8390  -28.9360   -0.3590 N.3   163  ARG163     -0.1301
     81  CA         2.6620  -29.8160   -1.5340 C.3   163  ARG163      0.1248
     82  C          3.8760  -30.2600   -2.2200 C.3   163  ARG163      0.2009
     83  O          3.8490  -31.3990   -2.8290 O.3   163  ARG163     -0.2188
     84  CB         1.7410  -29.0640   -2.5390 C.3   163  ARG163      0.0254
     85  CG         0.3530  -28.8660   -2.0790 C.3   163  ARG163      0.0485
     86  CD        -0.3320  -27.9350   -3.0930 C.3   163  ARG163      0.2205
     87  NE        -1.7370  -27.6820   -2.7610 N.pl3 163  ARG163     -0.0865
     88  CZ        -2.3290  -26.4920   -2.7220 C.cat 163  ARG163      0.5346
     89  NH1       -1.6340  -25.4050   -2.9460 N.pl3 163  ARG163      0.1354
     90  NH2       -3.6120  -26.3600   -2.4500 N.pl3 163  ARG163      0.1354
@<TRIPOS>BOND
     1    58    57    2
     2    62    63    2
     3    62    61    1
     4    64    61    1
     5    64    65    1
     6    57    59   am
     7    57    56    1
     8    61    60    1
     9    56    53    1
    10    60    54   am
    11    67    65   ar
    12    67    69   ar
    13    65    66   ar
    14    54    55    2
    15    54    53    1
    16    69    70   ar
    17    53    52    1
    18    66    68   ar
    19    19    18    1
    20    70    68   ar
    21    70    71    1
    22    52    50   am
    23    18    17   ar
    24    18    16   ar
    25    50    51    2
    26    50    49    1
    27    17    15   ar
    28    16    14   ar
    29    48    49    1
    30    43    40    1
    31    43    44    1
    32    46    45   ar
    33    86    87    1
    34    86    85    1
    35    89    88    1
    36    15    13   ar
    37    83    82    1
    38    40    39    1
    39    40    41    1
    40    87    88    2
    41    88    90    1
    42    14    13   ar
    43    84    85    1
    44    84    81    1
    45    45    44    1
    46    45    47   ar
    47    82    81    1
    48    13    12    1
    49    41    42    2
    50    78    76    1
    51    81    80    1
    52    79    77    1
    53    76    77    1
    54    76    73    1
    55    34    36   ar
    56    34    33   ar
    57    36    38   ar
    58    12     9    1
    59    74    75    2
    60    74    73    1
    61    32    33    1
    62    32    29    1
    63    33    35   ar
    64    38    37   ar
    65    30    29    1
    66    30    31    2
    67     9     8    1
    68     9    10    1
    69    73    72    1
    70    35    37   ar
    71    29    28    1
    72     8     3   am
    73     7     5    1
    74     1     2    1
    75     4     3    2
    76     3     2    1
    77     5     2    1
    78     5     6    1
    79    23    22    2
    80    20    10   am
    81    20    21    1
    82    10    11    2
    83    27    25    1
    84    22    21    1
    85    21    24    1
    86    24    25    1
    87    24    26    1
