@<TRIPOS>MOLECULE
tmp/5y49A01.pdb
 183 177 0 0 0
SMALL
GASTEIGER

@<TRIPOS>ATOM
      1  N         20.1550  -11.1510  151.5760 N.3    40  PHE40      -0.1241
      2  CA        19.4710  -12.0210  152.4930 C.3    40  PHE40       0.1605
      3  C         19.5060  -11.5150  153.9480 C.2    40  PHE40       0.2264
      4  O         18.5300  -11.6550  154.6700 O.2    40  PHE40      -0.2867
      5  CB        19.9950  -13.4700  152.3940 C.3    40  PHE40       0.0534
      6  CG        19.5240  -14.3400  153.5190 C.ar   40  PHE40      -0.0203
      7  CD1       18.2870  -15.0000  153.4510 C.ar   40  PHE40      -0.0042
      8  CD2       20.2600  -14.4070  154.7100 C.ar   40  PHE40      -0.0042
      9  CE1       17.8240  -15.7460  154.5340 C.ar   40  PHE40      -0.0003
     10  CE2       19.7800  -15.1500  155.8150 C.ar   40  PHE40      -0.0003
     11  CZ        18.5680  -15.8140  155.7170 C.ar   40  PHE40      -0.0000
     12  N         16.8070   -8.8050  153.9380 N.3    43  LEU43      -0.1231
     13  CA        15.4890   -9.4310  154.0310 C.3    43  LEU43       0.1693
     14  C         15.1570   -9.9930  155.4250 C.2    43  LEU43       0.2592
     15  O         14.0250   -9.8890  155.8810 O.2    43  LEU43      -0.2718
     16  CB        15.3420  -10.5360  152.9950 C.3    43  LEU43       0.0284
     17  CG        15.4380  -10.1980  151.5140 C.3    43  LEU43       0.0019
     18  CD1       14.9120  -11.3870  150.7170 C.3    43  LEU43       0.0001
     19  CD2       14.6700   -8.9400  151.1770 C.3    43  LEU43       0.0001
     20  N         16.1540  -10.5720  156.0760 N.am   44  THR44      -0.1953
     21  CA        16.0330  -11.0580  157.4480 C.3    44  THR44       0.1897
     22  C         15.6860   -9.9150  158.4030 C.2    44  THR44       0.2313
     23  O         14.8460  -10.0770  159.2860 O.2    44  THR44      -0.2863
     24  CB        17.3160  -11.8300  157.8710 C.3    44  THR44       0.1794
     25  OG1       17.3390  -13.0550  157.1440 O.3    44  THR44      -0.2208
     26  CG2       17.3120  -12.1980  159.2980 C.3    44  THR44       0.0378
     27  N         14.2470   -6.9440  157.5480 N.3    46  MET46      -0.1230
     28  CA        12.8970   -6.5470  157.2250 C.3    46  MET46       0.1702
     29  C         11.8470   -7.4470  157.8150 C.2    46  MET46       0.2592
     30  O         10.8830   -6.9630  158.3460 O.2    46  MET46      -0.2718
     31  CB        12.7020   -6.5190  155.7260 C.3    46  MET46       0.0401
     32  CG        13.4210   -5.3270  155.1260 C.3    46  MET46       0.0596
     33  SD        13.1390   -5.2830  153.3490 S.3    46  MET46      -0.1393
     34  CE        11.3730   -4.9590  153.3570 C.3    46  MET46       0.0692
     35  N         12.0370   -8.7490  157.6960 N.am   47  ALA47      -0.1980
     36  CA        11.0820   -9.7340  158.1650 C.3    47  ALA47       0.1597
     37  C         10.9830   -9.6590  159.6840 C.2    47  ALA47       0.2287
     38  O          9.8940   -9.6410  160.2260 O.2    47  ALA47      -0.2864
     39  CB        11.5100  -11.1420  157.6900 C.3    47  ALA47       0.0319
     40  N          8.9080   -6.6180  160.4120 N.3    50  HIS50      -0.1241
     41  CA         7.5060   -6.9210  160.1190 C.3    50  HIS50       0.1621
     42  C          6.7860   -7.6470  161.2630 C.2    50  HIS50       0.2264
     43  O          5.6460   -7.3350  161.5880 O.2    50  HIS50      -0.2867
     44  CB         7.3520   -7.7600  158.8430 C.3    50  HIS50       0.0745
     45  CG         7.7240   -7.0410  157.5760 C.ar   50  HIS50       0.0817
     46  ND1        7.1030   -5.8870  157.1680 N.ar   50  HIS50      -0.2268
     47  CD2        8.6070   -7.3470  156.5930 C.ar   50  HIS50       0.1154
     48  CE1        7.6200   -5.4770  156.0250 C.ar   50  HIS50       0.1986
     49  NE2        8.5270   -6.3550  155.6450 N.ar   50  HIS50      -0.2212
     50  N          2.5490  -10.6380  157.0530 N.3    84  MET84      -0.1230
     51  CA         3.8100  -10.1180  156.5540 C.3    84  MET84       0.1702
     52  C          3.7310   -9.7800  155.0770 C.2    84  MET84       0.2592
     53  O          4.1140   -8.7050  154.6850 O.2    84  MET84      -0.2718
     54  CB         4.8870  -11.1360  156.7390 C.3    84  MET84       0.0401
     55  CG         6.1720  -10.7480  156.0260 C.3    84  MET84       0.0596
     56  SD         7.5050  -11.8830  156.3840 S.3    84  MET84      -0.1393
     57  CE         7.6840  -11.4660  158.1200 C.3    84  MET84       0.0692
     58  N          3.2280  -10.7070  154.2610 N.am   85  PHE85      -0.1976
     59  CA         3.0380  -10.4580  152.8190 C.3    85  PHE85       0.1639
     60  C          2.0400   -9.3380  152.5050 C.2    85  PHE85       0.2290
     61  O          2.1560   -8.6270  151.4970 O.2    85  PHE85      -0.2864
     62  CB         2.6860  -11.7620  152.0820 C.3    85  PHE85       0.0560
     63  CG         3.8810  -12.6150  151.8130 C.ar   85  PHE85      -0.0200
     64  CD1        4.8340  -12.2160  150.8720 C.ar   85  PHE85      -0.0042
     65  CD2        4.1020  -13.7590  152.5330 C.ar   85  PHE85      -0.0042
     66  CE1        5.9830  -12.9660  150.6570 C.ar   85  PHE85      -0.0003
     67  CE2        5.2410  -14.5210  152.3200 C.ar   85  PHE85      -0.0003
     68  CZ         6.1840  -14.1310  151.3780 C.ar   85  PHE85      -0.0000
     69  N          3.9530   -6.2640  153.3810 N.3    88  SER88      -0.1217
     70  CA         4.9750   -6.2050  152.3400 C.3    88  SER88       0.1889
     71  C          4.4080   -5.6440  151.0320 C.2    88  SER88       0.2288
     72  O          5.0870   -4.8830  150.3530 O.2    88  SER88      -0.2866
     73  CB         5.5350   -7.6000  152.1350 C.3    88  SER88       0.2089
     74  OG         6.5070   -7.6070  151.1380 O.3    88  SER88      -0.2183
     75  N         15.4720   -8.6890  146.4680 N.3   105  ILE105     -0.1245
     76  CA        14.6120   -9.8700  146.6750 C.3   105  ILE105      0.1561
     77  C         14.9090  -10.9480  145.6300 C.2   105  ILE105      0.2260
     78  O         15.0710  -12.1150  145.9660 O.2   105  ILE105     -0.2867
     79  CB        13.1180   -9.4800  146.7510 C.3   105  ILE105      0.0252
     80  CG1       12.8950   -8.6220  148.0230 C.3   105  ILE105      0.0019
     81  CG2       12.2160  -10.7240  146.8500 C.3   105  ILE105      0.0019
     82  CD1       11.5110   -7.9840  148.1680 C.3   105  ILE105      0.0001
     83  N         16.6940  -17.2460  146.4110 N.3   110  ILE110     -0.1245
     84  CA        15.3380  -17.7980  146.3610 C.3   110  ILE110      0.1561
     85  C         14.9860  -18.1570  144.9230 C.2   110  ILE110      0.2260
     86  O         15.1220  -17.3520  144.0170 O.2   110  ILE110     -0.2867
     87  CB        14.2700  -16.8180  146.8850 C.3   110  ILE110      0.0252
     88  CG1       14.6480  -16.2370  148.2500 C.3   110  ILE110      0.0019
     89  CG2       12.9260  -17.5170  147.0130 C.3   110  ILE110      0.0019
     90  CD1       13.7850  -15.0440  148.6480 C.3   110  ILE110      0.0001
     91  N          5.1130  -13.9880  144.4790 N.3   118  MET118     -0.1245
     92  CA         5.2040  -12.7970  145.3530 C.3   118  MET118      0.1570
     93  C          4.9440  -11.5220  144.5800 C.2   118  MET118      0.2261
     94  O          4.1390  -10.6980  144.9910 O.2   118  MET118     -0.2867
     95  CB         6.5670  -12.6050  146.0040 C.3   118  MET118      0.0387
     96  CG         6.9780  -13.6290  147.0510 C.3   118  MET118      0.0595
     97  SD         8.5940  -13.2850  147.8270 S.3   118  MET118     -0.1393
     98  CE         8.5530  -11.4770  147.8800 C.3   118  MET118      0.0692
     99  N          1.7020   -8.9920  144.5480 N.3   122  TYR122     -0.1241
    100  CA         1.7340   -7.5130  144.7440 C.3   122  TYR122      0.1605
    101  C          0.9730   -6.7430  143.6920 C.2   122  TYR122      0.2264
    102  O          0.2500   -5.8120  144.0240 O.2   122  TYR122     -0.2867
    103  CB         3.1630   -6.9620  144.8130 C.3   122  TYR122      0.0534
    104  CG         4.0090   -7.4930  145.9680 C.ar  122  TYR122     -0.0201
    105  CD1        3.4290   -8.0500  147.1430 C.ar  122  TYR122     -0.0009
    106  CD2        5.3920   -7.4080  145.9110 C.ar  122  TYR122     -0.0009
    107  CE1        4.2190   -8.5130  148.1750 C.ar  122  TYR122      0.0417
    108  CE2        6.1750   -7.8630  146.9550 C.ar  122  TYR122      0.0417
    109  CZ         5.5760   -8.4050  148.0690 C.ar  122  TYR122      0.1957
    110  OH         6.3770   -8.8710  149.0570 O.3   122  TYR122     -0.2866
    111  N          5.8630  -20.2230  151.7580 N.3   200  HIS200     -0.1241
    112  CA         6.8570  -19.7760  152.7210 C.3   200  HIS200      0.1621
    113  C          7.4740  -20.9790  153.4700 C.2   200  HIS200      0.2264
    114  O          8.6320  -20.9550  153.8220 O.2   200  HIS200     -0.2867
    115  CB         6.2150  -18.7580  153.6740 C.3   200  HIS200      0.0745
    116  CG         7.1290  -18.2320  154.7210 C.ar  200  HIS200      0.0817
    117  ND1        7.7690  -17.0230  154.5940 N.ar  200  HIS200     -0.2268
    118  CD2        7.5010  -18.7320  155.9210 C.ar  200  HIS200      0.1154
    119  CE1        8.5300  -16.8120  155.6460 C.ar  200  HIS200      0.1986
    120  NE2        8.3730  -17.8280  156.4760 N.ar  200  HIS200     -0.2212
    121  N         10.1490  -22.2220  151.0210 N.3   203  MET203     -0.1230
    122  CA        11.3300  -21.3740  150.9140 C.3   203  MET203      0.1702
    123  C         12.1530  -21.4170  152.1830 C.2   203  MET203      0.2592
    124  O         13.3730  -21.3770  152.1330 O.2   203  MET203     -0.2718
    125  CB        10.9740  -19.9580  150.4460 C.3   203  MET203      0.0401
    126  CG        10.8180  -18.8500  151.4540 C.3   203  MET203      0.0596
    127  SD        10.3110  -17.3300  150.5670 S.3   203  MET203     -0.1393
    128  CE         8.7120  -17.7280  149.8520 C.3   203  MET203      0.0692
    129  N         11.4910  -21.5940  153.3100 N.am  204  LEU204     -0.1980
    130  CA        12.1940  -21.7930  154.5730 C.3   204  LEU204      0.1596
    131  C         12.9590  -23.1410  154.6090 C.2   204  LEU204      0.2287
    132  O         14.0350  -23.2280  155.2100 O.2   204  LEU204     -0.2864
    133  CB        11.2350  -21.6600  155.7510 C.3   204  LEU204      0.0297
    134  CG        11.6080  -20.7660  156.9250 C.3   204  LEU204      0.0022
    135  CD1       12.1480  -19.3940  156.5540 C.3   204  LEU204      0.0001
    136  CD2       10.3460  -20.5740  157.7310 C.3   204  LEU204      0.0001
    137  N         16.2820  -22.4160  152.3170 N.3   207  TRP207     -0.1241
    138  CA        17.1590  -21.5860  153.1220 C.3   207  TRP207      0.1605
    139  C         17.8990  -22.2890  154.2610 C.2   207  TRP207      0.2264
    140  O         19.0320  -21.9130  154.5650 O.2   207  TRP207     -0.2867
    141  CB        16.3480  -20.4520  153.7440 C.3   207  TRP207      0.0550
    142  CG        16.3300  -19.1860  152.9910 C.ar  207  TRP207      0.0003
    143  CD1       17.3100  -18.6820  152.1750 C.ar  207  TRP207      0.0946
    144  CD2       15.3060  -18.2020  153.0420 C.ar  207  TRP207      0.0152
    145  NE1       16.9370  -17.4600  151.6940 N.ar  207  TRP207     -0.2442
    146  CE2       15.7100  -17.1360  152.2110 C.ar  207  TRP207      0.0810
    147  CE3       14.0770  -18.1180  153.7010 C.ar  207  TRP207      0.0012
    148  CZ2       14.9200  -15.9900  152.0220 C.ar  207  TRP207      0.0191
    149  CZ3       13.2830  -16.9780  153.5120 C.ar  207  TRP207      0.0001
    150  CH2       13.7110  -15.9320  152.6820 C.ar  207  TRP207      0.0015
    151  N         18.7040  -17.3680  161.3040 N.3   214  PHE214     -0.1241
    152  CA        17.5540  -16.5380  161.5450 C.3   214  PHE214      0.1605
    153  C         17.6660  -15.8420  162.8920 C.2   214  PHE214      0.2264
    154  O         18.4170  -16.2480  163.7680 O.2   214  PHE214     -0.2867
    155  CB        16.2960  -17.3920  161.4790 C.3   214  PHE214      0.0534
    156  CG        16.0680  -18.0190  160.1430 C.ar  214  PHE214     -0.0203
    157  CD1       15.9450  -17.2250  158.9980 C.ar  214  PHE214     -0.0042
    158  CD2       15.9920  -19.4030  160.0130 C.ar  214  PHE214     -0.0042
    159  CE1       15.7430  -17.8000  157.7520 C.ar  214  PHE214     -0.0003
    160  CE2       15.7840  -19.9830  158.7750 C.ar  214  PHE214     -0.0003
    161  CZ        15.6680  -19.1790  157.6460 C.ar  214  PHE214     -0.0000
    162  N         12.1720  -14.5600  164.4950 N.3   218  LEU218     -0.1245
    163  CA        11.7780  -15.3470  163.3430 C.3   218  LEU218      0.1561
    164  C         11.7250  -16.8500  163.6430 C.2   218  LEU218      0.2260
    165  O         10.7600  -17.5050  163.2740 O.2   218  LEU218     -0.2867
    166  CB        12.6670  -15.0160  162.1570 C.3   218  LEU218      0.0270
    167  CG        12.4970  -13.5960  161.5630 C.3   218  LEU218      0.0019
    168  CD1       13.3690  -13.4010  160.3260 C.3   218  LEU218      0.0001
    169  CD2       11.0760  -13.2200  161.1840 C.3   218  LEU218      0.0001
    170  N          7.8890  -18.7440  163.6260 N.3   222  TRP222     -0.1241
    171  CA         7.7250  -19.7120  162.5630 C.3   222  TRP222      0.1605
    172  C          8.0520  -21.1360  162.9280 C.2   222  TRP222      0.2264
    173  O          8.0990  -21.9700  162.0380 O.2   222  TRP222     -0.2867
    174  CB         8.5820  -19.2730  161.3870 C.3   222  TRP222      0.0550
    175  CG         8.0820  -18.0660  160.7400 C.ar  222  TRP222      0.0003
    176  CD1        6.8060  -17.6210  160.7050 C.ar  222  TRP222      0.0946
    177  CD2        8.8410  -17.1550  159.9780 C.ar  222  TRP222      0.0152
    178  NE1        6.7300  -16.4470  160.0000 N.ar  222  TRP222     -0.2442
    179  CE2        7.9730  -16.1490  159.5360 C.ar  222  TRP222      0.0810
    180  CE3       10.1780  -17.1050  159.5930 C.ar  222  TRP222      0.0012
    181  CZ2        8.3750  -15.1360  158.7180 C.ar  222  TRP222      0.0191
    182  CZ3       10.5900  -16.0550  158.7910 C.ar  222  TRP222      0.0001
    183  CH2        9.6880  -15.0810  158.3780 C.ar  222  TRP222      0.0015
@<TRIPOS>BOND
     1   101   102    2
     2   101   100    1
     3    86    85    2
     4    91    92    1
     5    99   100    1
     6    93    94    2
     7    93    92    1
     8   100   103    1
     9   103   104    1
    10    85    84    1
    11    92    95    1
    12    77    78    2
    13    77    76    1
    14   106   104   ar
    15   106   108   ar
    16   104   105   ar
    17    95    96    1
    18    84    83    1
    19    84    87    1
    20    75    76    1
    21    76    79    1
    22    79    81    1
    23    79    80    1
    24    87    89    1
    25    87    88    1
    26   108   109   ar
    27    96    97    1
    28   105   107   ar
    29    97    98    1
    30    80    82    1
    31   109   107   ar
    32   109   110    1
    33    88    90    1
    34   128   127    1
    35    72    71    2
    36   125   122    1
    37   125   126    1
    38   127   126    1
    39    66    64   ar
    40    66    68   ar
    41    18    17    1
    42    64    63   ar
    43   122   121    1
    44   122   123    1
    45    71    70    1
    46    74    73    1
    47    19    17    1
    48    68    67   ar
    49    61    60    2
    50    17    16    1
    51     1     2    1
    52   145   143   ar
    53   145   146   ar
    54   111   112    1
    55    63    62    1
    56    63    65   ar
    57   148   146   ar
    58   148   150   ar
    59    62    59    1
    60   124   123    2
    61    73    70    1
    62   143   142   ar
    63   123   129   am
    64   146   144   ar
    65   137   138    1
    66    67    65   ar
    67    70    69    1
    68     5     2    1
    69     5     6    1
    70     2     3    1
    71    60    59    1
    72   150   149   ar
    73   112   113    1
    74   112   115    1
    75    59    58    1
    76   142   144   ar
    77   142   141    1
    78    16    13    1
    79   144   147   ar
    80   138   141    1
    81   138   139    1
    82   129   130    1
    83    33    34    1
    84    33    32    1
    85     7     6   ar
    86     7     9   ar
    87   113   114    2
    88   149   147   ar
    89     6     8   ar
    90   115   116    1
    91    12    13    1
    92     3     4    2
    93    13    14    1
    94    58    52   am
    95   139   140    2
    96     9    11   ar
    97   130   131    1
    98   130   133    1
    99   117   116   ar
   100   117   119   ar
   101   131   132    2
   102    53    52    2
   103     8    10   ar
   104   116   118   ar
   105    52    51    1
   106    32    31    1
   107    14    15    2
   108    14    20   am
   109    49    48   ar
   110    49    47   ar
   111   119   120   ar
   112    11    10   ar
   113    31    28    1
   114   133   134    1
   115   118   120   ar
   116    48    46   ar
   117    55    56    1
   118    55    54    1
   119    20    21    1
   120    56    57    1
   121    51    54    1
   122    51    50    1
   123   135   134    1
   124    47    45   ar
   125   134   136    1
   126    25    24    1
   127    46    45   ar
   128    28    27    1
   129    28    29    1
   130    21    24    1
   131    21    22    1
   132    45    44    1
   133   161   159   ar
   134   161   160   ar
   135    39    36    1
   136    35    29   am
   137    35    36    1
   138   159   157   ar
   139    29    30    2
   140    24    26    1
   141    36    37    1
   142   183   181   ar
   143   183   182   ar
   144    22    23    2
   145   181   179   ar
   146   160   158   ar
   147   182   180   ar
   148    44    41    1
   149   157   156   ar
   150   179   177   ar
   151   179   178   ar
   152   180   177   ar
   153    37    38    2
   154   177   175   ar
   155   178   176   ar
   156   158   156   ar
   157    41    40    1
   158    41    42    1
   159   156   155    1
   160   168   167    1
   161   176   175   ar
   162   175   174    1
   163   169   167    1
   164    42    43    2
   165   151   152    1
   166   174   171    1
   167   155   152    1
   168   152   153    1
   169   167   166    1
   170   173   172    2
   171   166   163    1
   172   171   172    1
   173   171   170    1
   174   153   154    2
   175   165   164    2
   176   163   164    1
   177   163   162    1
