@<TRIPOS>MOLECULE
tmp/5y4pD01.pdb
 117 110 0 0 0
SMALL
GASTEIGER

@<TRIPOS>ATOM
      1  N         -9.1990   23.3490  -12.2350 N.3    10  GLU10      -0.1245
      2  CA        -8.1390   23.9550  -13.0040 C.3    10  GLU10       0.1567
      3  C         -7.2210   24.6670  -12.0190 C.2    10  GLU10       0.2260
      4  O         -7.6490   25.5150  -11.2080 O.2    10  GLU10      -0.2867
      5  CB        -8.7080   24.9110  -14.0360 C.3    10  GLU10       0.0388
      6  CG        -7.7090   25.3280  -15.0990 C.3    10  GLU10       0.1160
      7  CD        -8.3220   26.2160  -16.1660 C.2    10  GLU10       0.3649
      8  OE1       -9.3130   26.9280  -15.8900 O.co2  10  GLU10      -0.2457
      9  OE2       -7.8070   26.2060  -17.2950 O.co2  10  GLU10      -0.2457
     10  N         -9.6380   27.0910   -9.8650 N.3    20  MET20      -0.1245
     11  CA       -10.9870   27.2770  -10.3380 C.3    20  MET20       0.1570
     12  C        -11.5830   25.8950  -10.5640 C.2    20  MET20       0.2261
     13  O        -10.9050   24.9830  -11.0730 O.2    20  MET20      -0.2867
     14  CB       -10.9850   28.1120  -11.6280 C.3    20  MET20       0.0387
     15  CG       -12.3590   28.3690  -12.2670 C.3    20  MET20       0.0595
     16  SD       -13.5910   29.1910  -11.2260 S.3    20  MET20      -0.1393
     17  CE       -13.0070   30.8880  -11.2150 C.3    20  MET20       0.0692
     18  N        -15.2970   23.6090  -11.6920 N.3    22  LEU22      -0.1245
     19  CA       -16.6270   23.4730  -12.3040 C.3    22  LEU22       0.1561
     20  C        -17.1790   22.0870  -12.0480 C.2    22  LEU22       0.2260
     21  O        -16.4880   21.0910  -12.2560 O.2    22  LEU22      -0.2867
     22  CB       -16.5580   23.6640  -13.8220 C.3    22  LEU22       0.0270
     23  CG       -16.2960   25.0070  -14.4960 C.3    22  LEU22       0.0019
     24  CD1      -15.9550   24.7550  -15.9480 C.3    22  LEU22       0.0001
     25  CD2      -17.5030   25.9340  -14.4140 C.3    22  LEU22       0.0001
     26  N        -21.9550   27.9260  -18.5260 N.3    49  TRP49      -0.1241
     27  CA       -20.7930   27.5300  -19.3610 C.3    49  TRP49       0.1605
     28  C        -21.0330   26.6110  -20.5770 C.2    49  TRP49       0.2264
     29  O        -20.2460   26.6390  -21.5580 O.2    49  TRP49      -0.2867
     30  CB       -19.6260   27.0350  -18.4880 C.3    49  TRP49       0.0550
     31  CG       -19.1730   28.0970  -17.5420 C.ar   49  TRP49       0.0003
     32  CD1      -19.4560   28.1780  -16.2010 C.ar   49  TRP49       0.0946
     33  CD2      -18.4170   29.2790  -17.8660 C.ar   49  TRP49       0.0152
     34  NE1      -18.8980   29.3200  -15.6670 N.ar   49  TRP49      -0.2442
     35  CE2      -18.2660   30.0180  -16.6630 C.ar   49  TRP49       0.0810
     36  CE3      -17.8730   29.7970  -19.0610 C.ar   49  TRP49       0.0012
     37  CZ2      -17.5920   31.2300  -16.6170 C.ar   49  TRP49       0.0191
     38  CZ3      -17.1980   30.9920  -19.0130 C.ar   49  TRP49       0.0001
     39  CH2      -17.0600   31.6990  -17.7960 C.ar   49  TRP49       0.0015
     40  N         -8.4390   24.6610  -19.4890 N.3    59  ILE59      -0.1231
     41  CA        -9.6490   24.9490  -20.2760 C.3    59  ILE59       0.1692
     42  C         -9.2890   25.8230  -21.4840 C.2    59  ILE59       0.2591
     43  O         -8.5900   26.8280  -21.3540 O.2    59  ILE59      -0.2718
     44  CB       -10.7570   25.6070  -19.4010 C.3    59  ILE59       0.0266
     45  CG1      -11.3440   24.5850  -18.4040 C.3    59  ILE59       0.0019
     46  CG2      -11.8760   26.2200  -20.2540 C.3    59  ILE59       0.0020
     47  CD1      -12.0040   25.1990  -17.1850 C.3    59  ILE59       0.0001
     48  N         -9.7800   25.4230  -22.6520 N.am   60  GLN60      -0.1979
     49  CA        -9.4780   26.0760  -23.9190 C.3    60  GLN60       0.1601
     50  C        -10.6890   26.7560  -24.5220 C.2    60  GLN60       0.2287
     51  O        -10.5630   27.8150  -25.1050 O.2    60  GLN60      -0.2864
     52  CB        -8.9970   25.0210  -24.9270 C.3    60  GLN60       0.0394
     53  CG        -7.7660   24.2520  -24.4870 C.3    60  GLN60       0.0908
     54  CD        -6.5020   25.0720  -24.6090 C.2    60  GLN60       0.2608
     55  OE1       -6.1040   25.4650  -25.7150 O.2    60  GLN60      -0.2717
     56  NE2       -5.8500   25.3220  -23.4770 N.am   60  GLN60      -0.0878
     57  N        -15.2320   27.0820  -24.0460 N.3    62  THR62      -0.1218
     58  CA       -16.5490   26.8500  -23.4380 C.3    62  THR62       0.1862
     59  C        -17.5880   27.4140  -24.4070 C.2    62  THR62       0.2287
     60  O        -17.2680   28.3510  -25.1440 O.2    62  THR62      -0.2866
     61  CB       -16.7200   27.4930  -22.0160 C.3    62  THR62       0.1770
     62  OG1      -16.9560   28.9040  -22.1200 O.3    62  THR62      -0.2211
     63  CG2      -15.5100   27.2240  -21.0840 C.3    62  THR62       0.0375
     64  N        -18.1110   31.5380  -23.5520 N.3    65  ASP65      -0.1239
     65  CA       -17.1390   32.6140  -23.8030 C.3    65  ASP65       0.1674
     66  C        -16.3470   32.5930  -25.1310 C.2    65  ASP65       0.2266
     67  O        -15.6480   33.5580  -25.4340 O.2    65  ASP65      -0.2867
     68  CB       -16.1810   32.7680  -22.6120 C.3    65  ASP65       0.1410
     69  CG       -15.2180   31.6100  -22.4510 C.2    65  ASP65       0.3668
     70  OD1      -15.2480   30.6450  -23.2480 O.co2  65  ASP65      -0.2456
     71  OD2      -14.3940   31.6710  -21.5080 O.co2  65  ASP65      -0.2456
     72  N        -12.6820   35.4130  -27.5620 N.3    69  TYR69      -0.1241
     73  CA       -11.3480   35.2190  -28.1150 C.3    69  TYR69       0.1605
     74  C        -11.3440   34.9240  -29.6240 C.2    69  TYR69       0.2264
     75  O        -10.4000   35.2830  -30.3000 O.2    69  TYR69      -0.2867
     76  CB       -10.5170   34.1910  -27.3070 C.3    69  TYR69       0.0534
     77  CG       -11.3100   33.0480  -26.7270 C.ar   69  TYR69      -0.0201
     78  CD1      -11.5110   31.8570  -27.4590 C.ar   69  TYR69      -0.0009
     79  CD2      -11.8810   33.1520  -25.4480 C.ar   69  TYR69      -0.0009
     80  CE1      -12.2380   30.7950  -26.9180 C.ar   69  TYR69       0.0417
     81  CE2      -12.6180   32.1070  -24.9000 C.ar   69  TYR69       0.0417
     82  CZ       -12.7920   30.9270  -25.6180 C.ar   69  TYR69       0.1957
     83  OH       -13.5460   29.8910  -25.0460 O.3    69  TYR69      -0.2866
     84  N        -13.1530   38.9120  -20.6450 N.3   218  VAL218     -0.1245
     85  CA       -13.6420   37.5270  -20.5710 C.3   218  VAL218      0.1561
     86  C        -14.4250   37.3110  -19.2710 C.2   218  VAL218      0.2260
     87  O        -14.1430   38.0010  -18.2890 O.2   218  VAL218     -0.2867
     88  CB       -12.4590   36.5270  -20.5940 C.3   218  VAL218      0.0252
     89  CG1      -11.9840   36.3040  -22.0200 C.3   218  VAL218      0.0019
     90  CG2      -11.3080   37.0000  -19.6910 C.3   218  VAL218      0.0019
     91  N        -14.3630   34.7890  -17.1080 N.3   220  THR220     -0.1203
     92  CA       -13.3540   34.3520  -16.1040 C.3   220  THR220      0.1994
     93  C        -12.1080   33.7720  -16.7920 C.2   220  THR220      0.2617
     94  O        -12.2030   33.2560  -17.9170 O.2   220  THR220     -0.2717
     95  CB       -13.8920   33.2970  -15.0950 C.3   220  THR220      0.1784
     96  OG1      -14.9380   32.5380  -15.6940 O.3   220  THR220     -0.2211
     97  CG2      -14.4570   33.9440  -13.8540 C.3   220  THR220      0.0376
     98  N        -10.9530   33.8560  -16.1210 N.am  221  TYR221     -0.1975
     99  CA        -9.7170   33.2500  -16.6080 C.3   221  TYR221      0.1639
    100  C         -8.7870   32.8020  -15.4630 C.2   221  TYR221      0.2290
    101  O         -7.9030   33.5380  -15.0130 O.2   221  TYR221     -0.2864
    102  CB        -9.0270   34.1890  -17.6160 C.3   221  TYR221      0.0560
    103  CG        -7.6960   33.7090  -18.1440 C.ar  221  TYR221     -0.0198
    104  CD1       -7.4990   32.3690  -18.5170 C.ar  221  TYR221     -0.0009
    105  CD2       -6.6260   34.5990  -18.2860 C.ar  221  TYR221     -0.0009
    106  CE1       -6.2710   31.9310  -18.9990 C.ar  221  TYR221      0.0417
    107  CE2       -5.3930   34.1710  -18.7780 C.ar  221  TYR221      0.0417
    108  CZ        -5.2250   32.8380  -19.1310 C.ar  221  TYR221      0.1957
    109  OH        -4.0190   32.4040  -19.6150 O.3   221  TYR221     -0.2866
    110  N         -6.4490   37.0240  -20.6650 N.3   222  ILE222     -0.1245
    111  CA        -5.9880   36.6540  -22.0040 C.3   222  ILE222      0.1561
    112  C         -5.8640   37.8650  -22.9410 C.2   222  ILE222      0.2260
    113  O         -6.6330   38.8310  -22.8410 O.2   222  ILE222     -0.2867
    114  CB        -6.8410   35.5050  -22.6060 C.3   222  ILE222      0.0252
    115  CG1       -6.2460   34.9640  -23.9270 C.3   222  ILE222      0.0019
    116  CG2       -8.3020   35.9050  -22.7650 C.3   222  ILE222      0.0019
    117  CD1       -5.0880   33.9880  -23.7600 C.3   222  ILE222      0.0001
@<TRIPOS>BOND
     1    75    74    2
     2    74    73    1
     3    73    72    1
     4    73    76    1
     5    78    80   ar
     6    78    77   ar
     7    76    77    1
     8    80    82   ar
     9    77    79   ar
    10    55    54    2
    11    82    83    1
    12    82    81   ar
    13    79    81   ar
    14    67    66    2
    15    60    59    2
    16    66    65    1
    17    51    50    2
    18    52    53    1
    19    52    49    1
    20    54    53    1
    21    54    56   am
    22    50    49    1
    23    59    58    1
    24    57    58    1
    25   115   117    1
    26   115   114    1
    27    49    48    1
    28    65    64    1
    29    65    68    1
    30    58    61    1
    31    70    69   ar
    32   112   113    2
    33   112   111    1
    34   116   114    1
    35    48    42   am
    36    68    69    1
    37   114   111    1
    38    69    71   ar
    39    62    61    1
    40    89    88    1
    41    61    63    1
    42   111   110    1
    43    29    28    2
    44    42    43    2
    45    42    41    1
    46    84    85    1
    47    88    85    1
    48    88    90    1
    49    28    27    1
    50    85    86    1
    51    41    40    1
    52    41    44    1
    53    46    44    1
    54   109   108    1
    55    44    45    1
    56    27    26    1
    57    27    30    1
    58    86    87    2
    59   108   106   ar
    60   108   107   ar
    61    36    38   ar
    62    36    33   ar
    63    38    39   ar
    64   106   104   ar
    65   107   105   ar
    66   104   103   ar
    67    30    31    1
    68    45    47    1
    69   105   103   ar
    70   103   102    1
    71    94    93    2
    72    33    31   ar
    73    33    35   ar
    74    39    37   ar
    75   102    99    1
    76    31    32   ar
    77     9     7   ar
    78    91    92    1
    79    93    98   am
    80    93    92    1
    81    35    37   ar
    82    35    34   ar
    83    99    98    1
    84    99   100    1
    85    32    34   ar
    86     7     8   ar
    87     7     6    1
    88    92    95    1
    89    24    23    1
    90    96    95    1
    91   100   101    2
    92     6     5    1
    93    95    97    1
    94    23    25    1
    95    23    22    1
    96     5     2    1
    97    22    19    1
    98     2     1    1
    99     2     3    1
   100    19    20    1
   101    19    18    1
   102    15    14    1
   103    15    16    1
   104    21    20    2
   105     3     4    2
   106    14    11    1
   107    16    17    1
   108    13    12    2
   109    12    11    1
   110    11    10    1
