@<TRIPOS>MOLECULE
tmp/5y4qA01.pdb
 162 153 0 0 0
SMALL
GASTEIGER

@<TRIPOS>ATOM
      1  N         15.1530  -35.0890    2.0880 N.3     5  GLU5       -0.1245
      2  CA        16.1200  -34.0860    2.4670 C.3     5  GLU5        0.1567
      3  C         17.0210  -34.6750    3.5230 C.2     5  GLU5        0.2260
      4  O         16.5510  -35.1720    4.5570 O.2     5  GLU5       -0.2867
      5  CB        15.3510  -32.9060    3.0500 C.3     5  GLU5        0.0388
      6  CG        16.0830  -31.5840    3.1450 C.3     5  GLU5        0.1160
      7  CD        15.1540  -30.4970    3.6560 C.2     5  GLU5        0.3649
      8  OE1       14.1380  -30.8370    4.3000 O.co2   5  GLU5       -0.2457
      9  OE2       15.4440  -29.3130    3.4350 O.co2   5  GLU5       -0.2457
     10  N         14.4040  -36.3450    6.2930 N.3    15  MET15      -0.1245
     11  CA        13.0630  -35.8110    6.3280 C.3    15  MET15       0.1570
     12  C         12.4990  -35.9450    4.9070 C.2    15  MET15       0.2261
     13  O         13.1660  -35.5490    3.9370 O.2    15  MET15      -0.2867
     14  CB        13.1290  -34.3340    6.7430 C.3    15  MET15       0.0387
     15  CG        12.0840  -33.8550    7.7430 C.3    15  MET15       0.0595
     16  SD        10.3810  -34.3900    7.5070 S.3    15  MET15      -0.1393
     17  CE         9.9650  -33.5200    5.9870 C.3    15  MET15       0.0692
     18  N          9.0220  -35.5480    2.1740 N.3    17  LEU17      -0.1245
     19  CA         7.6710  -35.1390    1.8030 C.3    17  LEU17       0.1561
     20  C          7.2100  -35.8310    0.5310 C.2    17  LEU17       0.2260
     21  O          7.9440  -35.8800   -0.4430 O.2    17  LEU17      -0.2867
     22  CB         7.5890  -33.6240    1.5960 C.3    17  LEU17       0.0270
     23  CG         7.7530  -32.6890    2.8010 C.3    17  LEU17       0.0019
     24  CD1        7.7770  -31.2470    2.3100 C.3    17  LEU17       0.0001
     25  CD2        6.6320  -32.8750    3.8210 C.3    17  LEU17       0.0001
     26  N          1.4960  -28.5260    4.0850 N.3    44  TRP44      -0.1241
     27  CA         2.6350  -27.7360    3.5090 C.3    44  TRP44       0.1605
     28  C          2.3620  -26.8730    2.2650 C.2    44  TRP44       0.2264
     29  O          2.9620  -25.7840    2.1140 O.2    44  TRP44      -0.2867
     30  CB         3.8580  -28.6220    3.2950 C.3    44  TRP44       0.0550
     31  CG         4.2370  -29.2620    4.5650 C.ar   44  TRP44       0.0003
     32  CD1        3.9740  -30.5470    4.9450 C.ar   44  TRP44       0.0946
     33  CD2        4.9010  -28.6270    5.6930 C.ar   44  TRP44       0.0152
     34  NE1        4.4610  -30.7630    6.2230 N.ar   44  TRP44      -0.2442
     35  CE2        5.0270  -29.6060    6.7030 C.ar   44  TRP44       0.0810
     36  CE3        5.4180  -27.3320    5.9260 C.ar   44  TRP44       0.0012
     37  CZ2        5.6360  -29.3370    7.9460 C.ar   44  TRP44       0.0191
     38  CZ3        6.0250  -27.0530    7.1860 C.ar   44  TRP44       0.0001
     39  CH2        6.1130  -28.0560    8.1690 C.ar   44  TRP44       0.0015
     40  N         14.8960  -27.5500    1.3960 N.3    54  ILE54      -0.1231
     41  CA        13.6620  -26.7490    1.4020 C.3    54  ILE54       0.1692
     42  C         13.9310  -25.3500    1.9430 C.2    54  ILE54       0.2591
     43  O         14.5700  -25.2090    2.9930 O.2    54  ILE54      -0.2718
     44  CB        12.5180  -27.4610    2.1660 C.3    54  ILE54       0.0266
     45  CG1       12.0940  -28.7300    1.3900 C.3    54  ILE54       0.0019
     46  CG2       11.3340  -26.5210    2.3910 C.3    54  ILE54       0.0020
     47  CD1       11.5060  -29.8590    2.2200 C.3    54  ILE54       0.0001
     48  N         13.4290  -24.3380    1.2290 N.am   55  GLN55      -0.1979
     49  CA        13.6520  -22.9350    1.5850 C.3    55  GLN55       0.1601
     50  C         12.3600  -22.1900    1.8490 C.2    55  GLN55       0.2287
     51  O         12.3560  -21.2010    2.5710 O.2    55  GLN55      -0.2864
     52  CB        14.4790  -22.1990    0.5030 C.3    55  GLN55       0.0394
     53  CG        15.9780  -22.5680    0.4410 C.3    55  GLN55       0.0908
     54  CD        16.7320  -22.5220    1.7780 C.2    55  GLN55       0.2608
     55  OE1       16.4390  -21.7180    2.6650 O.2    55  GLN55      -0.2717
     56  NE2       17.7240  -23.3980    1.9170 N.am   55  GLN55      -0.0878
     57  N          7.8790  -22.9230    2.0870 N.3    57  THR57      -0.1218
     58  CA         6.6030  -23.6540    1.9150 C.3    57  THR57       0.1862
     59  C          5.5380  -22.6330    2.1830 C.2    57  THR57       0.2287
     60  O          5.8140  -21.6740    2.9040 O.2    57  THR57      -0.2866
     61  CB         6.4030  -24.8530    2.8790 C.3    57  THR57       0.1770
     62  OG1        6.0570  -24.3920    4.1980 O.3    57  THR57      -0.2211
     63  CG2        7.6000  -25.7320    2.9350 C.3    57  THR57       0.0375
     64  N          4.5990  -22.5020    6.3320 N.3    60  ASP60      -0.1239
     65  CA         5.4600  -21.9080    7.3850 C.3    60  ASP60       0.1674
     66  C          6.1790  -20.6100    7.0180 C.2    60  ASP60       0.2266
     67  O          6.8580  -20.0200    7.8740 O.2    60  ASP60      -0.2867
     68  CB         6.4890  -22.9400    7.9270 C.3    60  ASP60       0.1410
     69  CG         7.4850  -23.4700    6.8600 C.2    60  ASP60       0.3668
     70  OD1        7.5740  -22.9810    5.7100 O.co2  60  ASP60      -0.2456
     71  OD2        8.2300  -24.4180    7.1990 O.co2  60  ASP60      -0.2456
     72  N          9.7180  -17.2270    9.1910 N.3    64  TYR64      -0.1241
     73  CA        11.0510  -16.6800    8.9330 C.3    64  TYR64       0.1605
     74  C         10.9350  -15.3100    8.2920 C.2    64  TYR64       0.2264
     75  O         11.7400  -14.4290    8.5990 O.2    64  TYR64      -0.2867
     76  CB        11.9570  -17.6010    8.0790 C.3    64  TYR64       0.0534
     77  CG        11.2490  -18.5870    7.1570 C.ar   64  TYR64      -0.0201
     78  CD1       10.6830  -19.7770    7.6680 C.ar   64  TYR64      -0.0009
     79  CD2       11.1580  -18.3490    5.7640 C.ar   64  TYR64      -0.0009
     80  CE1       10.0410  -20.6800    6.8360 C.ar   64  TYR64       0.0417
     81  CE2       10.5340  -19.2530    4.9170 C.ar   64  TYR64       0.0417
     82  CZ         9.9850  -20.4220    5.4470 C.ar   64  TYR64       0.1957
     83  OH         9.3650  -21.3270    4.6270 O.3    64  TYR64      -0.2866
     84  N         12.6860  -12.1180   10.2340 N.3    68  LEU68      -0.1245
     85  CA        13.7220  -11.3150    9.5580 C.3    68  LEU68       0.1561
     86  C         13.2740   -9.8680    9.2710 C.2    68  LEU68       0.2260
     87  O         14.0060   -8.9320    9.5630 O.2    68  LEU68      -0.2867
     88  CB        14.2220  -11.9630    8.2590 C.3    68  LEU68       0.0270
     89  CG        15.1050  -13.2060    8.3230 C.3    68  LEU68       0.0019
     90  CD1       15.5570  -13.6640    6.9310 C.3    68  LEU68       0.0001
     91  CD2       16.3190  -12.9410    9.1820 C.3    68  LEU68       0.0001
     92  N         19.1150  -12.7660    3.4030 N.3   159  ASP159     -0.1225
     93  CA        18.1640  -13.8690    3.3780 C.3   159  ASP159      0.1805
     94  C         18.6460  -14.9090    2.3720 C.2   159  ASP159      0.2598
     95  O         18.0520  -15.0950    1.3290 O.2   159  ASP159     -0.2718
     96  CB        16.7650  -13.3210    3.0520 C.3   159  ASP159      0.1424
     97  CG        15.6870  -14.4000    3.0280 C.2   159  ASP159      0.3668
     98  OD1       15.8030  -15.3930    3.7750 O.co2 159  ASP159     -0.2456
     99  OD2       14.7070  -14.2340    2.2650 O.co2 159  ASP159     -0.2456
    100  N         19.7410  -15.5890    2.6900 N.am  160  THR160     -0.1953
    101  CA        20.3830  -16.4770    1.7230 C.3   160  THR160      0.1897
    102  C         20.2610  -17.9610    2.1010 C.2   160  THR160      0.2313
    103  O         19.5500  -18.3160    3.0420 O.2   160  THR160     -0.2863
    104  CB        21.8550  -16.0910    1.4670 C.3   160  THR160      0.1794
    105  OG1       22.5730  -16.1290    2.7060 O.3   160  THR160     -0.2208
    106  CG2       21.9400  -14.7090    0.8700 C.3   160  THR160      0.0378
    107  N         20.0640  -14.7960    7.9920 N.3   180  GLN180     -0.1245
    108  CA        19.6110  -16.1710    8.2520 C.3   180  GLN180      0.1566
    109  C         20.7530  -16.8230    9.0290 C.2   180  GLN180      0.2260
    110  O         21.8480  -17.0220    8.4810 O.2   180  GLN180     -0.2867
    111  CB        19.3440  -16.8710    6.9120 C.3   180  GLN180      0.0367
    112  CG        18.7370  -18.2740    6.9500 C.3   180  GLN180      0.0905
    113  CD        19.7740  -19.3860    6.8080 C.2   180  GLN180      0.2608
    114  OE1       20.1020  -19.8110    5.6950 O.2   180  GLN180     -0.2717
    115  NE2       20.3000  -19.8570    7.9360 N.am  180  GLN180     -0.0878
    116  N          9.7280  -22.9280   14.2590 N.3   213  VAL213     -0.1245
    117  CA         9.2770  -23.3660   12.9520 C.3   213  VAL213      0.1561
    118  C          8.5800  -24.7530   13.1310 C.2   213  VAL213      0.2260
    119  O          8.9510  -25.4960   14.0450 O.2   213  VAL213     -0.2867
    120  CB        10.4660  -23.3190   11.9620 C.3   213  VAL213      0.0252
    121  CG1       10.1330  -23.9320   10.6240 C.3   213  VAL213      0.0019
    122  CG2       10.8670  -21.8750   11.7050 C.3   213  VAL213      0.0019
    123  N          8.7650  -27.4760   11.2880 N.3   215  THR215     -0.1203
    124  CA         9.8160  -28.5040   11.0800 C.3   215  THR215      0.1994
    125  C         11.1430  -27.9010   10.5560 C.2   215  THR215      0.2618
    126  O         11.1410  -27.0400    9.6610 O.2   215  THR215     -0.2717
    127  CB         9.3230  -29.6850   10.1660 C.3   215  THR215      0.1784
    128  OG1        8.2250  -30.3720   10.7910 O.3   215  THR215     -0.2211
    129  CG2       10.4490  -30.6980    9.8870 C.3   215  THR215      0.0376
    130  N         12.2660  -28.3650   11.1250 N.am  216  TYR216     -0.1962
    131  CA        13.5970  -28.0120   10.6290 C.3   216  TYR216      0.1756
    132  C         14.6480  -29.1220   10.9210 C.2   216  TYR216      0.2461
    133  O         15.3330  -29.0890   11.9580 O.2   216  TYR216     -0.2730
    134  CB        14.0210  -26.6320   11.1560 C.3   216  TYR216      0.0574
    135  CG        15.0530  -25.9120   10.3100 C.ar  216  TYR216     -0.0198
    136  CD1       14.7090  -25.2980    9.0910 C.ar  216  TYR216     -0.0009
    137  CD2       16.3770  -25.8220   10.7400 C.ar  216  TYR216     -0.0009
    138  CE1       15.6730  -24.6330    8.3190 C.ar  216  TYR216      0.0417
    139  CE2       17.3360  -25.1480    9.9950 C.ar  216  TYR216      0.0417
    140  CZ        16.9920  -24.5590    8.7870 C.ar  216  TYR216      0.1957
    141  OH        17.9740  -23.9030    8.0740 O.3   216  TYR216     -0.2866
    142  N         14.7960  -30.0890    9.9790 N.am  217  PRO217     -0.2716
    143  CA        15.6270  -31.3090   10.1330 C.3   217  PRO217      0.1536
    144  C         17.0850  -30.9650   10.3990 C.2   217  PRO217      0.2598
    145  O         17.8370  -31.7830   10.9300 O.2   217  PRO217     -0.2715
    146  CB        15.5040  -32.0180    8.7690 C.3   217  PRO217      0.0310
    147  CG        14.4500  -31.2890    8.0110 C.3   217  PRO217      0.0237
    148  CD        14.3520  -29.9140    8.5810 C.3   217  PRO217      0.0939
    149  N         17.4490  -29.7390   10.0370 N.am  218  CYS218     -0.1968
    150  CA        18.7750  -29.1710   10.2650 C.3   218  CYS218      0.1712
    151  C         18.9870  -28.5900   11.6960 C.2   218  CYS218      0.2296
    152  O         20.0640  -28.0670   12.0060 O.2   218  CYS218     -0.2864
    153  CB        19.0690  -28.1570    9.1490 C.3   218  CYS218      0.0983
    154  SG        17.6620  -27.9510    8.0120 S.3   218  CYS218     -0.0798
    155  N         16.2720  -22.7610   13.3660 N.3   221  ILE221     -0.1245
    156  CA        16.6770  -21.6290   12.5410 C.3   221  ILE221      0.1561
    157  C         16.6600  -20.3780   13.3840 C.2   221  ILE221      0.2260
    158  O         15.7630  -20.1960   14.2130 O.2   221  ILE221     -0.2867
    159  CB        15.8880  -21.5250   11.2000 C.3   221  ILE221      0.0252
    160  CG1       16.4430  -20.4150   10.2950 C.3   221  ILE221      0.0019
    161  CG2       14.4030  -21.3190   11.4090 C.3   221  ILE221      0.0019
    162  CD1       17.5750  -20.8710    9.4000 C.3   221  ILE221      0.0001
@<TRIPOS>BOND
     1    21    20    2
     2    53    52    1
     3    53    54    1
     4    52    49    1
     5    20    19    1
     6   106   104    1
     7    48    49    1
     8    48    42   am
     9    95    94    2
    10    45    44    1
    11    45    47    1
    12    40    41    1
    13    41    42    1
    14    41    44    1
    15   104   101    1
    16   104   105    1
    17    49    50    1
    18    22    19    1
    19    22    23    1
    20   101   102    1
    21   101   100    1
    22    54    56   am
    23    54    55    2
    24    19    18    1
    25    50    51    2
    26    58    57    1
    27    58    59    1
    28    58    61    1
    29    42    43    2
    30     1     2    1
    31   102   103    2
    32    29    28    2
    33    44    46    1
    34    59    60    2
    35    99    97   ar
    36    28    27    1
    37    24    23    1
    38    94   100   am
    39    94    93    1
    40     2     5    1
    41     2     3    1
    42    23    25    1
    43    61    63    1
    44    61    62    1
    45    97    96    1
    46    97    98   ar
    47     5     6    1
    48    96    93    1
    49     6     7    1
    50    30    27    1
    51    30    31    1
    52    93    92    1
    53     9     7   ar
    54    27    26    1
    55     3     4    2
    56     7     8   ar
    57    13    12    2
    58    31    32   ar
    59    31    33   ar
    60    83    82    1
    61    12    11    1
    62    81    82   ar
    63    81    79   ar
    64    32    34   ar
    65    82    80   ar
    66    33    36   ar
    67    33    35   ar
    68   114   113    2
    69    70    69   ar
    70    79    77   ar
    71    36    38   ar
    72    17    16    1
    73    34    35   ar
    74    10    11    1
    75    11    14    1
    76    64    65    1
    77    35    37   ar
    78    14    15    1
    79   113   112    1
    80   113   115   am
    81    80    78   ar
    82    69    71   ar
    83    69    68    1
    84   111   112    1
    85   111   108    1
    86    90    89    1
    87    66    65    1
    88    66    67    2
    89    77    78   ar
    90    77    76    1
    91    38    39   ar
    92    65    68    1
    93    16    15    1
    94    37    39   ar
    95   107   108    1
    96   147   148    1
    97   147   146    1
    98   154   153    1
    99   141   140    1
   100    76    73    1
   101   108   109    1
   102    88    89    1
   103    88    85    1
   104    74    75    2
   105    74    73    1
   106   138   140   ar
   107   138   136   ar
   108    89    91    1
   109   110   109    2
   110   148   142    1
   111   146   143    1
   112   140   139   ar
   113    73    72    1
   114   136   135   ar
   115   153   150    1
   116    86    85    1
   117    86    87    2
   118   162   160    1
   119    85    84    1
   120   126   125    2
   121   129   127    1
   122   142   143    1
   123   142   132   am
   124   139   137   ar
   125   149   150    1
   126   149   144   am
   127   143   144    1
   128   127   128    1
   129   127   124    1
   130   150   151    1
   131   160   159    1
   132   135   137   ar
   133   135   134    1
   134   144   145    2
   135   125   124    1
   136   125   130   am
   137   121   120    1
   138   131   132    1
   139   131   130    1
   140   131   134    1
   141   132   133    2
   142   124   123    1
   143   159   161    1
   144   159   156    1
   145   151   152    2
   146   122   120    1
   147   120   117    1
   148   156   155    1
   149   156   157    1
   150   117   118    1
   151   117   116    1
   152   118   119    2
   153   157   158    2
