@<TRIPOS>MOLECULE
tmp/5y4zA00.pdb
 127 120 0 0 0
SMALL
GASTEIGER

@<TRIPOS>ATOM
      1  N          3.4540  -20.6030  -22.5060 N.3    19  PRO19      -0.2102
      2  CA         4.6490  -19.7720  -22.7280 C.3    19  PRO19       0.1504
      3  C          4.6890  -19.1970  -24.1440 C.2    19  PRO19       0.2576
      4  O          4.3330  -19.8910  -25.0990 O.2    19  PRO19      -0.2718
      5  CB         5.8110  -20.7500  -22.4970 C.3    19  PRO19       0.0282
      6  CG         5.2380  -21.8040  -21.6070 C.3    19  PRO19       0.0208
      7  CD         3.8140  -21.9590  -22.0450 C.3    19  PRO19       0.0893
      8  N          5.0850  -17.9330  -24.2640 N.am   20  GLY20      -0.1943
      9  CA         5.1610  -17.2750  -25.5540 C.3    20  GLY20       0.2014
     10  C          3.8490  -16.7200  -26.0930 C.2    20  GLY20       0.2639
     11  O          3.8410  -16.0500  -27.1230 O.2    20  GLY20      -0.2714
     12  N          2.7380  -16.9850  -25.4080 N.am   21  ALA21      -0.1963
     13  CA         1.4230  -16.5850  -25.9240 C.3    21  ALA21       0.1728
     14  C          1.2360  -15.0670  -26.0100 C.2    21  ALA21       0.2617
     15  O          0.3730  -14.5930  -26.7570 O.2    21  ALA21      -0.2715
     16  CB         0.3230  -17.1880  -25.0810 C.3    21  ALA21       0.0334
     17  N          2.0180  -14.3090  -25.2400 N.am   22  GLY22      -0.1940
     18  CA         2.0090  -12.8590  -25.3420 C.3    22  GLY22       0.2014
     19  C          1.5680  -12.1240  -24.0870 C.2    22  GLY22       0.2639
     20  O          1.1370  -10.9720  -24.1510 O.2    22  GLY22      -0.2714
     21  N          1.6840  -12.7800  -22.9390 N.am   23  LYS23      -0.1963
     22  CA         1.2550  -12.1770  -21.6790 C.3    23  LYS23       0.1728
     23  C          2.0240  -10.8800  -21.3850 C.2    23  LYS23       0.2617
     24  O          1.4220   -9.8330  -21.1200 O.2    23  LYS23      -0.2715
     25  CB         1.4190  -13.1890  -20.5360 C.3    23  LYS23       0.0311
     26  CG         0.5460  -14.4360  -20.7050 C.3    23  LYS23       0.0038
     27  CD         0.7250  -15.4460  -19.5740 C.3    23  LYS23       0.0206
     28  CE         2.1200  -16.0620  -19.5500 C.3    23  LYS23       0.1093
     29  NZ         2.4330  -16.7970  -20.7990 N.3    23  LYS23      -0.1314
     30  N          3.3500  -10.9360  -21.4630 N.am   24  THR24      -0.1937
     31  CA         4.1780   -9.7830  -21.1110 C.3    24  THR24       0.2028
     32  C          4.1480   -8.6580  -22.1450 C.2    24  THR24       0.2642
     33  O          4.0890   -7.4860  -21.7730 O.2    24  THR24      -0.2714
     34  CB         5.6420  -10.2070  -20.8830 C.3    24  THR24       0.1808
     35  OG1        5.7010  -11.1190  -19.7850 O.3    24  THR24      -0.2208
     36  CG2        6.5160   -8.9990  -20.5630 C.3    24  THR24       0.0379
     37  N          4.1730   -9.0030  -23.4320 N.am   25  ARG25      -0.1977
     38  CA         4.2770   -7.9970  -24.4990 C.3    25  ARG25       0.1597
     39  C          2.9380   -7.5130  -25.0740 C.2    25  ARG25       0.2287
     40  O          2.8540   -6.3950  -25.5850 O.2    25  ARG25      -0.2864
     41  CB         5.1270   -8.5430  -25.6500 C.3    25  ARG25       0.0334
     42  CG         6.5920   -8.7540  -25.3140 C.3    25  ARG25       0.0492
     43  CD         7.3170   -9.4390  -26.4670 C.3    25  ARG25       0.2205
     44  NE         8.4220   -8.6330  -26.9810 N.pl3  25  ARG25      -0.0865
     45  CZ         8.2840   -7.6570  -27.8730 C.cat  25  ARG25       0.5346
     46  NH1        7.0850   -7.3620  -28.3590 N.pl3  25  ARG25       0.1354
     47  NH2        9.3440   -6.9740  -28.2800 N.pl3  25  ARG25       0.1354
     48  N          5.5730  -12.8600  -14.4120 N.3   109  GLU109     -0.1245
     49  CA         6.3260  -14.0580  -14.0260 C.3   109  GLU109      0.1567
     50  C          6.0730  -14.4050  -12.5690 C.2   109  GLU109      0.2260
     51  O          6.9980  -14.5270  -11.7590 O.2   109  GLU109     -0.2867
     52  CB         7.8130  -13.8750  -14.3240 C.3   109  GLU109      0.0388
     53  CG         8.0560  -13.2340  -15.6880 C.3   109  GLU109      0.1160
     54  CD         7.3930  -13.9470  -16.8760 C.2   109  GLU109      0.3649
     55  OE1        6.5810  -14.9020  -16.7360 O.co2 109  GLU109     -0.2457
     56  OE2        7.6920  -13.5000  -18.0010 O.co2 109  GLU109     -0.2457
     57  N          2.7820  -18.5200  -17.1810 N.3   140  ALA140     -0.1245
     58  CA         2.4020  -19.7390  -17.8890 C.3   140  ALA140      0.1562
     59  C          2.2680  -20.9580  -16.9620 C.2   140  ALA140      0.2260
     60  O          1.6490  -21.9620  -17.3220 O.2   140  ALA140     -0.2867
     61  CB         3.4130  -20.0410  -18.9850 C.3   140  ALA140      0.0290
     62  N          4.2130  -21.7290  -29.2810 N.3   153  ASN153     -0.1240
     63  CA         3.8800  -21.0440  -30.5300 C.3   153  ASN153      0.1653
     64  C          4.2090  -21.8790  -31.7610 C.2   153  ASN153      0.2266
     65  O          3.5610  -21.7450  -32.8020 O.2   153  ASN153     -0.2867
     66  CB         4.5880  -19.6970  -30.5990 C.3   153  ASN153      0.1155
     67  CG         4.0480  -18.7140  -29.5770 C.2   153  ASN153      0.2627
     68  OD1        2.9540  -18.9000  -29.0480 O.2   153  ASN153     -0.2716
     69  ND2        4.8070  -17.6660  -29.3020 N.am  153  ASN153     -0.0877
     70  N         11.1870  -15.2770  -17.5490 N.3   238  GLY238     -0.1225
     71  CA        10.9720  -14.3870  -18.6760 C.3   238  GLY238      0.1811
     72  C         12.2110  -13.9810  -19.4570 C.2   238  GLY238      0.2280
     73  O         12.2060  -12.9490  -20.1350 O.2   238  GLY238     -0.2866
     74  N         14.6090  -13.9960  -22.4510 N.3   240  ASN240     -0.1240
     75  CA        14.4500  -14.2290  -23.8810 C.3   240  ASN240      0.1653
     76  C         15.7820  -14.5170  -24.5740 C.2   240  ASN240      0.2266
     77  O         16.7130  -13.7130  -24.5030 O.2   240  ASN240     -0.2867
     78  CB        13.7860  -13.0090  -24.5310 C.3   240  ASN240      0.1155
     79  CG        12.3920  -12.7440  -23.9860 C.2   240  ASN240      0.2627
     80  OD1       11.5920  -13.6700  -23.8230 O.2   240  ASN240     -0.2716
     81  ND2       12.0950  -11.4810  -23.6910 N.am  240  ASN240     -0.0877
     82  N          8.8930  -23.9910  -17.7750 N.3   278  GLN278     -0.1245
     83  CA         9.5150  -22.7030  -18.0470 C.3   278  GLN278      0.1566
     84  C         10.8590  -22.8460  -18.7660 C.2   278  GLN278      0.2260
     85  O         11.2020  -22.0420  -19.6260 O.2   278  GLN278     -0.2867
     86  CB         9.6970  -21.9240  -16.7530 C.3   278  GLN278      0.0367
     87  CG         8.3980  -21.4450  -16.1460 C.3   278  GLN278      0.0905
     88  CD         7.8070  -20.2480  -16.8950 C.2   278  GLN278      0.2608
     89  OE1        8.4400  -19.6750  -17.7960 O.2   278  GLN278     -0.2717
     90  NE2        6.5780  -19.8760  -16.5340 N.am  278  GLN278     -0.0878
     91  N         11.7000  -21.6450  -23.0610 N.3   282  ARG282     -0.1245
     92  CA        12.6670  -20.7320  -23.6730 C.3   282  ARG282      0.1563
     93  C         12.7150  -20.9130  -25.1870 C.2   282  ARG282      0.2260
     94  O         13.1780  -20.0140  -25.8940 O.2   282  ARG282     -0.2867
     95  CB        14.0850  -20.9100  -23.1140 C.3   282  ARG282      0.0307
     96  CG        14.3070  -20.6300  -21.6130 C.3   282  ARG282      0.0489
     97  CD        13.6810  -19.3230  -21.1400 C.3   282  ARG282      0.2205
     98  NE        12.3310  -19.5750  -20.6880 N.pl3 282  ARG282     -0.0865
     99  CZ        11.3500  -18.6850  -20.6260 C.cat 282  ARG282      0.5346
    100  NH1       11.5410  -17.4140  -20.9760 N.pl3 282  ARG282      0.1354
    101  NH2       10.1580  -19.0730  -20.2020 N.pl3 282  ARG282      0.1354
    102  N          9.1860  -20.5920  -29.4070 N.3   285  ARG285     -0.1231
    103  CA         8.5000  -19.3090  -29.2460 C.3   285  ARG285      0.1694
    104  C          8.1880  -18.6070  -30.5630 C.2   285  ARG285      0.2592
    105  O          7.3920  -17.6590  -30.5930 O.2   285  ARG285     -0.2718
    106  CB         9.3450  -18.3820  -28.3670 C.3   285  ARG285      0.0321
    107  CG         9.6790  -18.9930  -27.0160 C.3   285  ARG285      0.0489
    108  CD        10.5400  -18.0820  -26.1640 C.3   285  ARG285      0.2205
    109  NE         9.8150  -16.8830  -25.7720 N.pl3 285  ARG285     -0.0865
    110  CZ         9.0340  -16.8090  -24.6980 C.cat 285  ARG285      0.5346
    111  NH1        8.8750  -17.8740  -23.9160 N.pl3 285  ARG285      0.1354
    112  NH2        8.4060  -15.6760  -24.4130 N.pl3 285  ARG285      0.1354
    113  N          8.7990  -19.0780  -31.6460 N.am  286  ASN286     -0.1961
    114  CA         8.6250  -18.4570  -32.9590 C.3   286  ASN286      0.1804
    115  C          7.6760  -19.2770  -33.8150 C.2   286  ASN286      0.2463
    116  O          7.9960  -20.4070  -34.1750 O.2   286  ASN286     -0.2730
    117  CB         9.9740  -18.3150  -33.6590 C.3   286  ASN286      0.1195
    118  CG         9.8920  -17.4980  -34.9390 C.2   286  ASN286      0.2630
    119  OD1        8.8050  -17.2300  -35.4570 O.2   286  ASN286     -0.2716
    120  ND2       11.0470  -17.0990  -35.4540 N.am  286  ASN286     -0.0877
    121  N          6.5090  -18.7160  -34.1580 N.am  287  PRO287     -0.2727
    122  CA         5.5500  -19.5600  -34.8780 C.3   287  PRO287      0.1402
    123  C          6.0370  -19.9190  -36.2880 C.2   287  PRO287      0.2269
    124  O          5.5170  -20.8640  -36.8890 O.2   287  PRO287     -0.2865
    125  CB         4.2810  -18.7040  -34.9270 C.3   287  PRO287      0.0296
    126  CG         4.7180  -17.3070  -34.6520 C.3   287  PRO287      0.0237
    127  CD         5.9860  -17.3700  -33.8660 C.3   287  PRO287      0.0939
@<TRIPOS>BOND
     1   124   123    2
     2   123   122    1
     3   119   118    2
     4   120   118   am
     5   118   117    1
     6   125   122    1
     7   125   126    1
     8   122   121    1
     9   126   127    1
    10   116   115    2
    11   121   127    1
    12   121   115   am
    13   115   114    1
    14   117   114    1
    15   114   113    1
    16    65    64    2
    17    64    63    1
    18   113   104   am
    19    66    63    1
    20    66    67    1
    21   105   104    2
    22   104   103    1
    23    63    62    1
    24    67    69   am
    25    67    68    2
    26   102   103    1
    27   103   106    1
    28   106   107    1
    29    46    45    1
    30    47    45    1
    31    45    44    2
    32    11    10    2
    33   107   108    1
    34    44    43    1
    35    15    14    2
    36    43    42    1
    37   108   109    1
    38    10     9    1
    39    10    12   am
    40    14    13    1
    41    14    17   am
    42    13    12    1
    43    13    16    1
    44    94    93    2
    45   109   110    2
    46    41    42    1
    47    41    38    1
    48    40    39    2
    49     9     8    1
    50    18    17    1
    51    18    19    1
    52    93    92    1
    53     4     3    2
    54    39    38    1
    55   110   112    1
    56   110   111    1
    57    76    77    2
    58    76    75    1
    59    78    79    1
    60    78    75    1
    61    38    37    1
    62     8     3   am
    63    20    19    2
    64     3     2    1
    65    19    21   am
    66    79    80    2
    67    79    81   am
    68    75    74    1
    69    92    95    1
    70    92    91    1
    71    37    32   am
    72    95    96    1
    73    21    22    1
    74     2     1    1
    75     2     5    1
    76     1     7    1
    77     5     6    1
    78    32    33    2
    79    32    31    1
    80     7     6    1
    81    22    23    1
    82    22    25    1
    83    96    97    1
    84    30    23   am
    85    30    31    1
    86    23    24    2
    87    97    98    1
    88    31    34    1
    89   100    99    1
    90    34    36    1
    91    34    35    1
    92    29    28    1
    93    26    25    1
    94    26    27    1
    95    98    99    2
    96    99   101    1
    97    73    72    2
    98    85    84    2
    99    27    28    1
   100    72    71    1
   101    61    58    1
   102    84    83    1
   103    71    70    1
   104    83    82    1
   105    83    86    1
   106    56    54   ar
   107    58    57    1
   108    58    59    1
   109    89    88    2
   110    60    59    2
   111    88    90   am
   112    88    87    1
   113    54    55   ar
   114    54    53    1
   115    86    87    1
   116    53    52    1
   117    48    49    1
   118    52    49    1
   119    49    50    1
   120    50    51    2
