@<TRIPOS>MOLECULE
tmp/5y57C00.pdb
 135 128 0 0 0
SMALL
GASTEIGER

@<TRIPOS>ATOM
      1  N        -17.9910   65.6330  -33.8290 N.3    11  ALA11      -0.1231
      2  CA       -16.8760   66.5560  -33.7000 C.3    11  ALA11       0.1694
      3  C        -17.3170   67.8400  -33.0030 C.2    11  ALA11       0.2592
      4  O        -18.4660   68.2710  -33.1260 O.2    11  ALA11      -0.2718
      5  CB       -16.3010   66.8510  -35.0730 C.3    11  ALA11       0.0304
      6  N        -16.3860   68.4310  -32.2380 N.am   12  LEU12      -0.1966
      7  CA       -16.5580   69.6670  -31.4690 C.3    12  LEU12       0.1728
      8  C        -17.6990   69.6140  -30.4530 C.2    12  LEU12       0.2616
      9  O        -18.1040   70.6670  -29.9470 O.2    12  LEU12      -0.2715
     10  CB       -16.7640   70.8780  -32.3900 C.3    12  LEU12       0.0311
     11  CG       -15.5180   71.2850  -33.1860 C.3    12  LEU12       0.0022
     12  CD1      -15.8970   72.2050  -34.3350 C.3    12  LEU12       0.0001
     13  CD2      -14.4960   71.9420  -32.2530 C.3    12  LEU12       0.0001
     14  N        -18.2320   68.4230  -30.1340 N.am   13  ASN13      -0.1972
     15  CA       -19.3350   68.2770  -29.2000 C.3    13  ASN13       0.1688
     16  C        -18.8760   67.6080  -27.9180 C.2    13  ASN13       0.2292
     17  O        -17.7170   67.2110  -27.7770 O.2    13  ASN13      -0.2864
     18  CB       -20.4740   67.4970  -29.8410 C.3    13  ASN13       0.1181
     19  CG       -21.4040   68.3800  -30.6250 C.2    13  ASN13       0.2629
     20  OD1      -21.0150   69.0000  -31.6180 O.2    13  ASN13      -0.2716
     21  ND2      -22.6460   68.4390  -30.1920 N.am   13  ASN13      -0.0877
     22  N        -22.8100   59.9200  -33.3840 N.3    75  HIS75      -0.1226
     23  CA       -23.3360   61.0450  -34.1490 C.3    75  HIS75       0.1752
     24  C        -22.2170   61.6160  -35.0010 C.2    75  HIS75       0.2597
     25  O        -21.1340   61.9030  -34.4890 O.2    75  HIS75      -0.2718
     26  CB       -23.9130   62.1470  -33.2550 C.3    75  HIS75       0.0759
     27  CG       -24.3180   63.3680  -34.0210 C.ar   75  HIS75       0.0818
     28  ND1      -23.6260   64.5630  -33.9510 N.ar   75  HIS75      -0.2268
     29  CD2      -25.3260   63.5670  -34.9040 C.ar   75  HIS75       0.1154
     30  CE1      -24.1980   65.4430  -34.7520 C.ar   75  HIS75       0.1986
     31  NE2      -25.2370   64.8670  -35.3360 N.ar   75  HIS75      -0.2212
     32  N        -22.5060   61.8590  -36.2780 N.am   76  SER76      -0.1938
     33  CA       -21.5910   62.5210  -37.2030 C.3    76  SER76       0.2055
     34  C        -20.2120   61.8610  -37.2290 C.2    76  SER76       0.2642
     35  O        -20.0820   60.6710  -37.5340 O.2    76  SER76      -0.2714
     36  CB       -21.4630   64.0190  -36.8600 C.3    76  SER76       0.2130
     37  OG       -20.7300   64.7310  -37.8570 O.3    76  SER76      -0.2179
     38  N        -19.1670   62.6230  -36.9200 N.am   77  LEU77      -0.1977
     39  CA       -17.8240   62.0310  -36.8660 C.3    77  LEU77       0.1596
     40  C        -17.7380   60.8750  -35.8710 C.2    77  LEU77       0.2287
     41  O        -16.9090   59.9680  -36.0520 O.2    77  LEU77      -0.2864
     42  CB       -16.7780   63.0880  -36.5020 C.3    77  LEU77       0.0297
     43  CG       -15.3640   62.5560  -36.2570 C.3    77  LEU77       0.0022
     44  CD1      -14.6590   62.3610  -37.5950 C.3    77  LEU77       0.0001
     45  CD2      -14.6050   63.4890  -35.3310 C.3    77  LEU77       0.0001
     46  N        -16.0480   63.4870  -46.6410 N.3   114  VAL114     -0.1245
     47  CA       -16.0680   64.8500  -46.1370 C.3   114  VAL114      0.1561
     48  C        -15.5970   65.8180  -47.2090 C.2   114  VAL114      0.2260
     49  O        -16.1380   66.9220  -47.3470 O.2   114  VAL114     -0.2867
     50  CB       -15.2260   64.9380  -44.8530 C.3   114  VAL114      0.0252
     51  CG1      -14.6810   66.3290  -44.6490 C.3   114  VAL114      0.0019
     52  CG2      -16.0780   64.5640  -43.6650 C.3   114  VAL114      0.0019
     53  N        -18.8690   67.2890  -47.6410 N.3   123  THR123     -0.1218
     54  CA       -19.5660   68.1230  -46.6560 C.3   123  THR123      0.1862
     55  C        -19.0880   69.5760  -46.7400 C.2   123  THR123      0.2287
     56  O        -18.4460   70.0520  -45.7940 O.2   123  THR123     -0.2866
     57  CB       -19.3470   67.5980  -45.2240 C.3   123  THR123      0.1770
     58  OG1      -17.9500   67.5600  -44.9200 O.3   123  THR123     -0.2211
     59  CG2      -19.9100   66.2050  -45.0520 C.3   123  THR123      0.0375
     60  N        -19.6840   72.1310  -43.7550 N.3   126  ALA126     -0.1231
     61  CA       -18.8450   71.9840  -42.5790 C.3   126  ALA126      0.1694
     62  C        -17.4060   72.3800  -42.8820 C.2   126  ALA126      0.2591
     63  O        -16.7330   72.9440  -42.0170 O.2   126  ALA126     -0.2718
     64  CB       -18.9190   70.5580  -42.0340 C.3   126  ALA126      0.0304
     65  N        -16.9190   72.1140  -44.1060 N.am  127  LEU127     -0.1980
     66  CA       -15.5550   72.5280  -44.4770 C.3   127  LEU127      0.1596
     67  C        -15.4290   74.0510  -44.5620 C.2   127  LEU127      0.2287
     68  O        -14.3360   74.6050  -44.3460 O.2   127  LEU127     -0.2864
     69  CB       -15.1340   71.9270  -45.8250 C.3   127  LEU127      0.0297
     70  CG       -14.7550   70.4420  -45.9980 C.3   127  LEU127      0.0022
     71  CD1      -14.6200   70.0910  -47.4800 C.3   127  LEU127      0.0001
     72  CD2      -13.4830   70.0710  -45.2640 C.3   127  LEU127      0.0001
     73  N        -15.6740   75.1460  -40.5780 N.3   130  ILE130     -0.1245
     74  CA       -14.6840   74.5910  -39.6590 C.3   130  ILE130      0.1561
     75  C        -13.3390   74.7080  -40.3490 C.2   130  ILE130      0.2260
     76  O        -13.1620   74.1880  -41.4550 O.2   130  ILE130     -0.2867
     77  CB       -14.9770   73.1270  -39.2970 C.3   130  ILE130      0.0252
     78  CG1      -16.4180   72.9590  -38.7990 C.3   130  ILE130      0.0019
     79  CG2      -13.9990   72.6480  -38.2430 C.3   130  ILE130      0.0019
     80  CD1      -16.7510   73.8540  -37.6630 C.3   130  ILE130      0.0001
     81  N         -9.1190   71.4770  -35.4430 N.3   139  LEU139     -0.1245
     82  CA       -10.1940   72.0500  -36.2300 C.3   139  LEU139      0.1561
     83  C        -10.9610   72.9950  -35.3250 C.2   139  LEU139      0.2260
     84  O        -11.1660   72.6940  -34.1510 O.2   139  LEU139     -0.2867
     85  CB       -11.1330   70.9840  -36.7900 C.3   139  LEU139      0.0270
     86  CG       -10.5610   70.1410  -37.9050 C.3   139  LEU139      0.0019
     87  CD1      -11.5580   69.0530  -38.2990 C.3   139  LEU139      0.0001
     88  CD2      -10.2520   71.0880  -39.0530 C.3   139  LEU139      0.0001
     89  N        -25.5310   73.9740  -37.8950 N.3   153  PHE153     -0.1241
     90  CA       -25.2870   72.8920  -36.9570 C.3   153  PHE153      0.1605
     91  C        -26.3400   72.7820  -35.8640 C.2   153  PHE153      0.2264
     92  O        -26.5620   71.6840  -35.3410 O.2   153  PHE153     -0.2867
     93  CB       -23.8870   73.0550  -36.3360 C.3   153  PHE153      0.0534
     94  CG       -22.7560   72.9120  -37.3390 C.ar  153  PHE153     -0.0203
     95  CD1      -22.3290   71.6520  -37.7510 C.ar  153  PHE153     -0.0042
     96  CD2      -22.1130   74.0230  -37.8680 C.ar  153  PHE153     -0.0042
     97  CE1      -21.2910   71.5040  -38.6680 C.ar  153  PHE153     -0.0003
     98  CE2      -21.0710   73.8750  -38.7880 C.ar  153  PHE153     -0.0003
     99  CZ       -20.6540   72.6080  -39.1790 C.ar  153  PHE153     -0.0000
    100  N        -10.5390   61.6450  -38.1890 N.3   175  PHE175     -0.1241
    101  CA       -10.8170   61.9010  -39.5980 C.3   175  PHE175      0.1605
    102  C         -9.8790   61.1370  -40.5280 C.2   175  PHE175      0.2264
    103  O        -10.2180   60.9280  -41.6990 O.2   175  PHE175     -0.2867
    104  CB       -10.6920   63.3940  -39.9080 C.3   175  PHE175      0.0534
    105  CG       -11.8120   64.2500  -39.3670 C.ar  175  PHE175     -0.0203
    106  CD1      -11.7550   64.7720  -38.0880 C.ar  175  PHE175     -0.0042
    107  CD2      -12.9130   64.5570  -40.1630 C.ar  175  PHE175     -0.0042
    108  CE1      -12.7770   65.5840  -37.6090 C.ar  175  PHE175     -0.0003
    109  CE2      -13.9340   65.3610  -39.6910 C.ar  175  PHE175     -0.0003
    110  CZ       -13.8690   65.8720  -38.4150 C.ar  175  PHE175     -0.0000
    111  N        -25.1780   69.8360  -43.0970 N.3   199  VAL199     -0.1231
    112  CA       -23.8060   69.4540  -42.7930 C.3   199  VAL199      0.1692
    113  C        -23.4130   68.2280  -43.6160 C.2   199  VAL199      0.2591
    114  O        -22.4120   68.2210  -44.3440 O.2   199  VAL199     -0.2718
    115  CB       -23.6950   69.1740  -41.2880 C.3   199  VAL199      0.0266
    116  CG1      -22.2930   68.7060  -40.9020 C.3   199  VAL199      0.0020
    117  CG2      -24.1690   70.4100  -40.4920 C.3   199  VAL199      0.0020
    118  N        -24.2320   67.1860  -43.5220 N.am  200  LEU200     -0.1980
    119  CA       -24.0000   65.8670  -44.1080 C.3   200  LEU200      0.1596
    120  C        -25.2220   65.5710  -44.9650 C.2   200  LEU200      0.2287
    121  O        -26.1990   65.0000  -44.4820 O.2   200  LEU200     -0.2864
    122  CB       -23.8130   64.8040  -43.0260 C.3   200  LEU200      0.0297
    123  CG       -23.4970   63.3790  -43.5220 C.3   200  LEU200      0.0022
    124  CD1      -22.1150   63.3270  -44.1910 C.3   200  LEU200      0.0001
    125  CD2      -23.6440   62.3280  -42.4090 C.3   200  LEU200      0.0001
    126  N        -29.2830   68.4490  -38.7340 N.3   224  HIS224     -0.1241
    127  CA       -28.0700   67.7770  -38.2560 C.3   224  HIS224      0.1621
    128  C        -28.1560   67.2060  -36.8310 C.2   224  HIS224      0.2264
    129  O        -27.3710   66.3100  -36.5020 O.2   224  HIS224     -0.2867
    130  CB       -26.8710   68.7300  -38.3470 C.3   224  HIS224      0.0745
    131  CG       -25.5670   68.0750  -38.0320 C.ar  224  HIS224      0.0817
    132  ND1      -24.9860   67.1350  -38.8600 N.ar  224  HIS224     -0.2268
    133  CD2      -24.7360   68.2090  -36.9740 C.ar  224  HIS224      0.1154
    134  CE1      -23.8480   66.7280  -38.3270 C.ar  224  HIS224      0.1986
    135  NE2      -23.6760   67.3620  -37.1820 N.ar  224  HIS224     -0.2212
@<TRIPOS>BOND
     1    53    54    1
     2    71    70    1
     3    49    48    2
     4    48    47    1
     5    55    54    1
     6    55    56    2
     7    54    57    1
     8    46    47    1
     9    47    50    1
    10    70    69    1
    11    70    72    1
    12    69    66    1
    13    57    59    1
    14    57    58    1
    15   120   121    2
    16   120   119    1
    17    50    51    1
    18    50    52    1
    19    67    66    1
    20    67    68    2
    21    66    65    1
    22   114   113    2
    23   124   123    1
    24   119   118    1
    25   119   122    1
    26    65    62   am
    27    60    61    1
    28   113   118   am
    29   113   112    1
    30   123   122    1
    31   123   125    1
    32   111   112    1
    33    62    61    1
    34    62    63    2
    35   112   115    1
    36    61    64    1
    37   103   102    2
    38    76    75    2
    39   115   116    1
    40   115   117    1
    41    73    74    1
    42   102   101    1
    43    75    74    1
    44   107   109   ar
    45   107   105   ar
    46   104   101    1
    47   104   105    1
    48   109   110   ar
    49    74    77    1
    50   101   100    1
    51   105   106   ar
    52    77    78    1
    53    77    79    1
    54    99    98   ar
    55    99    97   ar
    56    88    86    1
    57   132   134   ar
    58   132   131   ar
    59    78    80    1
    60    98    96   ar
    61   126   127    1
    62    97    95   ar
    63   110   108   ar
    64   130   127    1
    65   130   131    1
    66   134   135   ar
    67    87    86    1
    68   127   128    1
    69   106   108   ar
    70   131   133   ar
    71    86    85    1
    72    89    90    1
    73    96    94   ar
    74    37    36    1
    75    95    94   ar
    76    44    43    1
    77    35    34    2
    78    94    93    1
    79    34    33    1
    80    34    38   am
    81    33    36    1
    82    33    32    1
    83   135   133   ar
    84    90    93    1
    85    90    91    1
    86    38    39    1
    87    39    42    1
    88    39    40    1
    89   128   129    2
    90    85    82    1
    91    42    43    1
    92    32    24   am
    93    43    45    1
    94    82    81    1
    95    82    83    1
    96    41    40    2
    97    91    92    2
    98    31    29   ar
    99    31    30   ar
   100    83    84    2
   101     5     2    1
   102    24    25    2
   103    24    23    1
   104    29    27   ar
   105    30    28   ar
   106    12    11    1
   107    23    22    1
   108    23    26    1
   109    27    28   ar
   110    27    26    1
   111     1     2    1
   112     2     3    1
   113    11    10    1
   114    11    13    1
   115     4     3    2
   116     3     6   am
   117    10     7    1
   118     6     7    1
   119    20    19    2
   120     7     8    1
   121    19    21   am
   122    19    18    1
   123     8    14   am
   124     8     9    2
   125    14    15    1
   126    18    15    1
   127    15    16    1
   128    16    17    2
