@<TRIPOS>MOLECULE
tmp/5y5bA00.pdb
 93 92 0 0 0
SMALL
GASTEIGER

@<TRIPOS>ATOM
      1  N          3.3900  -13.2550  -21.6650 N.3   120  ASN120     -0.1240
      2  CA         2.6860  -12.6370  -20.5360 C.3   120  ASN120      0.1653
      3  C          3.0790  -13.3210  -19.2260 C.2   120  ASN120      0.2266
      4  O          3.0970  -14.5430  -19.1430 O.2   120  ASN120     -0.2867
      5  CB         1.1570  -12.7490  -20.7450 C.3   120  ASN120      0.1155
      6  CG         0.7300  -12.3920  -22.1680 C.2   120  ASN120      0.2627
      7  OD1        0.5010  -11.2370  -22.4680 O.2   120  ASN120     -0.2716
      8  ND2        0.5190  -13.4210  -23.0190 N.am  120  ASN120     -0.0877
      9  N          2.3260  -12.7830  -14.9040 N.3   122  TRP122     -0.1241
     10  CA         1.8500  -12.0450  -13.7370 C.3   122  TRP122      0.1605
     11  C          2.8890  -12.0110  -12.6360 C.2   122  TRP122      0.2264
     12  O          3.1370  -13.0200  -11.9930 O.2   122  TRP122     -0.2867
     13  CB         0.5800  -12.6830  -13.1650 C.3   122  TRP122      0.0550
     14  CG        -0.6450  -12.4880  -13.9740 C.ar  122  TRP122      0.0003
     15  CD1       -1.4250  -13.4820  -14.5270 C.ar  122  TRP122      0.0946
     16  CD2       -1.3360  -11.2570  -14.2140 C.ar  122  TRP122      0.0152
     17  NE1       -2.5360  -12.9330  -15.1110 N.ar  122  TRP122     -0.2442
     18  CE2       -2.5140  -11.5710  -14.9210 C.ar  122  TRP122      0.0810
     19  CE3       -1.1320   -9.9320  -13.8130 C.ar  122  TRP122      0.0012
     20  CZ2       -3.4230  -10.5910  -15.3170 C.ar  122  TRP122      0.0191
     21  CZ3       -2.0360   -8.9680  -14.1980 C.ar  122  TRP122      0.0001
     22  CH2       -3.1480   -9.2930  -14.9710 C.ar  122  TRP122      0.0015
     23  N          1.4280   -6.9180  -14.3650 N.3   129  GLU129     -0.1245
     24  CA         1.6080   -7.8430  -15.4670 C.3   129  GLU129      0.1567
     25  C          2.8450   -7.4410  -16.2550 C.2   129  GLU129      0.2260
     26  O          3.1280   -6.2470  -16.4090 O.2   129  GLU129     -0.2867
     27  CB         0.3810   -7.8250  -16.3900 C.3   129  GLU129      0.0388
     28  CG         0.2790   -9.0670  -17.2570 C.3   129  GLU129      0.1160
     29  CD        -1.0610   -9.1830  -17.9570 C.2   129  GLU129      0.3649
     30  OE1       -1.4870  -10.3340  -18.2320 O.co2 129  GLU129     -0.2457
     31  OE2       -1.7010   -8.1380  -18.1910 O.co2 129  GLU129     -0.2457
     32  N          2.4180   -3.6420  -17.0200 N.3   145  TRP145     -0.1241
     33  CA         1.0590   -3.1430  -17.1190 C.3   145  TRP145      0.1605
     34  C          0.3370   -3.2980  -15.7880 C.2   145  TRP145      0.2264
     35  O          0.4230   -4.3500  -15.1380 O.2   145  TRP145     -0.2867
     36  CB         0.3440   -3.9360  -18.2050 C.3   145  TRP145      0.0550
     37  CG        -1.1370   -3.6960  -18.3010 C.ar  145  TRP145      0.0003
     38  CD1       -2.1330   -4.6170  -18.0990 C.ar  145  TRP145      0.0946
     39  CD2       -1.7830   -2.5040  -18.7510 C.ar  145  TRP145      0.0152
     40  NE1       -3.3510   -4.0750  -18.4190 N.ar  145  TRP145     -0.2442
     41  CE2       -3.1700   -2.7770  -18.8170 C.ar  145  TRP145      0.0810
     42  CE3       -1.3280   -1.2370  -19.1280 C.ar  145  TRP145      0.0012
     43  CZ2       -4.1020   -1.8270  -19.2580 C.ar  145  TRP145      0.0191
     44  CZ3       -2.2440   -0.3070  -19.5380 C.ar  145  TRP145      0.0001
     45  CH2       -3.6210   -0.6210  -19.6470 C.ar  145  TRP145      0.0015
     46  N         -4.7280    1.3020  -15.4830 N.3   150  LYS150     -0.1245
     47  CA        -4.3680    1.4030  -16.9070 C.3   150  LYS150      0.1561
     48  C         -3.0910    2.2200  -17.0920 C.2   150  LYS150      0.2260
     49  O         -3.0030    3.1020  -17.9370 O.2   150  LYS150     -0.2867
     50  CB        -5.5220    1.9860  -17.7270 C.3   150  LYS150      0.0271
     51  CG        -6.7780    1.1260  -17.7630 C.3   150  LYS150      0.0035
     52  CD        -7.7500    1.6620  -18.8170 C.3   150  LYS150      0.0206
     53  CE        -8.9650    0.7630  -19.0590 C.3   150  LYS150      0.1093
     54  NZ        -9.7720    0.5890  -17.8210 N.3   150  LYS150     -0.1314
     55  N         -1.9730   -3.6510  -28.4650 N.3   184  LYS184     -0.1231
     56  CA        -2.3590   -4.2800  -27.2050 C.3   184  LYS184      0.1693
     57  C         -2.7740   -3.3240  -26.0860 C.2   184  LYS184      0.2592
     58  O         -3.5540   -3.7240  -25.2140 O.2   184  LYS184     -0.2718
     59  CB        -1.2300   -5.1860  -26.7030 C.3   184  LYS184      0.0285
     60  CG        -1.5760   -6.6770  -26.7230 C.3   184  LYS184      0.0035
     61  CD        -1.3510   -7.3120  -25.3520 C.3   184  LYS184      0.0206
     62  CE        -2.1970   -8.5650  -25.1530 C.3   184  LYS184      0.1093
     63  NZ        -1.5060   -9.5430  -24.2660 N.3   184  LYS184     -0.1314
     64  N         -2.2060   -2.1150  -26.0460 N.am  185  TYR185     -0.1962
     65  CA        -2.3850   -1.1940  -24.9120 C.3   185  TYR185      0.1771
     66  C         -2.9120    0.1770  -25.3140 C.2   185  TYR185      0.2620
     67  O         -2.6440    1.1830  -24.6370 O.2   185  TYR185     -0.2715
     68  CB        -1.0700   -1.0440  -24.1500 C.3   185  TYR185      0.0574
     69  CG        -0.6720   -2.3130  -23.4500 C.ar  185  TYR185     -0.0198
     70  CD1       -1.3900   -2.7820  -22.3510 C.ar  185  TYR185     -0.0009
     71  CD2        0.3260   -3.1170  -23.9570 C.ar  185  TYR185     -0.0009
     72  CE1       -1.0940   -4.0030  -21.7660 C.ar  185  TYR185      0.0417
     73  CE2        0.6450   -4.3250  -23.3560 C.ar  185  TYR185      0.0417
     74  CZ        -0.0290   -4.7300  -22.2250 C.ar  185  TYR185      0.1957
     75  OH         0.2490   -5.9570  -21.6680 O.3   185  TYR185     -0.2866
     76  N         -3.8430    0.1830  -26.2550 N.am  186  GLY186     -0.1940
     77  CA        -4.4080    1.4210  -26.7420 C.3   186  GLY186      0.2014
     78  C         -5.2320    2.1670  -25.7170 C.2   186  GLY186      0.2639
     79  O         -5.3960    3.3820  -25.8290 O.2   186  GLY186     -0.2714
     80  N         -5.7710    1.4590  -24.7230 N.am  187  LYS187     -0.1963
     81  CA        -6.5500    2.1230  -23.6620 C.3   187  LYS187      0.1728
     82  C         -5.7150    2.5240  -22.4310 C.2   187  LYS187      0.2616
     83  O         -6.2490    3.0770  -21.4840 O.2   187  LYS187     -0.2715
     84  CB        -7.7270    1.2470  -23.2200 C.3   187  LYS187      0.0311
     85  CG        -8.6260    0.7910  -24.3630 C.3   187  LYS187      0.0038
     86  CD        -9.0480    1.9460  -25.2790 C.3   187  LYS187      0.0206
     87  CE        -9.5580    1.4510  -26.6330 C.3   187  LYS187      0.1093
     88  NZ        -8.4580    1.2100  -27.6160 N.3   187  LYS187     -0.1314
     89  N         -4.3850    2.4570  -22.5380 N.am  188  ALA188     -0.1977
     90  CA        -3.5480    2.9800  -21.4610 C.3   188  ALA188      0.1597
     91  C         -3.9130    4.4490  -21.1790 C.2   188  ALA188      0.2287
     92  O         -4.0020    5.2670  -22.1040 O.2   188  ALA188     -0.2864
     93  CB        -2.0600    2.8680  -21.8310 C.3   188  ALA188      0.0319
@<TRIPOS>BOND
     1    55    56    1
     2    88    87    1
     3    56    59    1
     4    56    57    1
     5    77    76    1
     6    77    78    1
     7    60    59    1
     8    60    61    1
     9    87    86    1
    10    76    66   am
    11    57    64   am
    12    57    58    2
    13    64    65    1
    14    79    78    2
    15    78    80   am
    16    61    62    1
    17    66    65    1
    18    66    67    2
    19    86    85    1
    20    62    63    1
    21    65    68    1
    22    80    81    1
    23    85    84    1
    24    68    69    1
    25    71    69   ar
    26    71    73   ar
    27    81    84    1
    28    81    82    1
    29    69    70   ar
    30    73    74   ar
    31     8     6   am
    32    89    82   am
    33    89    90    1
    34     7     6    2
    35    82    83    2
    36    70    72   ar
    37    74    72   ar
    38    74    75    1
    39     6     5    1
    40    92    91    2
    41    93    90    1
    42     1     2    1
    43    90    91    1
    44     5     2    1
    45     2     3    1
    46    45    44   ar
    47    45    43   ar
    48    44    42   ar
    49    43    41   ar
    50     3     4    2
    51    42    39   ar
    52    53    52    1
    53    53    54    1
    54    41    39   ar
    55    41    40   ar
    56    52    51    1
    57    39    37   ar
    58    40    38   ar
    59    37    36    1
    60    37    38   ar
    61    30    29   ar
    62    36    33    1
    63    31    29   ar
    64    29    28    1
    65    49    48    2
    66    51    50    1
    67    50    47    1
    68    28    27    1
    69    33    32    1
    70    33    34    1
    71    48    47    1
    72    47    46    1
    73    26    25    2
    74    27    24    1
    75    25    24    1
    76    34    35    2
    77    24    23    1
    78    20    22   ar
    79    20    18   ar
    80    17    18   ar
    81    17    15   ar
    82    22    21   ar
    83    18    16   ar
    84     9    10    1
    85    15    14   ar
    86    16    14   ar
    87    16    19   ar
    88    21    19   ar
    89    14    13    1
    90    10    13    1
    91    10    11    1
    92    11    12    2
