@<TRIPOS>MOLECULE
tmp/5y5bA01.pdb
 112 110 0 0 0
SMALL
GASTEIGER

@<TRIPOS>ATOM
      1  N         21.9590    9.7240  -14.1190 N.3    21  GLU21      -0.1245
      2  CA        23.3110    9.3980  -14.5240 C.3    21  GLU21       0.1567
      3  C         23.8270   10.4360  -15.4970 C.2    21  GLU21       0.2260
      4  O         23.0470   11.1130  -16.1770 O.2    21  GLU21      -0.2867
      5  CB        23.3690    8.0060  -15.1760 C.3    21  GLU21       0.0388
      6  CG        22.7060    7.9330  -16.5470 C.3    21  GLU21       0.1160
      7  CD        23.0370    6.6500  -17.3030 C.2    21  GLU21       0.3649
      8  OE1       22.2950    6.3320  -18.2720 O.co2  21  GLU21      -0.2457
      9  OE2       24.0360    5.9640  -16.9310 O.co2  21  GLU21      -0.2457
     10  N         25.4500   11.1400  -18.9190 N.3    23  VAL23      -0.1245
     11  CA        25.6560   10.4720  -20.2240 C.3    23  VAL23       0.1561
     12  C         26.4790   11.3590  -21.1450 C.2    23  VAL23       0.2260
     13  O         26.0480   12.4550  -21.5080 O.2    23  VAL23      -0.2867
     14  CB        24.3260   10.1050  -20.9140 C.3    23  VAL23       0.0252
     15  CG1       24.5780    9.3130  -22.1920 C.3    23  VAL23       0.0019
     16  CG2       23.4400    9.3060  -19.9700 C.3    23  VAL23       0.0019
     17  N         25.2150   14.0870  -23.5900 N.3    26  TRP26      -0.1241
     18  CA        23.7960   14.3730  -23.2990 C.3    26  TRP26       0.1605
     19  C         23.5410   15.0650  -21.9410 C.2    26  TRP26       0.2264
     20  O         22.4520   15.5660  -21.6990 O.2    26  TRP26      -0.2867
     21  CB        22.9660   13.0860  -23.4080 C.3    26  TRP26       0.0550
     22  CG        23.1160   12.3190  -24.7440 C.ar   26  TRP26       0.0003
     23  CD1       24.1780   11.5400  -25.1300 C.ar   26  TRP26       0.0946
     24  CD2       22.0980   12.1190  -25.7440 C.ar   26  TRP26       0.0152
     25  NE1       23.9030   10.9210  -26.3250 N.ar   26  TRP26      -0.2442
     26  CE2       22.6460   11.2880  -26.7400 C.ar   26  TRP26       0.0810
     27  CE3       20.7740   12.5380  -25.8730 C.ar   26  TRP26       0.0012
     28  CZ2       21.9140   10.8750  -27.8530 C.ar   26  TRP26       0.0191
     29  CZ3       20.0430   12.1290  -26.9980 C.ar   26  TRP26       0.0001
     30  CH2       20.6130   11.3110  -27.9610 C.ar   26  TRP26       0.0015
     31  N         20.8720   12.7070  -17.4210 N.3    29  VAL29      -0.1245
     32  CA        19.6360   12.1980  -18.0090 C.3    29  VAL29       0.1561
     33  C         18.8480   11.4610  -16.9380 C.2    29  VAL29       0.2260
     34  O         19.4260   10.6850  -16.1830 O.2    29  VAL29      -0.2867
     35  CB        19.9250   11.2120  -19.1590 C.3    29  VAL29       0.0252
     36  CG1       20.4620    9.8930  -18.6180 C.3    29  VAL29       0.0019
     37  CG2       18.6730   10.9820  -19.9960 C.3    29  VAL29       0.0019
     38  N          9.8670    2.5400  -24.9300 N.3   158  ILE158     -0.1231
     39  CA         9.0610    3.6710  -25.3280 C.3   158  ILE158      0.1692
     40  C          9.9340    4.8760  -25.5400 C.2   158  ILE158      0.2592
     41  O         10.6120    5.3450  -24.6130 O.2   158  ILE158     -0.2718
     42  CB         7.9240    3.9490  -24.3050 C.3   158  ILE158      0.0266
     43  CG1        6.9690    2.7610  -24.3040 C.3   158  ILE158      0.0019
     44  CG2        7.2300    5.2600  -24.6280 C.3   158  ILE158      0.0020
     45  CD1        6.1170    2.6290  -25.5690 C.3   158  ILE158      0.0001
     46  N          9.9620    5.3260  -26.7980 N.am  159  LYS159     -0.1966
     47  CA        10.9480    6.2390  -27.2960 C.3   159  LYS159      0.1713
     48  C         10.2760    7.1730  -28.3140 C.2   159  LYS159      0.2458
     49  O         10.3910    6.9760  -29.5210 O.2   159  LYS159     -0.2730
     50  CB        12.1430    5.4840  -27.9250 C.3   159  LYS159      0.0311
     51  CG        13.0310    4.7960  -26.9270 C.3   159  LYS159      0.0038
     52  CD        13.9210    5.8120  -26.1950 C.3   159  LYS159      0.0206
     53  CE        14.7470    5.1460  -25.1010 C.3   159  LYS159      0.1093
     54  NZ        15.5580    4.0340  -25.6310 N.3   159  LYS159     -0.1314
     55  N          9.4560    8.1140  -27.8160 N.am  160  PRO160     -0.2716
     56  CA         8.5810    8.8680  -28.7270 C.3   160  PRO160      0.1536
     57  C          9.2660    9.8240  -29.6900 C.2   160  PRO160      0.2599
     58  O          8.6560   10.1980  -30.6870 O.2   160  PRO160     -0.2715
     59  CB         7.6640    9.6580  -27.7820 C.3   160  PRO160      0.0310
     60  CG         8.2890    9.5930  -26.4470 C.3   160  PRO160      0.0237
     61  CD         9.1260    8.3460  -26.4040 C.3   160  PRO160      0.0939
     62  N         10.4550   10.3210  -29.3440 N.am  161  TYR161     -0.1960
     63  CA        11.0770   11.4050  -30.1050 C.3   161  TYR161      0.1771
     64  C         12.4320   11.0180  -30.6810 C.2   161  TYR161      0.2620
     65  O         12.9930   11.7400  -31.4950 O.2   161  TYR161     -0.2715
     66  CB        11.2210   12.6460  -29.2060 C.3   161  TYR161      0.0574
     67  CG         9.9230   13.0480  -28.5620 C.ar  161  TYR161     -0.0198
     68  CD1        8.8240   13.3140  -29.3320 C.ar  161  TYR161     -0.0009
     69  CD2        9.7680   13.0230  -27.1820 C.ar  161  TYR161     -0.0009
     70  CE1        7.6070   13.6120  -28.7620 C.ar  161  TYR161      0.0417
     71  CE2        8.5570   13.3340  -26.5960 C.ar  161  TYR161      0.0417
     72  CZ         7.4850   13.6480  -27.3970 C.ar  161  TYR161      0.1957
     73  OH         6.2440   13.9010  -26.8650 O.3   161  TYR161     -0.2866
     74  N         12.9740    9.8990  -30.2200 N.am  162  GLY162     -0.1954
     75  CA        14.2270    9.3780  -30.7500 C.3   162  GLY162      0.1869
     76  C         14.5980    8.1050  -30.0280 C.2   162  GLY162      0.2309
     77  O         14.2420    7.9370  -28.8750 O.2   162  GLY162     -0.2863
     78  N         17.3630    6.6750  -28.9240 N.3   164  GLY164     -0.1210
     79  CA        18.3940    6.5900  -27.9190 C.3   164  GLY164      0.1956
     80  C         19.5210    5.6710  -28.3340 C.2   164  GLY164      0.2611
     81  O         19.8910    5.6140  -29.5070 O.2   164  GLY164     -0.2717
     82  N         20.0500    4.9140  -27.3830 N.am  165  ASN165     -0.1974
     83  CA        21.2380    4.1360  -27.6410 C.3   165  ASN165      0.1688
     84  C         20.9210    2.8640  -28.4250 C.2   165  ASN165      0.2292
     85  O         20.1880    2.0150  -27.9390 O.2   165  ASN165     -0.2864
     86  CB        21.9000    3.7620  -26.3400 C.3   165  ASN165      0.1181
     87  CG        23.3320    3.3180  -26.5420 C.2   165  ASN165      0.2629
     88  OD1       23.5930    2.3740  -27.2750 O.2   165  ASN165     -0.2716
     89  ND2       24.2790    4.0450  -25.9310 N.am  165  ASN165     -0.0877
     90  N          7.5770    6.3690  -19.9610 N.3   193  PRO193     -0.2116
     91  CA         8.8960    6.0130  -20.5020 C.3   193  PRO193      0.1372
     92  C         10.0030    6.1040  -19.4700 C.2   193  PRO193      0.2244
     93  O          9.8960    6.8400  -18.4940 O.2   193  PRO193     -0.2868
     94  CB         9.1220    7.0730  -21.6160 C.3   193  PRO193      0.0268
     95  CG         7.8280    7.7990  -21.7920 C.3   193  PRO193      0.0207
     96  CD         7.0950    7.6640  -20.4950 C.3   193  PRO193      0.0892
     97  N         12.9350    7.6200  -20.0560 N.3   195  HIS195     -0.1226
     98  CA        13.8570    8.7590  -20.2400 C.3   195  HIS195      0.1752
     99  C         13.1650    9.9960  -20.7970 C.2   195  HIS195      0.2596
    100  O         13.8170   10.8990  -21.3480 O.2   195  HIS195     -0.2718
    101  CB        15.0140    8.3750  -21.1470 C.3   195  HIS195      0.0759
    102  CG        15.8250    7.2410  -20.6410 C.ar  195  HIS195      0.0818
    103  ND1       16.5020    7.2800  -19.4390 N.ar  195  HIS195     -0.2268
    104  CD2       16.0010    5.9940  -21.1310 C.ar  195  HIS195      0.1154
    105  CE1       17.1330    6.1310  -19.2600 C.ar  195  HIS195      0.1986
    106  NE2       16.8580    5.3430  -20.2820 N.ar  195  HIS195     -0.2212
    107  N         11.8540   10.0700  -20.6140 N.am  196  SER196     -0.1952
    108  CA        11.1170   11.2730  -20.9410 C.3   196  SER196      0.1924
    109  C          9.8410   11.3240  -20.1320 C.2   196  SER196      0.2314
    110  O          9.5340   10.3950  -19.3680 O.2   196  SER196     -0.2863
    111  CB        10.8290   11.3580  -22.4460 C.3   196  SER196      0.2116
    112  OG        10.0840   10.2550  -22.9060 O.3   196  SER196     -0.2180
@<TRIPOS>BOND
     1    65    64    2
     2    75    74    1
     3    75    76    1
     4    58    57    2
     5    64    74   am
     6    64    63    1
     7    63    62    1
     8    63    66    1
     9    76    77    2
    10    57    62   am
    11    57    56    1
    12    49    48    2
    13    81    80    2
    14    68    70   ar
    15    68    67   ar
    16    66    67    1
    17    78    79    1
    18    70    72   ar
    19    56    55    1
    20    56    59    1
    21    67    69   ar
    22    84    85    2
    23    84    83    1
    24    80    79    1
    25    80    82   am
    26    48    55   am
    27    48    47    1
    28    30    28   ar
    29    30    29   ar
    30    50    47    1
    31    50    51    1
    32    28    26   ar
    33    55    61    1
    34    59    60    1
    35    83    82    1
    36    83    86    1
    37    72    73    1
    38    72    71   ar
    39    47    46    1
    40    88    87    2
    41    69    71   ar
    42    29    27   ar
    43    51    52    1
    44    46    40   am
    45    26    25   ar
    46    26    24   ar
    47    87    86    1
    48    87    89   am
    49    60    61    1
    50    25    23   ar
    51    52    53    1
    52    27    24   ar
    53    24    22   ar
    54    54    53    1
    55    45    43    1
    56    40    39    1
    57    40    41    2
    58    39    38    1
    59    39    42    1
    60    23    22   ar
    61    22    21    1
    62    44    42    1
    63    42    43    1
    64    17    18    1
    65    21    18    1
    66    18    19    1
    67   112   111    1
    68   111   108    1
    69    15    14    1
    70    19    20    2
    71    95    94    1
    72    95    96    1
    73    94    91    1
    74    13    12    2
    75   100    99    2
    76   101   102    1
    77   101    98    1
    78    12    11    1
    79   104   102   ar
    80   104   106   ar
    81   108   107    1
    82   108   109    1
    83    14    11    1
    84    14    16    1
    85    99   107   am
    86    99    98    1
    87   102   103   ar
    88    91    90    1
    89    91    92    1
    90    96    90    1
    91   106   105   ar
    92    98    97    1
    93    11    10    1
    94   109   110    2
    95    37    35    1
    96    92    93    2
    97   103   105   ar
    98    35    36    1
    99    35    32    1
   100     8     7   ar
   101    32    31    1
   102    32    33    1
   103     7     9   ar
   104     7     6    1
   105    33    34    2
   106     6     5    1
   107     4     3    2
   108     3     2    1
   109     5     2    1
   110     2     1    1
