@<TRIPOS>MOLECULE
tmp/5y5cA00.pdb
 194 174 0 0 0
SMALL
GASTEIGER

@<TRIPOS>ATOM
      1  N          7.7670    0.3670   12.1260 N.3     9  ILE9       -0.1245
      2  CA         8.2710   -0.9110   11.6360 C.3     9  ILE9        0.1561
      3  C          7.2670   -2.0530   11.8340 C.2     9  ILE9        0.2260
      4  O          7.2710   -2.9990   11.0730 O.2     9  ILE9       -0.2867
      5  CB         9.6490   -1.2680   12.2600 C.3     9  ILE9        0.0252
      6  CG1       10.3810   -2.3290   11.4230 C.3     9  ILE9        0.0019
      7  CG2        9.5090   -1.6750   13.7300 C.3     9  ILE9        0.0019
      8  CD1       10.7690   -1.8670   10.0250 C.3     9  ILE9        0.0001
      9  N          5.0890   -2.8830    8.7130 N.3    12  VAL12      -0.1245
     10  CA         5.6820   -3.5390    7.5500 C.3    12  VAL12       0.1561
     11  C          5.6490   -5.0600    7.6930 C.2    12  VAL12       0.2260
     12  O          6.2270   -5.7620    6.8640 O.2    12  VAL12      -0.2867
     13  CB         7.1210   -3.0310    7.2060 C.3    12  VAL12       0.0252
     14  CG1        7.1570   -1.5160    7.1560 C.3    12  VAL12       0.0019
     15  CG2        8.1950   -3.5810    8.1380 C.3    12  VAL12       0.0019
     16  N         25.7940  -11.8880   -5.2680 N.3    35  PRO35      -0.2102
     17  CA        25.7100  -11.8910   -3.8000 C.3    35  PRO35       0.1504
     18  C         24.6100  -11.0390   -3.1740 C.2    35  PRO35       0.2575
     19  O         24.2400  -11.2810   -2.0320 O.2    35  PRO35      -0.2718
     20  CB        27.1090  -11.3930   -3.3810 C.3    35  PRO35       0.0282
     21  CG        27.9560  -11.6080   -4.6110 C.3    35  PRO35       0.0208
     22  CD        27.0290  -11.2260   -5.7080 C.3    35  PRO35       0.0893
     23  N         24.1010  -10.0440   -3.8930 N.am   36  LEU36      -0.1980
     24  CA        22.9830   -9.2670   -3.3940 C.3    36  LEU36       0.1596
     25  C         21.6890   -9.5430   -4.1170 C.2    36  LEU36       0.2287
     26  O         20.7080   -8.8380   -3.8980 O.2    36  LEU36      -0.2864
     27  CB        23.3240   -7.7790   -3.4240 C.3    36  LEU36       0.0297
     28  CG        24.5160   -7.4040   -2.5400 C.3    36  LEU36       0.0022
     29  CD1       24.7630   -5.9060   -2.6460 C.3    36  LEU36       0.0001
     30  CD2       24.3260   -7.8010   -1.0800 C.3    36  LEU36       0.0001
     31  N         18.7830  -11.1190   -3.7760 N.3    38  VAL38      -0.1245
     32  CA        17.9680  -11.7750   -2.7630 C.3    38  VAL38       0.1561
     33  C         16.5320  -11.4230   -3.0070 C.2    38  VAL38       0.2260
     34  O         16.2450  -10.3850   -3.5800 O.2    38  VAL38      -0.2867
     35  CB        18.3640  -11.4140   -1.3240 C.3    38  VAL38       0.0252
     36  CG1       19.6390  -12.1510   -0.9530 C.3    38  VAL38       0.0019
     37  CG2       18.4940   -9.9080   -1.1110 C.3    38  VAL38       0.0019
     38  N         12.8890  -11.1580   -1.1530 N.3    40  VAL40      -0.1245
     39  CA        12.1890  -11.0530    0.1220 C.3    40  VAL40       0.1561
     40  C         10.8870  -11.8560    0.0310 C.2    40  VAL40       0.2260
     41  O         10.2270  -11.8200   -0.9770 O.2    40  VAL40      -0.2867
     42  CB        11.9120   -9.5720    0.4750 C.3    40  VAL40       0.0252
     43  CG1       11.1050   -9.4450    1.7580 C.3    40  VAL40       0.0019
     44  CG2       13.2230   -8.8100    0.6250 C.3    40  VAL40       0.0019
     45  N          8.6290  -10.1130    6.0610 N.3    43  LEU43      -0.1245
     46  CA         9.2700   -9.3060    7.0890 C.3    43  LEU43       0.1561
     47  C          8.5730   -9.5520    8.4370 C.2    43  LEU43       0.2260
     48  O          7.3820   -9.3010    8.5790 O.2    43  LEU43      -0.2867
     49  CB         9.1900   -7.8280    6.7010 C.3    43  LEU43       0.0270
     50  CG        10.4100   -7.1610    6.0800 C.3    43  LEU43       0.0019
     51  CD1       11.1140   -8.0020    5.0350 C.3    43  LEU43       0.0001
     52  CD2        9.9260   -5.8460    5.5010 C.3    43  LEU43       0.0001
     53  N         14.1900   -6.3170   13.1860 N.3    51  LEU51      -0.1245
     54  CA        13.5050   -6.7750   11.9760 C.3    51  LEU51       0.1561
     55  C         14.0790   -8.0600   11.4040 C.2    51  LEU51       0.2260
     56  O         15.2160   -8.0950   10.9680 O.2    51  LEU51      -0.2867
     57  CB        13.5300   -5.6810   10.9260 C.3    51  LEU51       0.0270
     58  CG        12.6450   -5.9140    9.7070 C.3    51  LEU51       0.0019
     59  CD1       11.1560   -5.9990   10.0440 C.3    51  LEU51       0.0001
     60  CD2       12.9460   -4.7990    8.7280 C.3    51  LEU51       0.0001
     61  N         14.0110  -10.8550    8.5140 N.3    53  ILE53      -0.1245
     62  CA        13.7130  -10.9770    7.0870 C.3    53  ILE53       0.1561
     63  C         13.8440  -12.4310    6.6720 C.2    53  ILE53       0.2260
     64  O         14.9330  -12.9980    6.7550 O.2    53  ILE53      -0.2867
     65  CB        14.7230  -10.1710    6.2230 C.3    53  ILE53       0.0252
     66  CG1       14.7990   -8.7180    6.6890 C.3    53  ILE53       0.0019
     67  CG2       14.3900  -10.2690    4.7300 C.3    53  ILE53       0.0019
     68  CD1       16.0470   -8.4350    7.4960 C.3    53  ILE53       0.0001
     69  N         14.1730  -14.4700    3.4380 N.3    55  LEU55      -0.1245
     70  CA        14.4050  -14.2840    2.0130 C.3    55  LEU55       0.1561
     71  C         14.8100  -15.5760    1.3400 C.2    55  LEU55       0.2260
     72  O         15.0020  -16.5870    1.9970 O.2    55  LEU55      -0.2867
     73  CB        15.4240  -13.1590    1.7560 C.3    55  LEU55       0.0270
     74  CG        16.8200  -13.2370    2.3780 C.3    55  LEU55       0.0019
     75  CD1       17.7820  -14.0200    1.5070 C.3    55  LEU55       0.0001
     76  CD2       17.3540  -11.8240    2.5680 C.3    55  LEU55       0.0001
     77  N         17.7460  -16.8810   -1.5350 N.3    57  LYS57      -0.1245
     78  CA        18.9650  -16.5600   -2.2530 C.3    57  LYS57       0.1561
     79  C         19.3730  -17.8150   -3.0080 C.2    57  LYS57       0.2260
     80  O         19.4280  -18.9050   -2.4160 O.2    57  LYS57      -0.2867
     81  CB        20.0700  -16.1570   -1.2790 C.3    57  LYS57       0.0271
     82  CG        21.0630  -15.1600   -1.8460 C.3    57  LYS57       0.0035
     83  CD        22.5110  -15.6110   -1.7740 C.3    57  LYS57       0.0206
     84  CE        23.3540  -14.8880   -2.8160 C.3    57  LYS57       0.1093
     85  NZ        23.0690  -15.3500   -4.2150 N.3    57  LYS57      -0.1314
     86  N         21.6630  -20.4900   -4.3090 N.3    59  GLU59      -0.1245
     87  CA        22.7670  -20.9740   -3.4690 C.3    59  GLU59       0.1567
     88  C         23.4650  -22.1990   -4.1040 C.2    59  GLU59       0.2260
     89  O         24.1140  -22.0280   -5.1390 O.2    59  GLU59      -0.2867
     90  CB        22.2580  -21.1600   -2.0080 C.3    59  GLU59       0.0388
     91  CG        23.2000  -20.6920   -0.8930 C.3    59  GLU59       0.1160
     92  CD        23.5960  -19.2140   -0.9790 C.2    59  GLU59       0.3649
     93  OE1       24.0690  -18.7560   -2.0400 O.co2  59  GLU59      -0.2457
     94  OE2       23.4680  -18.4960    0.0370 O.co2  59  GLU59      -0.2457
     95  N         16.5100  -18.2500    3.6170 N.3    66  LYS66      -0.1245
     96  CA        17.4390  -17.6520    4.5510 C.3    66  LYS66       0.1561
     97  C         16.6430  -16.8370    5.5450 C.2    66  LYS66       0.2260
     98  O         15.5740  -16.3390    5.2110 O.2    66  LYS66      -0.2867
     99  CB        18.4230  -16.7630    3.8060 C.3    66  LYS66       0.0271
    100  CG        19.4240  -17.5170    2.9490 C.3    66  LYS66       0.0035
    101  CD        20.4390  -18.2600    3.8070 C.3    66  LYS66       0.0206
    102  CE        21.6380  -18.7290    2.9990 C.3    66  LYS66       0.1093
    103  NZ        22.6750  -17.6690    2.8480 N.3    66  LYS66      -0.1314
    104  N         17.2820  -13.7440    8.5510 N.3    68  ILE68      -0.1245
    105  CA        18.2410  -12.6730    8.7990 C.3    68  ILE68       0.1561
    106  C         17.5980  -11.6950    9.7680 C.2    68  ILE68       0.2260
    107  O         16.4100  -11.3930    9.6400 O.2    68  ILE68      -0.2867
    108  CB        18.6270  -11.9670    7.4750 C.3    68  ILE68       0.0252
    109  CG1       19.5910  -12.8410    6.6680 C.3    68  ILE68       0.0019
    110  CG2       19.2890  -10.6100    7.7090 C.3    68  ILE68       0.0019
    111  CD1       19.5110  -12.6070    5.1850 C.3    68  ILE68       0.0001
    112  N         17.8960   -7.8730   10.9630 N.3    70  ALA70      -0.1245
    113  CA        18.4130   -6.5120   10.9440 C.3    70  ALA70       0.1562
    114  C         18.1260   -5.9470   12.3330 C.2    70  ALA70       0.2260
    115  O         16.9760   -5.9250   12.7900 O.2    70  ALA70      -0.2867
    116  CB        17.7320   -5.6880    9.8650 C.3    70  ALA70       0.0290
    117  N         22.2550   -5.0890    9.5710 N.3    81  ILE81      -0.1231
    118  CA        22.2510   -6.5290    9.3950 C.3    81  ILE81       0.1692
    119  C         23.6760   -6.9970    9.6990 C.2    81  ILE81       0.2592
    120  O         24.6330   -6.5860    9.0430 O.2    81  ILE81      -0.2718
    121  CB        21.7100   -6.9820    8.0180 C.3    81  ILE81       0.0266
    122  CG1       22.5470   -6.4860    6.8430 C.3    81  ILE81       0.0019
    123  CG2       20.2720   -6.5220    7.8390 C.3    81  ILE81       0.0020
    124  CD1       22.8530   -7.5980    5.8590 C.3    81  ILE81       0.0001
    125  N         23.8040   -7.8330   10.7280 N.am   82  ASP82      -0.1960
    126  CA        25.1030   -8.1230   11.3450 C.3    82  ASP82       0.1840
    127  C         26.1730   -8.7150   10.4050 C.2    82  ASP82       0.2621
    128  O         26.0030   -9.8090    9.8430 O.2    82  ASP82      -0.2715
    129  CB        24.9130   -9.0490   12.5550 C.3    82  ASP82       0.1450
    130  CG        24.2120   -8.4300   13.7040 C.2    82  ASP82       0.3671
    131  OD1       24.1640   -7.1670   13.8100 O.co2  82  ASP82      -0.2456
    132  OD2       23.7390   -9.2000   14.6050 O.co2  82  ASP82      -0.2456
    133  N         27.2400   -7.9370   10.2060 N.am   83  ALA83      -0.1977
    134  CA        28.5570   -8.4630    9.8490 C.3    83  ALA83       0.1597
    135  C         29.5720   -7.9560   10.9150 C.2    83  ALA83       0.2287
    136  O         29.7750   -8.6280   11.9370 O.2    83  ALA83      -0.2864
    137  CB        28.9460   -8.1010    8.4290 C.3    83  ALA83       0.0319
    138  N         26.7720   -3.4010    7.4760 N.3    87  ASN87      -0.1240
    139  CA        25.7630   -3.1600    6.4840 C.3    87  ASN87       0.1653
    140  C         24.5430   -2.5190    7.1170 C.2    87  ASN87       0.2266
    141  O         23.9530   -3.0850    8.0370 O.2    87  ASN87      -0.2867
    142  CB        25.3960   -4.4790    5.8100 C.3    87  ASN87       0.1155
    143  CG        26.5720   -5.1220    5.1820 C.2    87  ASN87       0.2627
    144  OD1       27.2530   -4.5090    4.3880 O.2    87  ASN87      -0.2716
    145  ND2       26.8490   -6.3450    5.5020 N.am   87  ASN87      -0.0877
    146  N         20.6430   -1.1780    6.5070 N.3    89  VAL89      -0.1245
    147  CA        19.4320   -1.2600    5.7220 C.3    89  VAL89       0.1561
    148  C         18.6270   -0.0010    6.0660 C.2    89  VAL89       0.2260
    149  O         18.3270    0.2010    7.2280 O.2    89  VAL89      -0.2867
    150  CB        18.6140   -2.5260    6.0980 C.3    89  VAL89       0.0252
    151  CG1       17.3310   -2.6490    5.2920 C.3    89  VAL89       0.0019
    152  CG2       19.4350   -3.7930    5.9130 C.3    89  VAL89       0.0019
    153  N         15.1010    2.1870    5.2540 N.3    91  VAL91      -0.1245
    154  CA        13.7850    2.1970    4.6210 C.3    91  VAL91       0.1561
    155  C         13.5810    3.6110    4.1190 C.2    91  VAL91       0.2260
    156  O         13.5620    4.5470    4.9110 O.2    91  VAL91      -0.2867
    157  CB        12.6680    1.8030    5.6030 C.3    91  VAL91       0.0252
    158  CG1       11.3020    1.7890    4.9260 C.3    91  VAL91       0.0019
    159  CG2       12.9600    0.4350    6.2170 C.3    91  VAL91       0.0019
    160  N          7.1050   -0.7840   -0.5440 N.3   100  LEU100     -0.1245
    161  CA         8.1770   -0.3730    0.3710 C.3   100  LEU100      0.1561
    162  C          9.4920   -0.3140   -0.3820 C.2   100  LEU100      0.2260
    163  O          9.8740   -1.2930   -1.0270 O.2   100  LEU100     -0.2867
    164  CB         8.3150   -1.3350    1.5520 C.3   100  LEU100      0.0270
    165  CG         9.3570   -0.9540    2.6190 C.3   100  LEU100      0.0019
    166  CD1        8.8740   -1.2900    4.0220 C.3   100  LEU100      0.0001
    167  CD2       10.6950   -1.6140    2.3860 C.3   100  LEU100      0.0001
    168  N         13.6060    0.0930   -0.0090 N.3   102  PHE102     -0.1241
    169  CA        14.7540    0.0550    0.8910 C.3   102  PHE102      0.1605
    170  C         16.0530   -0.0180    0.1030 C.2   102  PHE102      0.2264
    171  O         16.0470   -0.3190   -1.0740 O.2   102  PHE102     -0.2867
    172  CB        14.6570   -1.1230    1.8740 C.3   102  PHE102      0.0534
    173  CG        15.0310   -2.4660    1.2780 C.ar  102  PHE102     -0.0203
    174  CD1       14.0670   -3.2690    0.6890 C.ar  102  PHE102     -0.0042
    175  CD2       16.3520   -2.9300    1.3310 C.ar  102  PHE102     -0.0042
    176  CE1       14.3960   -4.4980    0.1650 C.ar  102  PHE102     -0.0003
    177  CE2       16.6940   -4.1590    0.7950 C.ar  102  PHE102     -0.0003
    178  CZ        15.7070   -4.9420    0.2080 C.ar  102  PHE102     -0.0000
    179  N         20.3670   -1.2010    0.8710 N.3   104  MET104     -0.1245
    180  CA        21.3480   -1.6960    1.8100 C.3   104  MET104      0.1570
    181  C         22.6620   -1.1490    1.3620 C.2   104  MET104      0.2261
    182  O         22.9360   -1.1740    0.1740 O.2   104  MET104     -0.2867
    183  CB        21.4040   -3.2110    1.8230 C.3   104  MET104      0.0387
    184  CG        22.0370   -3.7340    3.1000 C.3   104  MET104      0.0595
    185  SD        22.7820   -5.3530    2.9220 S.3   104  MET104     -0.1393
    186  CE        24.3070   -4.8840    2.0980 C.3   104  MET104      0.0692
    187  N          9.8340   -3.2620   -3.0090 N.3   119  LEU119     -0.1245
    188  CA         8.9470   -4.3040   -2.5420 C.3   119  LEU119      0.1561
    189  C          7.4860   -3.9220   -2.7480 C.2   119  LEU119      0.2260
    190  O          7.0990   -2.7550   -2.5450 O.2   119  LEU119     -0.2867
    191  CB         9.1830   -4.5590   -1.0580 C.3   119  LEU119      0.0270
    192  CG        10.6000   -4.9820   -0.6560 C.3   119  LEU119      0.0019
    193  CD1       10.5750   -5.3010    0.8300 C.3   119  LEU119      0.0001
    194  CD2       11.1340   -6.1630   -1.4650 C.3   119  LEU119      0.0001
@<TRIPOS>BOND
     1    22    16    1
     2    22    21    1
     3    16    17    1
     4    89    88    2
     5    21    20    1
     6    86    87    1
     7    85    84    1
     8    25    26    2
     9    25    24    1
    10    88    87    1
    11    23    24    1
    12    23    18   am
    13    17    20    1
    14    17    18    1
    15    31    32    1
    16    34    33    2
    17    87    90    1
    18    27    24    1
    19    27    28    1
    20    18    19    2
    21   187   188    1
    22    79    80    2
    23    79    78    1
    24    33    32    1
    25    84    83    1
    26    32    35    1
    27   189   190    2
    28   189   188    1
    29    29    28    1
    30   188   191    1
    31    28    30    1
    32    78    77    1
    33    78    81    1
    34    93    92   ar
    35    90    91    1
    36    82    83    1
    37    82    81    1
    38   194   192    1
    39    35    37    1
    40    35    36    1
    41    38    39    1
    42   171   170    2
    43   191   192    1
    44   163   162    2
    45    92    91    1
    46    92    94   ar
    47    41    40    2
    48   192   193    1
    49   160   161    1
    50   162   161    1
    51   168   169    1
    52    40    39    1
    53   170   169    1
    54    39    42    1
    55   176   178   ar
    56   176   174   ar
    57   182   181    2
    58   178   177   ar
    59   161   164    1
    60    42    44    1
    61    42    43    1
    62   174   173   ar
    63   177   175   ar
    64   179   180    1
    65   169   172    1
    66   173   175   ar
    67   173   172    1
    68    71    72    2
    69    71    70    1
    70   181   180    1
    71    75    74    1
    72   164   165    1
    73    73    70    1
    74    73    74    1
    75   180   183    1
    76   183   184    1
    77    70    69    1
    78   186   185    1
    79    74    76    1
    80   167   165    1
    81   165   166    1
    82   103   102    1
    83   185   184    1
    84   100    99    1
    85   100   101    1
    86   102   101    1
    87    95    96    1
    88    99    96    1
    89   155   154    1
    90   155   156    2
    91   144   143    2
    92    96    97    1
    93   154   153    1
    94   154   157    1
    95    67    65    1
    96   158   157    1
    97    51    50    1
    98   143   145   am
    99   143   142    1
   100   111   109    1
   101    98    97    2
   102   151   150    1
   103    52    50    1
   104   157   159    1
   105   147   148    1
   106   147   150    1
   107   147   146    1
   108   142   139    1
   109   124   122    1
   110   152   150    1
   111    45    46    1
   112   148   149    2
   113    50    49    1
   114    65    66    1
   115    65    62    1
   116   139   140    1
   117   139   138    1
   118   109   108    1
   119    63    64    2
   120    63    62    1
   121    66    68    1
   122    49    46    1
   123   122   121    1
   124    12    11    2
   125    62    61    1
   126    46    47    1
   127   140   141    2
   128    14    13    1
   129    13    10    1
   130    13    15    1
   131   108   110    1
   132   108   105    1
   133    10    11    1
   134    10     9    1
   135   123   121    1
   136   121   118    1
   137   137   134    1
   138    47    48    2
   139   104   105    1
   140    60    58    1
   141   105   106    1
   142   120   119    2
   143   118   117    1
   144   118   119    1
   145   107   106    2
   146   119   125   am
   147    58    59    1
   148    58    57    1
   149   128   127    2
   150   134   133    1
   151   134   135    1
   152   116   113    1
   153     8     6    1
   154   133   127   am
   155   127   126    1
   156   125   126    1
   157   135   136    2
   158    57    54    1
   159   113   112    1
   160   113   114    1
   161    56    55    2
   162     4     3    2
   163   126   129    1
   164    55    54    1
   165     6     5    1
   166     2     3    1
   167     2     1    1
   168     2     5    1
   169    54    53    1
   170     5     7    1
   171   114   115    2
   172   129   130    1
   173   130   131   ar
   174   130   132   ar
