@<TRIPOS>MOLECULE
tmp/5y5eA00.pdb
 149 145 0 0 0
SMALL
GASTEIGER

@<TRIPOS>ATOM
      1  N          9.8700  -20.6680   -4.6850 N.3     1  VAL1       -0.1245
      2  CA         8.4360  -21.0510   -4.4270 C.3     1  VAL1        0.1561
      3  C          7.4740  -20.0150   -5.0250 C.2     1  VAL1        0.2260
      4  O          6.7190  -20.3430   -5.9390 O.2     1  VAL1       -0.2867
      5  CB         8.1520  -21.3680   -2.9190 C.3     1  VAL1        0.0252
      6  CG1        8.5390  -20.2160   -1.9850 C.3     1  VAL1        0.0019
      7  CG2        6.6980  -21.8250   -2.7020 C.3     1  VAL1        0.0019
      8  N          7.9470  -17.2980   -7.1470 N.3     3  PHE3       -0.1227
      9  CA         8.0660  -17.0920   -8.6180 C.3     3  PHE3        0.1736
     10  C          7.5470  -18.3200   -9.3380 C.2     3  PHE3        0.2596
     11  O          6.7830  -18.2090  -10.2750 O.2     3  PHE3       -0.2718
     12  CB         9.4940  -16.7420   -9.0390 C.3     3  PHE3        0.0547
     13  CG         9.6630  -16.4070  -10.5090 C.ar    3  PHE3       -0.0202
     14  CD1        8.6510  -15.7910  -11.2650 C.ar    3  PHE3       -0.0042
     15  CD2       10.8560  -16.6940  -11.1440 C.ar    3  PHE3       -0.0042
     16  CE1        8.8490  -15.4650  -12.5940 C.ar    3  PHE3       -0.0003
     17  CE2       11.0530  -16.3650  -12.4670 C.ar    3  PHE3       -0.0003
     18  CZ        10.0570  -15.7610  -13.2030 C.ar    3  PHE3       -0.0000
     19  N          7.9050  -19.4970   -8.8390 N.am    4  GLY4       -0.1957
     20  CA         7.4170  -20.7520   -9.4000 C.3     4  GLY4        0.1869
     21  C          5.9140  -20.8640   -9.3940 C.2     4  GLY4        0.2309
     22  O          5.2890  -21.2780  -10.3840 O.2     4  GLY4       -0.2863
     23  N          4.6810  -18.5330  -12.0350 N.3     7  ILE7       -0.1245
     24  CA         4.8490  -19.1370  -13.3570 C.3     7  ILE7        0.1561
     25  C          3.7120  -20.1350  -13.6400 C.2     7  ILE7        0.2260
     26  O          3.0940  -20.0930  -14.7080 O.2     7  ILE7       -0.2867
     27  CB         6.2230  -19.8290  -13.5030 C.3     7  ILE7        0.0252
     28  CG1        7.3480  -18.7650  -13.5320 C.3     7  ILE7        0.0019
     29  CG2        6.2700  -20.6780  -14.7810 C.3     7  ILE7        0.0019
     30  CD1        8.7220  -19.3320  -13.2590 C.3     7  ILE7        0.0001
     31  N          6.6180  -25.0390  -13.0070 N.3    15  ALA15      -0.1231
     32  CA         7.7430  -24.1010  -12.8510 C.3    15  ALA15       0.1694
     33  C          9.0420  -24.6670  -13.4260 C.2    15  ALA15       0.2591
     34  O          9.8380  -23.9360  -14.0080 O.2    15  ALA15      -0.2718
     35  CB         7.9540  -23.7520  -11.3930 C.3    15  ALA15       0.0304
     36  N          9.2080  -25.9830  -13.2700 N.am   16  LEU16      -0.1980
     37  CA        10.3890  -26.7310  -13.7170 C.3    16  LEU16       0.1596
     38  C         10.6490  -26.5590  -15.2240 C.2    16  LEU16       0.2287
     39  O         11.8010  -26.5670  -15.6590 O.2    16  LEU16      -0.2864
     40  CB        10.1950  -28.2330  -13.4150 C.3    16  LEU16       0.0297
     41  CG        10.1480  -28.7860  -11.9720 C.3    16  LEU16       0.0022
     42  CD1        9.2900  -28.0200  -10.9520 C.3    16  LEU16       0.0001
     43  CD2        9.6900  -30.2480  -12.0360 C.3    16  LEU16       0.0001
     44  N         10.3150  -23.8990  -16.9770 N.3    18  TYR18      -0.1227
     45  CA        10.9860  -22.6400  -17.2470 C.3    18  TYR18       0.1736
     46  C         12.3300  -22.5610  -16.5460 C.2    18  TYR18       0.2596
     47  O         13.2280  -21.8810  -17.0150 O.2    18  TYR18      -0.2718
     48  CB        10.0940  -21.4810  -16.8570 C.3    18  TYR18       0.0548
     49  CG         8.9750  -21.2770  -17.8410 C.ar   18  TYR18      -0.0200
     50  CD1        9.1660  -20.5030  -18.9840 C.ar   18  TYR18      -0.0009
     51  CD2        7.7330  -21.8740  -17.6480 C.ar   18  TYR18      -0.0009
     52  CE1        8.1330  -20.3100  -19.8930 C.ar   18  TYR18       0.0417
     53  CE2        6.7000  -21.6900  -18.5460 C.ar   18  TYR18       0.0417
     54  CZ         6.8970  -20.9120  -19.6690 C.ar   18  TYR18       0.1957
     55  OH         5.8880  -20.7080  -20.5600 O.3    18  TYR18      -0.2866
     56  N         12.4990  -23.2870  -15.4490 N.am   19  GLY19      -0.1957
     57  CA        13.6840  -23.1490  -14.6440 C.3    19  GLY19       0.1869
     58  C         15.0420  -23.4570  -15.1760 C.2    19  GLY19       0.2309
     59  O         16.0430  -23.0820  -14.5240 O.2    19  GLY19      -0.2863
     60  N         19.1610  -18.3880  -20.7370 N.3    24  TYR24      -0.1227
     61  CA        18.9630  -17.4410  -19.6290 C.3    24  TYR24       0.1736
     62  C         18.0280  -17.8760  -18.4950 C.2    24  TYR24       0.2596
     63  O         18.1300  -17.3360  -17.3990 O.2    24  TYR24      -0.2718
     64  CB        18.5340  -16.0570  -20.1610 C.3    24  TYR24       0.0548
     65  CG        19.7130  -15.3910  -20.7830 C.ar   24  TYR24      -0.0200
     66  CD1       20.0290  -15.6140  -22.1100 C.ar   24  TYR24      -0.0009
     67  CD2       20.5840  -14.6310  -20.0110 C.ar   24  TYR24      -0.0009
     68  CE1       21.1690  -15.0590  -22.6760 C.ar   24  TYR24       0.0417
     69  CE2       21.7410  -14.0780  -20.5630 C.ar   24  TYR24       0.0417
     70  CZ        22.0180  -14.2890  -21.8990 C.ar   24  TYR24       0.1957
     71  OH        23.1500  -13.7200  -22.4490 O.3    24  TYR24      -0.2866
     72  N         17.1250  -18.8100  -18.7340 N.am   25  CYS25      -0.1956
     73  CA        16.1630  -19.1760  -17.6760 C.3    25  CYS25       0.1843
     74  C         16.8720  -20.1270  -16.7220 C.2    25  CYS25       0.2626
     75  O         17.3490  -21.1870  -17.1310 O.2    25  CYS25      -0.2714
     76  CB        14.9040  -19.7920  -18.2600 C.3    25  CYS25       0.0997
     77  SG        14.0490  -18.7810  -19.4580 S.3    25  CYS25      -0.0797
     78  N         16.9170  -19.7610  -15.4490 N.am   26  GLY26      -0.1940
     79  CA        17.7370  -20.4730  -14.4680 C.3    26  GLY26       0.2014
     80  C         18.9160  -19.6050  -14.1010 C.2    26  GLY26       0.2639
     81  O         19.0960  -18.5300  -14.6750 O.2    26  GLY26      -0.2714
     82  N         19.7330  -20.0660  -13.1680 N.am   27  ILE27      -0.1963
     83  CA        20.8100  -19.2260  -12.6140 C.3    27  ILE27       0.1727
     84  C         21.8320  -18.7590  -13.6740 C.2    27  ILE27       0.2616
     85  O         22.3720  -19.5570  -14.4310 O.2    27  ILE27      -0.2715
     86  CB        21.5310  -19.9230  -11.4300 C.3    27  ILE27       0.0290
     87  CG1       20.5620  -20.0780  -10.2450 C.3    27  ILE27       0.0022
     88  CG2       22.7520  -19.1130  -10.9840 C.3    27  ILE27       0.0023
     89  CD1       21.0410  -21.0400   -9.1650 C.3    27  ILE27       0.0001
     90  N         22.0710  -17.4490  -13.7150 N.am   28  GLY28      -0.1955
     91  CA        23.0410  -16.8720  -14.6410 C.3    28  GLY28       0.1869
     92  C         22.5710  -16.9220  -16.0800 C.2    28  GLY28       0.2309
     93  O         21.3690  -16.9400  -16.3630 O.2    28  GLY28      -0.2863
     94  N         13.6830  -14.2420  -19.8060 N.3    41  CYS41      -0.1235
     95  CA        14.6460  -14.5530  -18.7500 C.3    41  CYS41       0.1677
     96  C         15.8790  -13.6350  -18.7180 C.2    41  CYS41       0.2270
     97  O         16.3460  -13.2430  -17.6410 O.2    41  CYS41      -0.2867
     98  CB        15.0690  -16.0140  -18.8430 C.3    41  CYS41       0.0956
     99  SG        13.6720  -17.0800  -18.4380 S.3    41  CYS41      -0.0801
    100  N         14.5880  -10.5830  -17.0910 N.3    44  HIS44      -0.1226
    101  CA        14.3690  -10.8640  -15.6600 C.3    44  HIS44       0.1752
    102  C         15.6990  -10.8170  -14.8890 C.2    44  HIS44       0.2596
    103  O         15.7680  -10.2700  -13.7870 O.2    44  HIS44      -0.2718
    104  CB        13.6850  -12.2130  -15.5170 C.3    44  HIS44       0.0759
    105  CG        13.2710  -12.5530  -14.1200 C.ar   44  HIS44       0.0818
    106  ND1       13.9090  -13.5120  -13.3580 N.ar   44  HIS44      -0.2268
    107  CD2       12.2830  -12.0590  -13.3440 C.ar   44  HIS44       0.1154
    108  CE1       13.3400  -13.5720  -12.1670 C.ar   44  HIS44       0.1986
    109  NE2       12.3310  -12.7220  -12.1450 N.ar   44  HIS44      -0.2212
    110  N         16.7660  -11.3880  -15.4720 N.am   45  ASP45      -0.1974
    111  CA        18.0980  -11.2750  -14.8890 C.3    45  ASP45       0.1709
    112  C         18.5380   -9.8200  -14.7600 C.2    45  ASP45       0.2293
    113  O         19.0790   -9.4280  -13.7180 O.2    45  ASP45      -0.2864
    114  CB        19.1500  -12.0240  -15.7060 C.3    45  ASP45       0.1436
    115  CG        19.0380  -13.5380  -15.6090 C.2    45  ASP45       0.3671
    116  OD1       18.2240  -14.0820  -14.8340 O.co2  45  ASP45      -0.2456
    117  OD2       19.8070  -14.2020  -16.3370 O.co2  45  ASP45      -0.2456
    118  N         16.5480   -8.2350  -11.8350 N.3    48  TYR48      -0.1241
    119  CA        17.1860   -8.5640  -10.5680 C.3    48  TYR48       0.1605
    120  C         18.4810   -7.7830  -10.3280 C.2    48  TYR48       0.2264
    121  O         18.7450   -7.3490   -9.2110 O.2    48  TYR48      -0.2867
    122  CB        17.4180  -10.0710  -10.4370 C.3    48  TYR48       0.0534
    123  CG        16.2170  -10.8610   -9.9090 C.ar   48  TYR48      -0.0201
    124  CD1       14.8890  -10.4090  -10.0720 C.ar   48  TYR48      -0.0009
    125  CD2       16.4020  -12.0840   -9.2810 C.ar   48  TYR48      -0.0009
    126  CE1       13.8100  -11.1620   -9.6040 C.ar   48  TYR48       0.0417
    127  CE2       15.3330  -12.8180   -8.7920 C.ar   48  TYR48       0.0417
    128  CZ        14.0420  -12.3710   -8.9630 C.ar   48  TYR48       0.1957
    129  OH        13.0200  -13.1470   -8.4620 O.3    48  TYR48      -0.2866
    130  N         17.0200  -12.4870   -5.1110 N.3    59  LYS59      -0.1245
    131  CA        17.0920  -13.9600   -5.0780 C.3    59  LYS59       0.1561
    132  C         16.5320  -14.5420   -3.7990 C.2    59  LYS59       0.2260
    133  O         16.1300  -15.7050   -3.7770 O.2    59  LYS59      -0.2867
    134  CB        18.5310  -14.4390   -5.2690 C.3    59  LYS59       0.0271
    135  CG        19.0530  -14.1760   -6.6690 C.3    59  LYS59       0.0035
    136  CD        20.5310  -14.5290   -6.7850 C.3    59  LYS59       0.0206
    137  CE        21.1540  -13.8750   -8.0050 C.3    59  LYS59       0.1093
    138  NZ        22.6120  -14.1430   -8.1020 N.3    59  LYS59      -0.1314
    139  N          6.3390  -14.7110  -20.1870 N.3    95  PHE95      -0.1241
    140  CA         6.1900  -16.1370  -20.4920 C.3    95  PHE95       0.1605
    141  C          4.8210  -16.4370  -21.1000 C.2    95  PHE95       0.2264
    142  O          4.7360  -17.1050  -22.1400 O.2    95  PHE95      -0.2867
    143  CB         6.3580  -17.0440  -19.2840 C.3    95  PHE95       0.0534
    144  CG         7.7210  -17.0320  -18.6570 C.ar   95  PHE95      -0.0203
    145  CD1        8.8850  -16.7120  -19.3770 C.ar   95  PHE95      -0.0042
    146  CD2        7.8500  -17.4130  -17.3190 C.ar   95  PHE95      -0.0042
    147  CE1       10.1200  -16.7530  -18.7530 C.ar   95  PHE95      -0.0003
    148  CE2        9.0800  -17.4580  -16.7030 C.ar   95  PHE95      -0.0003
    149  CZ        10.2190  -17.1220  -17.4210 C.ar   95  PHE95      -0.0000
@<TRIPOS>BOND
     1    68    66   ar
     2    68    70   ar
     3    71    70    1
     4   142   141    2
     5    66    65   ar
     6    70    69   ar
     7   141   140    1
     8    65    64    1
     9    65    67   ar
    10    60    61    1
    11    69    67   ar
    12    55    54    1
    13   140   139    1
    14   140   143    1
    15    64    61    1
    16    52    54   ar
    17    52    50   ar
    18    94    95    1
    19    54    53   ar
    20    61    62    1
    21    77    99    1
    22    77    76    1
    23   145   147   ar
    24   145   144   ar
    25   143   144    1
    26    50    49   ar
    27    98    95    1
    28    98    99    1
    29   147   149   ar
    30    95    96    1
    31    72    62   am
    32    72    73    1
    33    96    97    2
    34   144   146   ar
    35    53    51   ar
    36    62    63    2
    37    76    73    1
    38    49    51   ar
    39    49    48    1
    40    73    74    1
    41   149   148   ar
    42   146   148   ar
    43    45    44    1
    44    45    48    1
    45    45    46    1
    46    75    74    2
    47   100   101    1
    48    47    46    2
    49    74    78   am
    50    46    56   am
    51    93    92    2
    52   117   115   ar
    53    92    91    1
    54   114   115    1
    55   114   111    1
    56   101   104    1
    57   101   102    1
    58    39    38    2
    59   115   116   ar
    60   104   105    1
    61   110   111    1
    62   110   102   am
    63    56    57    1
    64    78    79    1
    65    38    37    1
    66    58    57    1
    67    58    59    2
    68   111   112    1
    69   102   103    2
    70    29    27    1
    71   112   113    2
    72    26    25    2
    73    81    80    2
    74    91    90    1
    75    79    80    1
    76    85    84    2
    77   105   106   ar
    78   105   107   ar
    79    80    82   am
    80    34    33    2
    81    37    40    1
    82    37    36    1
    83    90    84   am
    84    84    83    1
    85    25    24    1
    86    28    27    1
    87    28    30    1
    88    27    24    1
    89    33    36   am
    90    33    32    1
    91    40    41    1
    92   106   108   ar
    93    24    23    1
    94   107   109   ar
    95    18    16   ar
    96    18    17   ar
    97    82    83    1
    98    31    32    1
    99    32    35    1
   100    83    86    1
   101    16    14   ar
   102    17    15   ar
   103   108   109   ar
   104    43    41    1
   105    41    42    1
   106   118   119    1
   107    86    88    1
   108    86    87    1
   109    14    13   ar
   110    15    13   ar
   111   119   122    1
   112   119   120    1
   113    13    12    1
   114   122   123    1
   115    22    21    2
   116   120   121    2
   117    11    10    2
   118    87    89    1
   119   124   123   ar
   120   124   126   ar
   121   123   125   ar
   122   126   128   ar
   123    20    21    1
   124    20    19    1
   125    10    19   am
   126    10     9    1
   127   125   127   ar
   128    12     9    1
   129   128   127   ar
   130   128   129    1
   131     9     8    1
   132   138   137    1
   133   137   136    1
   134   136   135    1
   135   135   134    1
   136     4     3    2
   137   134   131    1
   138   130   131    1
   139   131   132    1
   140     3     2    1
   141     1     2    1
   142     2     5    1
   143   132   133    2
   144     5     7    1
   145     5     6    1
