@<TRIPOS>MOLECULE
tmp/5y5nA00.pdb
 209 207 0 0 0
SMALL
GASTEIGER

@<TRIPOS>ATOM
      1  N         48.0690   59.4670   15.1360 N.3    62  ASP62      -0.1225
      2  CA        48.2480   58.1920   15.8150 C.3    62  ASP62       0.1805
      3  C         49.4860   58.5970   16.6100 C.2    62  ASP62       0.2598
      4  O         50.3210   59.3590   16.1100 O.2    62  ASP62      -0.2718
      5  CB        48.5850   57.0890   14.8020 C.3    62  ASP62       0.1424
      6  CG        48.6980   55.7030   15.4400 C.2    62  ASP62       0.3668
      7  OD1       49.6350   55.4640   16.2400 O.co2  62  ASP62      -0.2456
      8  OD2       47.8380   54.8460   15.1320 O.co2  62  ASP62      -0.2456
      9  N         49.6060   58.1100   17.8370 N.am   63  PHE63      -0.1962
     10  CA        50.7410   58.4470   18.6830 C.3    63  PHE63       0.1771
     11  C         52.0440   57.6940   18.4280 C.2    63  PHE63       0.2619
     12  O         53.1030   58.0970   18.9170 O.2    63  PHE63      -0.2715
     13  CB        50.2870   58.3250   20.1350 C.3    63  PHE63       0.0574
     14  CG        49.1380   59.2420   20.4690 C.ar   63  PHE63      -0.0200
     15  CD1       49.3830   60.5560   20.8500 C.ar   63  PHE63      -0.0042
     16  CD2       47.8190   58.8220   20.3300 C.ar   63  PHE63      -0.0042
     17  CE1       48.3350   61.4440   21.0800 C.ar   63  PHE63      -0.0003
     18  CE2       46.7610   59.7020   20.5570 C.ar   63  PHE63      -0.0003
     19  CZ        47.0210   61.0190   20.9330 C.ar   63  PHE63      -0.0000
     20  N         51.9630   56.6200   17.6470 N.am   64  ARG64      -0.1977
     21  CA        53.1280   55.7990   17.3070 C.3    64  ARG64       0.1597
     22  C         53.9420   56.4740   16.1810 C.2    64  ARG64       0.2287
     23  O         55.0440   56.0220   15.8450 O.2    64  ARG64      -0.2864
     24  CB        52.6840   54.4030   16.8300 C.3    64  ARG64       0.0334
     25  CG        51.8660   53.5670   17.8230 C.3    64  ARG64       0.0492
     26  CD        51.3750   52.2470   17.1830 C.3    64  ARG64       0.2205
     27  NE        50.3110   52.4600   16.1970 N.pl3  64  ARG64      -0.0865
     28  CZ        49.7530   51.5070   15.4480 C.cat  64  ARG64       0.5346
     29  NH1       50.1480   50.2470   15.5550 N.pl3  64  ARG64       0.1354
     30  NH2       48.7970   51.8160   14.5790 N.pl3  64  ARG64       0.1354
     31  N         59.0980   52.0540   24.5630 N.3    74  ILE74      -0.1231
     32  CA        58.1630   52.9460   25.2300 C.3    74  ILE74       0.1692
     33  C         56.7210   52.4880   24.9800 C.2    74  ILE74       0.2592
     34  O         55.7860   52.9160   25.6630 O.2    74  ILE74      -0.2718
     35  CB        58.3540   54.3880   24.7410 C.3    74  ILE74       0.0266
     36  CG1       57.6260   55.3540   25.6710 C.3    74  ILE74       0.0019
     37  CG2       57.8400   54.5220   23.3190 C.3    74  ILE74       0.0020
     38  CD1       58.1550   56.7670   25.5800 C.3    74  ILE74       0.0001
     39  N         56.5620   51.6000   24.0050 N.am   75  PHE75      -0.1976
     40  CA        55.2680   51.0490   23.6280 C.3    75  PHE75       0.1639
     41  C         55.0680   49.6290   24.1800 C.2    75  PHE75       0.2290
     42  O         53.9670   49.0750   24.1030 O.2    75  PHE75      -0.2864
     43  CB        55.1440   51.0140   22.0940 C.3    75  PHE75       0.0560
     44  CG        55.2040   52.3670   21.4500 C.ar   75  PHE75      -0.0200
     45  CD1       56.3280   52.7730   20.7390 C.ar   75  PHE75      -0.0042
     46  CD2       54.1460   53.2530   21.5810 C.ar   75  PHE75      -0.0042
     47  CE1       56.3960   54.0550   20.1840 C.ar   75  PHE75      -0.0003
     48  CE2       54.2030   54.5260   21.0350 C.ar   75  PHE75      -0.0003
     49  CZ        55.3260   54.9290   20.3340 C.ar   75  PHE75      -0.0000
     50  N         56.9920   56.5880   29.1230 N.3    87  PHE87      -0.1241
     51  CA        55.6510   56.6300   28.5470 C.3    87  PHE87       0.1605
     52  C         54.8500   57.8230   29.0380 C.2    87  PHE87       0.2264
     53  O         54.3000   58.5720   28.2380 O.2    87  PHE87      -0.2867
     54  CB        54.8640   55.3570   28.8750 C.3    87  PHE87       0.0534
     55  CG        53.4050   55.4530   28.5330 C.ar   87  PHE87      -0.0203
     56  CD1       52.9670   55.2410   27.2270 C.ar   87  PHE87      -0.0042
     57  CD2       52.4680   55.7730   29.5060 C.ar   87  PHE87      -0.0042
     58  CE1       51.6170   55.3470   26.9000 C.ar   87  PHE87      -0.0003
     59  CE2       51.1170   55.8820   29.1890 C.ar   87  PHE87      -0.0003
     60  CZ        50.6870   55.6710   27.8850 C.ar   87  PHE87      -0.0000
     61  N         56.0280   61.1130   27.5460 N.3    90  LEU90      -0.1231
     62  CA        55.5710   61.2480   26.1700 C.3    90  LEU90       0.1693
     63  C         54.0660   61.5410   26.1500 C.2    90  LEU90       0.2591
     64  O         53.5960   62.3700   25.3620 O.2    90  LEU90      -0.2718
     65  CB        55.8750   59.9620   25.3960 C.3    90  LEU90       0.0284
     66  CG        55.7650   60.0210   23.8720 C.3    90  LEU90       0.0019
     67  CD1       56.6810   61.1180   23.3120 C.3    90  LEU90       0.0001
     68  CD2       56.1390   58.6610   23.3090 C.3    90  LEU90       0.0001
     69  N         53.3150   60.8640   27.0190 N.am   91  ALA91      -0.1980
     70  CA        51.8750   61.0610   27.0920 C.3    91  ALA91       0.1597
     71  C         51.5520   62.5250   27.4050 C.2    91  ALA91       0.2287
     72  O         50.5290   63.0460   26.9790 O.2    91  ALA91      -0.2864
     73  CB        51.2760   60.1530   28.1510 C.3    91  ALA91       0.0319
     74  N         52.3830   64.6590   24.1670 N.3    94  LEU94      -0.1231
     75  CA        51.3430   64.4140   23.1730 C.3    94  LEU94       0.1693
     76  C         49.8970   64.5870   23.5890 C.2    94  LEU94       0.2592
     77  O         49.0070   64.4450   22.7560 O.2    94  LEU94      -0.2718
     78  CB        51.5020   63.0020   22.6100 C.3    94  LEU94       0.0284
     79  CG        52.7780   62.7450   21.8150 C.3    94  LEU94       0.0019
     80  CD1       52.8960   61.2650   21.5180 C.3    94  LEU94       0.0001
     81  CD2       52.7460   63.5620   20.5310 C.3    94  LEU94       0.0001
     82  N         49.6490   64.8670   24.8640 N.am   95  TYR95      -0.1963
     83  CA        48.2800   65.0460   25.3290 C.3    95  TYR95       0.1756
     84  C         47.5980   66.1030   24.4710 C.2    95  TYR95       0.2461
     85  O         48.1050   67.2120   24.3200 O.2    95  TYR95      -0.2730
     86  CB        48.2680   65.4890   26.7870 C.3    95  TYR95       0.0574
     87  CG        46.9930   65.1410   27.5020 C.ar   95  TYR95      -0.0198
     88  CD1       45.8130   65.8410   27.2660 C.ar   95  TYR95      -0.0009
     89  CD2       46.9650   64.0880   28.4080 C.ar   95  TYR95      -0.0009
     90  CE1       44.6260   65.4900   27.9250 C.ar   95  TYR95       0.0417
     91  CE2       45.8020   63.7350   29.0610 C.ar   95  TYR95       0.0417
     92  CZ        44.6360   64.4300   28.8210 C.ar   95  TYR95       0.1957
     93  OH        43.4850   64.0240   29.4690 O.3    95  TYR95      -0.2866
     94  N         46.4320   65.7690   23.8930 N.am   96  PRO96      -0.2727
     95  CA        45.6860   66.7040   23.0410 C.3    96  PRO96       0.1402
     96  C         45.1610   67.9190   23.7790 C.2    96  PRO96       0.2269
     97  O         44.6260   67.8070   24.8850 O.2    96  PRO96      -0.2865
     98  CB        44.5330   65.8530   22.5000 C.3    96  PRO96       0.0296
     99  CG        45.0450   64.4550   22.5940 C.3    96  PRO96       0.0237
    100  CD        45.7810   64.4480   23.9030 C.3    96  PRO96       0.0939
    101  N         39.3910   67.7920   22.8280 N.3    99  PHE99      -0.1241
    102  CA        38.7160   66.5940   22.3720 C.3    99  PHE99       0.1605
    103  C         37.4050   67.0340   21.7590 C.2    99  PHE99       0.2264
    104  O         36.4060   67.1970   22.4620 O.2    99  PHE99      -0.2867
    105  CB        38.4290   65.6280   23.5120 C.3    99  PHE99       0.0534
    106  CG        39.6550   65.0850   24.1520 C.ar   99  PHE99      -0.0203
    107  CD1       40.3150   63.9840   23.6100 C.ar   99  PHE99      -0.0042
    108  CD2       40.1660   65.6870   25.2930 C.ar   99  PHE99      -0.0042
    109  CE1       41.4740   63.4950   24.1980 C.ar   99  PHE99      -0.0003
    110  CE2       41.3160   65.2090   25.8830 C.ar   99  PHE99      -0.0003
    111  CZ        41.9760   64.1080   25.3390 C.ar   99  PHE99      -0.0000
    112  N         40.5300   51.7320   15.6010 N.3   123  GLN123     -0.1245
    113  CA        41.9660   51.5600   15.8240 C.3   123  GLN123      0.1566
    114  C         42.4500   52.7680   16.6380 C.2   123  GLN123      0.2260
    115  O         43.5830   52.7900   17.1020 O.2   123  GLN123     -0.2867
    116  CB        42.7460   51.5130   14.4850 C.3   123  GLN123      0.0367
    117  CG        42.9580   50.1070   13.8810 C.3   123  GLN123      0.0905
    118  CD        43.8320   50.0940   12.6060 C.2   123  GLN123      0.2608
    119  OE1       45.0680   50.0640   12.6720 O.2   123  GLN123     -0.2717
    120  NE2       43.1810   50.1200   11.4460 N.am  123  GLN123     -0.0878
    121  N         42.7330   55.4320   19.7990 N.3   125  ILE125     -0.1231
    122  CA        42.7330   55.4030   21.2590 C.3   125  ILE125      0.1692
    123  C         42.3500   56.8030   21.7380 C.2   125  ILE125      0.2592
    124  O         42.1840   57.0450   22.9350 O.2   125  ILE125     -0.2718
    125  CB        44.1520   55.0980   21.8240 C.3   125  ILE125      0.0266
    126  CG1       45.1380   56.1750   21.3500 C.3   125  ILE125      0.0019
    127  CG2       44.6340   53.7260   21.3630 C.3   125  ILE125      0.0020
    128  CD1       46.4570   56.1930   22.1150 C.3   125  ILE125      0.0001
    129  N         42.1860   57.7200   20.7870 N.am  126  ASP126     -0.1960
    130  CA        41.8410   59.1030   21.1170 C.3   126  ASP126      0.1840
    131  C         40.5690   59.4240   21.8990 C.2   126  ASP126      0.2622
    132  O         40.3990   60.5990   22.2910 O.2   126  ASP126     -0.2715
    133  CB        41.9250   59.9780   19.8680 C.3   126  ASP126      0.1450
    134  CG        40.9210   59.6010   18.8170 C.2   126  ASP126      0.3671
    135  OD1       39.7430   59.3820   19.1710 O.co2 126  ASP126     -0.2456
    136  OD2       41.3120   59.5400   17.6300 O.co2 126  ASP126     -0.2456
    137  N         39.6990   58.4380   22.1000 N.am  127  THR127     -0.1951
    138  CA        38.4680   58.6820   22.8510 C.3   127  THR127      0.1897
    139  C         37.3090   59.4920   22.2000 C.2   127  THR127      0.2313
    140  O         36.2290   59.5990   22.7910 O.2   127  THR127     -0.2863
    141  CB        38.8450   59.3880   24.1970 C.3   127  THR127      0.1794
    142  OG1       38.5000   58.5230   25.2760 O.3   127  THR127     -0.2208
    143  CG2       38.1340   60.6800   24.3060 C.3   127  THR127      0.0378
    144  N         42.9060   49.1740   19.8360 N.3   143  HIS143     -0.1241
    145  CA        44.2740   49.4860   20.2650 C.3   143  HIS143      0.1621
    146  C         44.1140   49.9860   21.6800 C.2   143  HIS143      0.2264
    147  O         45.0360   50.5140   22.2990 O.2   143  HIS143     -0.2867
    148  CB        44.9190   50.5360   19.3550 C.3   143  HIS143      0.0745
    149  CG        45.3950   49.9740   18.0540 C.ar  143  HIS143      0.0817
    150  ND1       46.1480   50.6980   17.1530 N.ar  143  HIS143     -0.2268
    151  CD2       45.2300   48.7470   17.5050 C.ar  143  HIS143      0.1154
    152  CE1       46.4240   49.9410   16.1050 C.ar  143  HIS143      0.1986
    153  NE2       45.8780   48.7530   16.2940 N.ar  143  HIS143     -0.2212
    154  N         42.6780   55.6190   26.0840 N.3   146  PHE146     -0.1241
    155  CA        43.2330   56.3870   27.2030 C.3   146  PHE146      0.1605
    156  C         42.0860   56.9480   28.0170 C.2   146  PHE146      0.2264
    157  O         42.2830   57.7180   28.9560 O.2   146  PHE146     -0.2867
    158  CB        44.0220   57.5600   26.6710 C.3   146  PHE146      0.0534
    159  CG        45.2880   57.8740   27.4220 C.ar  146  PHE146     -0.0203
    160  CD1       46.5240   57.5150   26.8930 C.ar  146  PHE146     -0.0042
    161  CD2       45.2620   58.6180   28.5960 C.ar  146  PHE146     -0.0042
    162  CE1       47.7050   57.9000   27.5090 C.ar  146  PHE146     -0.0003
    163  CE2       46.4460   59.0050   29.2150 C.ar  146  PHE146     -0.0003
    164  CZ        47.6680   58.6450   28.6660 C.ar  146  PHE146     -0.0000
    165  N         40.0300   59.5430   33.1810 N.3   162  LEU162     -0.1245
    166  CA        40.9890   60.4340   32.5380 C.3   162  LEU162      0.1561
    167  C         41.3290   61.6500   33.4060 C.2   162  LEU162      0.2260
    168  O         42.4540   62.1510   33.3610 O.2   162  LEU162     -0.2867
    169  CB        40.4120   60.9010   31.1950 C.3   162  LEU162      0.0270
    170  CG        41.2380   60.9320   29.9030 C.3   162  LEU162      0.0019
    171  CD1       40.8030   62.1640   29.1320 C.3   162  LEU162      0.0001
    172  CD2       42.7410   60.9770   30.1620 C.3   162  LEU162      0.0001
    173  N         45.4000   51.2920   27.1950 N.3   188  ILE188     -0.1231
    174  CA        45.8900   51.2520   25.8300 C.3   188  ILE188      0.1692
    175  C         46.4330   49.8340   25.7180 C.2   188  ILE188      0.2592
    176  O         46.8150   49.2390   26.7240 O.2   188  ILE188     -0.2718
    177  CB        47.0850   52.2120   25.6260 C.3   188  ILE188      0.0266
    178  CG1       46.6330   53.6720   25.6860 C.3   188  ILE188      0.0019
    179  CG2       47.7710   51.9080   24.3060 C.3   188  ILE188      0.0020
    180  CD1       47.7790   54.6740   25.6090 C.3   188  ILE188      0.0001
    181  N         46.4410   49.2710   24.5170 N.am  189  VAL189     -0.1966
    182  CA        46.9710   47.9210   24.3520 C.3   189  VAL189      0.1727
    183  C         48.4390   48.1460   24.0190 C.2   189  VAL189      0.2616
    184  O         48.7660   48.5270   22.8960 O.2   189  VAL189     -0.2715
    185  CB        46.3170   47.1710   23.1780 C.3   189  VAL189      0.0290
    186  CG1       47.0250   45.8330   22.9570 C.3   189  VAL189      0.0023
    187  CG2       44.8430   46.9430   23.4660 C.3   189  VAL189      0.0023
    188  N         49.3120   47.9460   25.0020 N.am  190  PHE190     -0.1960
    189  CA        50.7400   48.1290   24.7980 C.3   190  PHE190      0.1771
    190  C         51.2590   46.9800   23.9340 C.2   190  PHE190      0.2619
    191  O         50.5770   45.9590   23.7590 O.2   190  PHE190     -0.2715
    192  CB        51.4710   48.1460   26.1500 C.3   190  PHE190      0.0574
    193  CG        51.5120   49.5010   26.8120 C.ar  190  PHE190     -0.0200
    194  CD1       50.3470   50.1090   27.2700 C.ar  190  PHE190     -0.0042
    195  CD2       52.7260   50.1510   27.0110 C.ar  190  PHE190     -0.0042
    196  CE1       50.3940   51.3550   27.9210 C.ar  190  PHE190     -0.0003
    197  CE2       52.7840   51.3910   27.6580 C.ar  190  PHE190     -0.0003
    198  CZ        51.6160   51.9910   28.1140 C.ar  190  PHE190     -0.0000
    199  N         52.4530   47.1650   23.3800 N.am  191  PHE191     -0.1974
    200  CA        53.0760   46.1540   22.5430 C.3   191  PHE191      0.1639
    201  C         53.3210   45.0050   23.5300 C.2   191  PHE191      0.2290
    202  O         53.8480   45.2120   24.6310 O.2   191  PHE191     -0.2864
    203  CB        54.4210   46.6640   21.9770 C.3   191  PHE191      0.0560
    204  CG        54.3030   47.7260   20.8770 C.ar  191  PHE191     -0.0200
    205  CD1       53.0740   48.2940   20.5190 C.ar  191  PHE191     -0.0042
    206  CD2       55.4530   48.1510   20.2000 C.ar  191  PHE191     -0.0042
    207  CE1       53.0000   49.2750   19.4980 C.ar  191  PHE191     -0.0003
    208  CE2       55.3950   49.1220   19.1850 C.ar  191  PHE191     -0.0003
    209  CZ        54.1620   49.6850   18.8350 C.ar  191  PHE191     -0.0000
@<TRIPOS>BOND
     1   120   118   am
     2   118   119    2
     3   118   117    1
     4   117   116    1
     5   116   113    1
     6    30    28    1
     7     5     6    1
     8     5     2    1
     9     8     6   ar
    10     1     2    1
    11     6     7   ar
    12    28    29    1
    13    28    27    2
    14   112   113    1
    15     2     3    1
    16   113   114    1
    17    23    22    2
    18   152   153   ar
    19   152   150   ar
    20     4     3    2
    21    22    21    1
    22    27    26    1
    23   153   151   ar
    24     3     9   am
    25   114   115    2
    26    24    21    1
    27    24    25    1
    28   150   149   ar
    29    26    25    1
    30    21    20    1
    31   151   149   ar
    32   136   134   ar
    33    20    11   am
    34     9    10    1
    35   149   148    1
    36    11    10    1
    37    11    12    2
    38    10    13    1
    39   134   135   ar
    40   134   133    1
    41   209   208   ar
    42   209   207   ar
    43   208   206   ar
    44   148   145    1
    45   207   205   ar
    46   121   122    1
    47   144   145    1
    48   133   130    1
    49    13    14    1
    50    47    49   ar
    51    47    45   ar
    52   206   204   ar
    53   145   146    1
    54    16    14   ar
    55    16    18   ar
    56    49    48   ar
    57    14    15   ar
    58   205   204   ar
    59    81    79    1
    60    18    19   ar
    61    45    44   ar
    62   129   130    1
    63   129   123   am
    64    15    17   ar
    65   204   203    1
    66    19    17   ar
    67    48    46   ar
    68   130   131    1
    69   122   123    1
    70   122   125    1
    71   126   125    1
    72   126   128    1
    73   127   125    1
    74    44    46   ar
    75    44    43    1
    76    80    79    1
    77   146   147    2
    78   123   124    2
    79   103   102    1
    80   103   104    2
    81    79    78    1
    82   131   137   am
    83   131   132    2
    84   203   200    1
    85    43    40    1
    86   137   138    1
    87   139   140    2
    88   139   138    1
    89   102   101    1
    90   102   105    1
    91    98    99    1
    92    98    95    1
    93   200   199    1
    94   200   201    1
    95    99   100    1
    96    78    75    1
    97    77    76    2
    98   138   141    1
    99   184   183    2
   100   186   185    1
   101    95    96    1
   102    95    94    1
   103    75    76    1
   104    75    74    1
   105   185   187    1
   106   185   182    1
   107    68    66    1
   108    67    66    1
   109    37    35    1
   110   199   190   am
   111   105   106    1
   112   201   202    2
   113    76    82   am
   114   107   106   ar
   115   107   109   ar
   116    40    39    1
   117    40    41    1
   118   191   190    2
   119    96    97    2
   120    66    65    1
   121    94   100    1
   122    94    84   am
   123   190   189    1
   124    39    33   am
   125   183   182    1
   126   183   188   am
   127    42    41    2
   128   106   108   ar
   129   141   143    1
   130   141   142    1
   131   109   111   ar
   132   179   177    1
   133    85    84    2
   134   182   181    1
   135    84    83    1
   136   181   175   am
   137    31    32    1
   138    35    32    1
   139    35    36    1
   140   189   188    1
   141   189   192    1
   142    82    83    1
   143    33    32    1
   144    33    34    2
   145   108   110   ar
   146    83    86    1
   147   111   110   ar
   148    64    63    2
   149    65    62    1
   150    38    36    1
   151   180   178    1
   152   177   178    1
   153   177   174    1
   154   175   174    1
   155   175   176    2
   156   174   173    1
   157   154   155    1
   158    63    62    1
   159    63    69   am
   160   192   193    1
   161    62    61    1
   162   158   155    1
   163   158   159    1
   164    86    87    1
   165   193   195   ar
   166   193   194   ar
   167   160   159   ar
   168   160   162   ar
   169    58    56   ar
   170    58    60   ar
   171    72    71    2
   172   195   197   ar
   173    69    70    1
   174    70    71    1
   175    70    73    1
   176   155   156    1
   177    56    55   ar
   178    88    87   ar
   179    88    90   ar
   180   194   196   ar
   181   159   161   ar
   182    87    89   ar
   183   162   164   ar
   184   197   198   ar
   185    60    59   ar
   186   196   198   ar
   187    90    92   ar
   188   156   157    2
   189    53    52    2
   190    89    91   ar
   191    55    54    1
   192    55    57   ar
   193    51    54    1
   194    51    52    1
   195    51    50    1
   196   161   163   ar
   197   164   163   ar
   198    92    91   ar
   199    92    93    1
   200   171   170    1
   201    59    57   ar
   202   170   172    1
   203   170   169    1
   204   169   166    1
   205   166   165    1
   206   166   167    1
   207   168   167    2
