@<TRIPOS>MOLECULE
tmp/5y5pD01.pdb
 73 69 0 0 0
SMALL
GASTEIGER

@<TRIPOS>ATOM
      1  N         22.1700   -1.9570  -17.1430 N.3    84  THR84      -0.1218
      2  CA        21.4870   -3.0880  -17.7850 C.3    84  THR84       0.1862
      3  C         22.5550   -4.1780  -18.0000 C.2    84  THR84       0.2287
      4  O         23.7420   -3.8630  -18.0290 O.2    84  THR84      -0.2866
      5  CB        20.7840   -2.6230  -19.1230 C.3    84  THR84       0.1770
      6  OG1       19.7390   -3.5500  -19.4780 O.3    84  THR84      -0.2211
      7  CG2       21.7530   -2.4860  -20.2820 C.3    84  THR84       0.0375
      8  N         21.2490   -8.0400  -18.8970 N.3    86  THR86      -0.1218
      9  CA        20.5960   -9.3510  -18.9820 C.3    86  THR86       0.1862
     10  C         20.8460  -10.0050  -20.3430 C.2    86  THR86       0.2287
     11  O         20.2990   -9.5420  -21.3370 O.2    86  THR86      -0.2866
     12  CB        19.1010   -9.2170  -18.6280 C.3    86  THR86       0.1770
     13  OG1       18.9780   -8.7050  -17.2970 O.3    86  THR86      -0.2211
     14  CG2       18.3640  -10.5490  -18.7260 C.3    86  THR86       0.0375
     15  N         20.3110  -13.0370  -22.8840 N.3    88  ASP88      -0.1239
     16  CA        19.4080  -14.1420  -23.2000 C.3    88  ASP88       0.1674
     17  C         20.2140  -15.3350  -23.7060 C.2    88  ASP88       0.2266
     18  O         21.2730  -15.1510  -24.2960 O.2    88  ASP88      -0.2867
     19  CB        18.3560  -13.6850  -24.2070 C.3    88  ASP88       0.1410
     20  CG        17.5020  -12.5570  -23.6400 C.2    88  ASP88       0.3668
     21  OD1       16.7780  -12.8020  -22.6580 O.co2  88  ASP88      -0.2456
     22  OD2       17.6460  -11.4110  -24.1140 O.co2  88  ASP88      -0.2456
     23  N         16.3750  -15.1980  -32.0940 N.3   161  ARG161     -0.1245
     24  CA        17.0140  -13.9600  -31.6100 C.3   161  ARG161      0.1563
     25  C         18.1850  -13.5640  -32.4920 C.2   161  ARG161      0.2260
     26  O         18.2850  -12.3990  -32.8980 O.2   161  ARG161     -0.2867
     27  CB        17.4780  -14.1020  -30.1540 C.3   161  ARG161      0.0307
     28  CG        18.3870  -12.9130  -29.7120 C.3   161  ARG161      0.0489
     29  CD        18.5150  -12.8050  -28.2100 C.3   161  ARG161      0.2205
     30  NE        17.2290  -12.5880  -27.5470 N.pl3 161  ARG161     -0.0865
     31  CZ        16.6360  -11.4050  -27.4500 C.cat 161  ARG161      0.5346
     32  NH1       17.1870  -10.3330  -27.9970 N.pl3 161  ARG161      0.1354
     33  NH2       15.5000  -11.2810  -26.7870 N.pl3 161  ARG161      0.1354
     34  N         19.7960   -7.5370  -30.3760 N.3   165  GLY165     -0.1210
     35  CA        19.7480   -7.0630  -29.0080 C.3   165  GLY165      0.1956
     36  C         19.3770   -5.5950  -28.9350 C.2   165  GLY165      0.2612
     37  O         19.0210   -4.9860  -29.9490 O.2   165  GLY165     -0.2717
     38  N         19.4250   -5.0170  -27.7260 N.am  166  PHE166     -0.1962
     39  CA        19.1820   -3.5850  -27.5000 C.3   166  PHE166      0.1771
     40  C         17.8650   -3.0880  -28.1070 C.2   166  PHE166      0.2620
     41  O         17.8560   -2.1700  -28.9070 O.2   166  PHE166     -0.2715
     42  CB        20.4010   -2.7410  -27.9630 C.3   166  PHE166      0.0574
     43  CG        21.6350   -3.1290  -27.1790 C.ar  166  PHE166     -0.0200
     44  CD1       21.9050   -2.5510  -25.9490 C.ar  166  PHE166     -0.0042
     45  CD2       22.4900   -4.1150  -27.6480 C.ar  166  PHE166     -0.0042
     46  CE1       22.9950   -2.9590  -25.2000 C.ar  166  PHE166     -0.0003
     47  CE2       23.6090   -4.4880  -26.9240 C.ar  166  PHE166     -0.0003
     48  CZ        23.8430   -3.9230  -25.6960 C.ar  166  PHE166     -0.0000
     49  N         16.7600   -3.6910  -27.6800 N.am  167  GLY167     -0.1940
     50  CA        15.4530   -3.2690  -28.1730 C.3   167  GLY167      0.2014
     51  C         15.1230   -3.8210  -29.5430 C.2   167  GLY167      0.2640
     52  O         14.2100   -3.3300  -30.1870 O.2   167  GLY167     -0.2714
     53  N         15.8170   -4.8990  -29.9860 N.am  168  SER168     -0.1935
     54  CA        15.5470   -5.5230  -31.3000 C.3   168  SER168      0.2055
     55  C         14.0730   -6.0280  -31.3870 C.2   168  SER168      0.2644
     56  O         13.5630   -6.2510  -32.4790 O.2   168  SER168     -0.2714
     57  CB        16.5290   -6.6630  -31.5620 C.3   168  SER168      0.2130
     58  OG        16.1750   -7.8590  -30.8630 O.3   168  SER168     -0.2179
     59  N         13.3960   -6.2230  -30.2230 N.am  169  THR169     -0.1936
     60  CA        11.9860   -6.7020  -30.2050 C.3   169  THR169      0.2028
     61  C         11.0100   -5.5520  -30.0720 C.2   169  THR169      0.2642
     62  O          9.8010   -5.7930  -29.9950 O.2   169  THR169     -0.2714
     63  CB        11.7660   -7.7910  -29.1680 C.3   169  THR169      0.1808
     64  OG1       11.8610   -7.1980  -27.8620 O.3   169  THR169     -0.2208
     65  CG2       12.7170   -8.9980  -29.3550 C.3   169  THR169      0.0379
     66  N         11.5100   -4.3060  -30.0470 N.am  170  ASP170     -0.1971
     67  CA        10.6090   -3.1490  -29.9540 C.3   170  ASP170      0.1709
     68  C         10.3000   -2.6970  -31.3730 C.2   170  ASP170      0.2293
     69  O         11.0940   -2.9410  -32.2850 O.2   170  ASP170     -0.2864
     70  CB        11.2650   -1.9690  -29.2030 C.3   170  ASP170      0.1436
     71  CG        11.3910   -2.1130  -27.6960 C.2   170  ASP170      0.3671
     72  OD1       10.6110   -2.8740  -27.1110 O.co2 170  ASP170     -0.2456
     73  OD2       12.2590   -1.4160  -27.0930 O.co2 170  ASP170     -0.2456
@<TRIPOS>BOND
     1    26    25    2
     2    25    24    1
     3    56    55    2
     4    69    68    2
     5    23    24    1
     6    24    27    1
     7    57    54    1
     8    57    58    1
     9    55    54    1
    10    55    59   am
    11    68    67    1
    12    54    53    1
    13    34    35    1
    14    59    60    1
    15    60    61    1
    16    60    63    1
    17    52    51    2
    18    27    28    1
    19    61    66   am
    20    61    62    2
    21    66    67    1
    22    53    51   am
    23    67    70    1
    24    37    36    2
    25    28    29    1
    26    51    50    1
    27    65    63    1
    28    70    71    1
    29    63    64    1
    30    35    36    1
    31    36    38   am
    32    41    40    2
    33    29    30    1
    34    50    49    1
    35    40    49   am
    36    40    39    1
    37    32    31    1
    38    42    39    1
    39    42    43    1
    40    38    39    1
    41    71    72   ar
    42    71    73   ar
    43    45    43   ar
    44    45    47   ar
    45    30    31    2
    46    31    33    1
    47    43    44   ar
    48    47    48   ar
    49    44    46   ar
    50    48    46   ar
    51    18    17    2
    52    19    20    1
    53    19    16    1
    54    22    20   ar
    55    17    16    1
    56    20    21   ar
    57    16    15    1
    58    11    10    2
    59    10     9    1
    60     7     5    1
    61     6     5    1
    62     5     2    1
    63     9     8    1
    64     9    12    1
    65    14    12    1
    66    12    13    1
    67     4     3    2
    68     3     2    1
    69     2     1    1
