@<TRIPOS>MOLECULE
tmp/5y5pD00.pdb
 125 121 0 0 0
SMALL
GASTEIGER

@<TRIPOS>ATOM
      1  N         25.4470   -9.2220  -16.7040 N.3    68  ILE68      -0.1245
      2  CA        26.5500   -8.2600  -16.6210 C.3    68  ILE68       0.1561
      3  C         26.1700   -7.3200  -15.4660 C.2    68  ILE68       0.2260
      4  O         25.0690   -6.7630  -15.4580 O.2    68  ILE68      -0.2867
      5  CB        26.8100   -7.4680  -17.9410 C.3    68  ILE68       0.0252
      6  CG1       27.2080   -8.4080  -19.0940 C.3    68  ILE68       0.0019
      7  CG2       27.8840   -6.3570  -17.7260 C.3    68  ILE68       0.0019
      8  CD1       27.3170   -7.7290  -20.5530 C.3    68  ILE68       0.0001
      9  N         22.1700   -1.9570  -17.1430 N.3    84  THR84      -0.1203
     10  CA        21.4870   -3.0880  -17.7850 C.3    84  THR84       0.1997
     11  C         22.5550   -4.1780  -18.0000 C.2    84  THR84       0.2657
     12  O         23.7420   -3.8630  -18.0290 O.2    84  THR84      -0.2713
     13  CB        20.7840   -2.6230  -19.1230 C.3    84  THR84       0.1784
     14  OG1       19.7390   -3.5500  -19.4780 O.3    84  THR84      -0.2211
     15  CG2       21.7530   -2.4860  -20.2820 C.3    84  THR84       0.0376
     16  N         22.1320   -5.4210  -18.1850 N.am   85  GLY85      -0.1718
     17  CA        23.0840   -6.4940  -18.4650 C.2    85  GLY85       0.1480
     18  C         22.5220   -7.8960  -18.5510 C.2    85  GLY85       0.2821
     19  O         23.2560   -8.8580  -18.3610 O.2    85  GLY85      -0.2669
     20  N         21.2490   -8.0400  -18.8970 N.am   86  THR86      -0.1902
     21  CA        20.5960   -9.3510  -18.9820 C.3    86  THR86       0.2031
     22  C         20.8460  -10.0050  -20.3430 C.2    86  THR86       0.2642
     23  O         20.2990   -9.5420  -21.3370 O.2    86  THR86      -0.2714
     24  CB        19.1010   -9.2170  -18.6280 C.3    86  THR86       0.1808
     25  OG1       18.9780   -8.7050  -17.2970 O.3    86  THR86      -0.2208
     26  CG2       18.3640  -10.5490  -18.7260 C.3    86  THR86       0.0379
     27  N         21.6220  -11.1070  -20.3750 N.am   87  ILE87      -0.1963
     28  CA        21.9880  -11.8000  -21.6340 C.3    87  ILE87       0.1727
     29  C         21.1130  -13.0170  -21.8000 C.2    87  ILE87       0.2616
     30  O         21.1680  -13.9150  -20.9680 O.2    87  ILE87      -0.2715
     31  CB        23.5150  -12.1730  -21.7190 C.3    87  ILE87       0.0290
     32  CG1       24.4410  -11.0170  -21.2010 C.3    87  ILE87       0.0022
     33  CG2       23.9250  -12.6480  -23.1310 C.3    87  ILE87       0.0023
     34  CD1       24.2960   -9.6380  -21.9140 C.3    87  ILE87       0.0001
     35  N         20.3110  -13.0370  -22.8840 N.am   88  ASP88      -0.1971
     36  CA        19.4080  -14.1420  -23.2000 C.3    88  ASP88       0.1709
     37  C         20.2140  -15.3350  -23.7060 C.2    88  ASP88       0.2293
     38  O         21.2730  -15.1510  -24.2960 O.2    88  ASP88      -0.2864
     39  CB        18.3560  -13.6850  -24.2070 C.3    88  ASP88       0.1436
     40  CG        17.5020  -12.5570  -23.6400 C.2    88  ASP88       0.3671
     41  OD1       16.7780  -12.8020  -22.6580 O.co2  88  ASP88      -0.2456
     42  OD2       17.6460  -11.4110  -24.1140 O.co2  88  ASP88      -0.2456
     43  N         21.0850  -15.5430  -27.4120 N.3    91  TYR91      -0.1241
     44  CA        21.8780  -14.4520  -27.9850 C.3    91  TYR91       0.1605
     45  C         23.1800  -14.9300  -28.5860 C.2    91  TYR91       0.2264
     46  O         24.0280  -15.5010  -27.8880 O.2    91  TYR91      -0.2867
     47  CB        22.1120  -13.3260  -26.9530 C.3    91  TYR91       0.0534
     48  CG        22.8770  -12.1400  -27.4950 C.ar   91  TYR91      -0.0201
     49  CD1       22.3250  -11.3230  -28.4690 C.ar   91  TYR91      -0.0009
     50  CD2       24.1340  -11.8030  -26.9880 C.ar   91  TYR91      -0.0009
     51  CE1       22.9880  -10.1940  -28.9200 C.ar   91  TYR91       0.0417
     52  CE2       24.7920  -10.6610  -27.4120 C.ar   91  TYR91       0.0417
     53  CZ        24.2090   -9.8500  -28.3680 C.ar   91  TYR91       0.1957
     54  OH        24.8720   -8.7320  -28.7990 O.3    91  TYR91      -0.2866
     55  N         27.8220  -10.2610  -29.8790 N.3    94  GLU94      -0.1231
     56  CA        28.9140   -9.8900  -28.9860 C.3    94  GLU94       0.1699
     57  C         28.3610   -9.1840  -27.7650 C.2    94  GLU94       0.2592
     58  O         27.4450   -8.3640  -27.8920 O.2    94  GLU94      -0.2718
     59  CB        29.8750   -8.9580  -29.7580 C.3    94  GLU94       0.0402
     60  CG        31.0720   -8.4640  -28.9780 C.3    94  GLU94       0.1161
     61  CD        31.9350   -7.4920  -29.7660 C.2    94  GLU94       0.3649
     62  OE1       31.6340   -7.2440  -30.9570 O.co2  94  GLU94      -0.2457
     63  OE2       32.9040   -6.9590  -29.1860 O.co2  94  GLU94      -0.2457
     64  N         28.9290   -9.4780  -26.5800 N.am   95  LEU95      -0.1966
     65  CA        28.5180   -8.8200  -25.3440 C.3    95  LEU95       0.1728
     66  C         28.9710   -7.3900  -25.3500 C.2    95  LEU95       0.2616
     67  O         30.1270   -7.0920  -25.6540 O.2    95  LEU95      -0.2715
     68  CB        29.0710   -9.5280  -24.0830 C.3    95  LEU95       0.0311
     69  CG        28.6890  -10.9920  -23.8800 C.3    95  LEU95       0.0022
     70  CD1       29.2950  -11.5240  -22.5810 C.3    95  LEU95       0.0001
     71  CD2       27.2220  -11.1590  -23.8650 C.3    95  LEU95       0.0001
     72  N         28.0520   -6.4980  -25.0190 N.am   96  LYS96      -0.1963
     73  CA        28.3830   -5.0760  -24.9340 C.3    96  LYS96       0.1728
     74  C         28.0770   -4.5730  -23.5410 C.2    96  LYS96       0.2616
     75  O         27.0360   -4.9120  -22.9850 O.2    96  LYS96      -0.2715
     76  CB        27.6560   -4.2860  -26.0260 C.3    96  LYS96       0.0311
     77  CG        28.3380   -4.5610  -27.3930 C.3    96  LYS96       0.0038
     78  CD        27.6030   -4.0170  -28.5580 C.3    96  LYS96       0.0206
     79  CE        28.2180   -4.4740  -29.8490 C.3    96  LYS96       0.1093
     80  NZ        27.7960   -3.6210  -30.9830 N.3    96  LYS96      -0.1314
     81  N         28.9940   -3.8010  -22.9580 N.am   97  VAL97      -0.1963
     82  CA        28.7710   -3.2390  -21.6220 C.3    97  VAL97       0.1727
     83  C         28.1870   -1.8400  -21.7550 C.2    97  VAL97       0.2616
     84  O         28.7350   -0.9950  -22.4760 O.2    97  VAL97      -0.2715
     85  CB        30.0830   -3.2720  -20.7860 C.3    97  VAL97       0.0290
     86  CG1       29.9830   -2.4080  -19.5230 C.3    97  VAL97       0.0023
     87  CG2       30.4740   -4.7090  -20.4360 C.3    97  VAL97       0.0023
     88  N         27.0890   -1.5900  -21.0350 N.am   98  ILE98      -0.1977
     89  CA        26.4790   -0.2550  -20.9800 C.3    98  ILE98       0.1596
     90  C         26.9820    0.3830  -19.7020 C.2    98  ILE98       0.2287
     91  O         26.6820   -0.1060  -18.6240 O.2    98  ILE98      -0.2864
     92  CB        24.9250   -0.3060  -21.0690 C.3    98  ILE98       0.0276
     93  CG1       24.4410   -1.0090  -22.3430 C.3    98  ILE98       0.0022
     94  CG2       24.3090    1.1120  -20.9540 C.3    98  ILE98       0.0022
     95  CD1       24.8700   -0.4020  -23.6600 C.3    98  ILE98       0.0001
     96  N         16.3750  -15.1980  -32.0940 N.3   161  ARG161     -0.1245
     97  CA        17.0140  -13.9600  -31.6100 C.3   161  ARG161      0.1563
     98  C         18.1850  -13.5640  -32.4920 C.2   161  ARG161      0.2260
     99  O         18.2850  -12.3990  -32.8980 O.2   161  ARG161     -0.2867
    100  CB        17.4780  -14.1020  -30.1540 C.3   161  ARG161      0.0307
    101  CG        18.3870  -12.9130  -29.7120 C.3   161  ARG161      0.0489
    102  CD        18.5150  -12.8050  -28.2100 C.3   161  ARG161      0.2205
    103  NE        17.2290  -12.5880  -27.5470 N.pl3 161  ARG161     -0.0865
    104  CZ        16.6360  -11.4050  -27.4500 C.cat 161  ARG161      0.5346
    105  NH1       17.1870  -10.3330  -27.9970 N.pl3 161  ARG161      0.1354
    106  NH2       15.5000  -11.2810  -26.7870 N.pl3 161  ARG161      0.1354
    107  N         19.7960   -7.5370  -30.3760 N.3   165  GLY165     -0.1210
    108  CA        19.7480   -7.0630  -29.0080 C.3   165  GLY165      0.1956
    109  C         19.3770   -5.5950  -28.9350 C.2   165  GLY165      0.2612
    110  O         19.0210   -4.9860  -29.9490 O.2   165  GLY165     -0.2717
    111  N         19.4250   -5.0170  -27.7260 N.am  166  PHE166     -0.1962
    112  CA        19.1820   -3.5850  -27.5000 C.3   166  PHE166      0.1771
    113  C         17.8650   -3.0880  -28.1070 C.2   166  PHE166      0.2620
    114  O         17.8560   -2.1700  -28.9070 O.2   166  PHE166     -0.2715
    115  CB        20.4010   -2.7410  -27.9630 C.3   166  PHE166      0.0574
    116  CG        21.6350   -3.1290  -27.1790 C.ar  166  PHE166     -0.0200
    117  CD1       21.9050   -2.5510  -25.9490 C.ar  166  PHE166     -0.0042
    118  CD2       22.4900   -4.1150  -27.6480 C.ar  166  PHE166     -0.0042
    119  CE1       22.9950   -2.9590  -25.2000 C.ar  166  PHE166     -0.0003
    120  CE2       23.6090   -4.4880  -26.9240 C.ar  166  PHE166     -0.0003
    121  CZ        23.8430   -3.9230  -25.6960 C.ar  166  PHE166     -0.0000
    122  N         16.7600   -3.6910  -27.6800 N.am  167  GLY167     -0.1954
    123  CA        15.4530   -3.2690  -28.1730 C.3   167  GLY167      0.1869
    124  C         15.1230   -3.8210  -29.5430 C.2   167  GLY167      0.2309
    125  O         14.2100   -3.3300  -30.1870 O.2   167  GLY167     -0.2863
@<TRIPOS>BOND
     1    99    98    2
     2    98    97    1
     3    96    97    1
     4    97   100    1
     5    80    79    1
     6    62    61   ar
     7   107   108    1
     8   125   124    2
     9   100   101    1
    10   110   109    2
    11    55    56    1
    12    79    78    1
    13    61    63   ar
    14    61    60    1
    15    59    56    1
    16    59    60    1
    17   101   102    1
    18   124   123    1
    19   108   109    1
    20    56    57    1
    21   109   111   am
    22    51    49   ar
    23    51    53   ar
    24   114   113    2
    25    54    53    1
    26    45    44    1
    27    45    46    2
    28    78    77    1
    29    49    48   ar
    30    53    52   ar
    31   102   103    1
    32   123   122    1
    33   113   122   am
    34   113   112    1
    35   105   104    1
    36    44    43    1
    37    44    47    1
    38   115   112    1
    39   115   116    1
    40    58    57    2
    41    57    64   am
    42   111   112    1
    43   118   116   ar
    44   118   120   ar
    45   103   104    2
    46    48    50   ar
    47    48    47    1
    48   104   106    1
    49    52    50   ar
    50    77    76    1
    51   116   117   ar
    52   120   121   ar
    53    64    65    1
    54    76    73    1
    55   117   119   ar
    56   121   119   ar
    57    67    66    2
    58    66    65    1
    59    66    72   am
    60    65    68    1
    61    72    73    1
    62    73    74    1
    63    38    37    2
    64    39    40    1
    65    39    36    1
    66    42    40   ar
    67    68    69    1
    68    69    71    1
    69    69    70    1
    70    37    36    1
    71    95    93    1
    72    40    41   ar
    73    74    75    2
    74    74    81   am
    75    36    35    1
    76    33    31    1
    77    81    82    1
    78    35    29   am
    79    84    83    2
    80    93    92    1
    81    34    32    1
    82    29    28    1
    83    29    30    2
    84    83    82    1
    85    83    88   am
    86    31    28    1
    87    31    32    1
    88    28    27    1
    89    82    85    1
    90    23    22    2
    91    92    89    1
    92    92    94    1
    93    88    89    1
    94    89    90    1
    95    85    87    1
    96    85    86    1
    97     8     6    1
    98    27    22   am
    99    22    21    1
   100    15    13    1
   101    90    91    2
   102    14    13    1
   103    13    10    1
   104     6     5    1
   105    21    20    1
   106    21    24    1
   107    20    18   am
   108    26    24    1
   109    24    25    1
   110    18    17    1
   111    18    19    2
   112    17    16    2
   113    16    11    1
   114    12    11    2
   115    11    10    1
   116     5     7    1
   117     5     2    1
   118    10     9    1
   119     1     2    1
   120     2     3    1
   121     3     4    2
