@<TRIPOS>MOLECULE
tmp/5y5qA00.pdb
 95 92 0 0 0
SMALL
GASTEIGER

@<TRIPOS>ATOM
      1  N         22.5260   -0.1740  -18.2860 N.3    66  ILE66      -0.1245
      2  CA        23.3380   -1.3890  -18.3140 C.3    66  ILE66       0.1561
      3  C         22.6790   -2.3570  -17.3290 C.2    66  ILE66       0.2260
      4  O         22.3760   -2.0010  -16.1810 O.2    66  ILE66      -0.2867
      5  CB        24.7920   -1.1200  -17.8900 C.3    66  ILE66       0.0252
      6  CG1       25.4560   -0.1290  -18.8590 C.3    66  ILE66       0.0019
      7  CG2       25.5940   -2.4590  -17.8400 C.3    66  ILE66       0.0019
      8  CD1       26.9370    0.2470  -18.4800 C.3    66  ILE66       0.0001
      9  N         24.4360   -1.7390  -10.7290 N.3    82  THR82      -0.1203
     10  CA        24.1140   -0.3700  -11.1210 C.3    82  THR82       0.1997
     11  C         24.3260   -0.2570  -12.6160 C.2    82  THR82       0.2657
     12  O         25.0340   -1.0960  -13.1970 O.2    82  THR82      -0.2713
     13  CB        24.9780    0.6400  -10.2930 C.3    82  THR82       0.1784
     14  OG1       24.3210    1.9450  -10.3120 O.3    82  THR82      -0.2211
     15  CG2       26.4160    0.7660  -10.8170 C.3    82  THR82       0.0376
     16  N         23.7630    0.7680  -13.2390 N.am   83  GLY83      -0.1718
     17  CA        23.9760    0.8970  -14.6800 C.2    83  GLY83       0.1480
     18  C         23.2490    2.0220  -15.3720 C.2    83  GLY83       0.2821
     19  O         23.0550    1.9520  -16.5850 O.2    83  GLY83      -0.2669
     20  N         22.9360    3.1160  -14.6510 N.am   84  THR84      -0.1902
     21  CA        22.1690    4.1880  -15.2940 C.3    84  THR84       0.2031
     22  C         23.1210    5.1490  -15.9790 C.2    84  THR84       0.2642
     23  O         23.9430    5.8070  -15.3190 O.2    84  THR84      -0.2714
     24  CB        21.2950    4.8770  -14.2380 C.3    84  THR84       0.1808
     25  OG1       20.3910    3.9200  -13.6920 O.3    84  THR84      -0.2208
     26  CG2       20.5710    6.0890  -14.7860 C.3    84  THR84       0.0379
     27  N         22.9730    5.2820  -17.3200 N.am   85  ILE85      -0.1963
     28  CA        23.8260    6.1850  -18.0840 C.3    85  ILE85       0.1727
     29  C         23.0500    7.4620  -18.4350 C.2    85  ILE85       0.2616
     30  O         22.1000    7.4190  -19.2130 O.2    85  ILE85      -0.2715
     31  CB        24.3590    5.4930  -19.3770 C.3    85  ILE85       0.0290
     32  CG1       24.8690    4.0260  -19.1260 C.3    85  ILE85       0.0022
     33  CG2       25.4330    6.3810  -20.0580 C.3    85  ILE85       0.0023
     34  CD1       26.0310    3.8690  -18.0130 C.3    85  ILE85       0.0001
     35  N         23.4640    8.5850  -17.8470 N.am   86  ASN86      -0.1972
     36  CA        22.8310    9.8780  -18.1090 C.3    86  ASN86       0.1688
     37  C         23.0820   10.3520  -19.5360 C.2    86  ASN86       0.2292
     38  O         24.1190   10.0410  -20.1240 O.2    86  ASN86      -0.2864
     39  CB        23.3130   10.9340  -17.0980 C.3    86  ASN86       0.1181
     40  CG        22.8460   10.5640  -15.7130 C.2    86  ASN86       0.2629
     41  OD1       21.6630   10.2770  -15.4810 O.2    86  ASN86      -0.2716
     42  ND2       23.7940   10.5050  -14.7680 N.am   86  ASN86      -0.0877
     43  N         26.3230   12.2180  -20.3390 N.3    89  TYR89      -0.1241
     44  CA        27.5700   11.5350  -20.0310 C.3    89  TYR89       0.1605
     45  C         28.4380   11.3910  -21.2500 C.2    89  TYR89       0.2264
     46  O         28.0220   10.7700  -22.2300 O.2    89  TYR89      -0.2867
     47  CB        27.3030   10.1670  -19.4150 C.3    89  TYR89       0.0534
     48  CG        28.5590    9.4420  -18.9940 C.ar   89  TYR89      -0.0201
     49  CD1       29.3520    9.9250  -17.9570 C.ar   89  TYR89      -0.0009
     50  CD2       28.9140    8.2300  -19.5820 C.ar   89  TYR89      -0.0009
     51  CE1       30.4700    9.2210  -17.5160 C.ar   89  TYR89       0.0417
     52  CE2       30.0070    7.4980  -19.1250 C.ar   89  TYR89       0.0417
     53  CZ        30.8070    8.0190  -18.1180 C.ar   89  TYR89       0.1957
     54  OH        31.9050    7.3270  -17.6730 O.3    89  TYR89      -0.2866
     55  N         33.5090    7.0400  -20.7630 N.3    92  GLU92      -0.1231
     56  CA        33.5250    5.6480  -21.1650 C.3    92  GLU92       0.1699
     57  C         32.5250    4.8710  -20.3050 C.2    92  GLU92       0.2592
     58  O         32.4520    5.1010  -19.0940 O.2    92  GLU92      -0.2718
     59  CB        34.9310    5.0900  -20.9420 C.3    92  GLU92       0.0402
     60  CG        35.1800    3.7310  -21.5560 C.3    92  GLU92       0.1161
     61  CD        36.5940    3.1990  -21.4300 C.2    92  GLU92       0.3649
     62  OE1       37.5380    3.9950  -21.2180 O.co2  92  GLU92      -0.2457
     63  OE2       36.7650    1.9790  -21.6350 O.co2  92  GLU92      -0.2457
     64  N         31.7800    3.9360  -20.9110 N.am   93  LEU93      -0.1966
     65  CA        30.8690    3.1130  -20.1110 C.3    93  LEU93       0.1728
     66  C         31.7080    2.1160  -19.3030 C.2    93  LEU93       0.2616
     67  O         32.5690    1.4330  -19.8700 O.2    93  LEU93      -0.2715
     68  CB        29.9080    2.3030  -20.9980 C.3    93  LEU93       0.0311
     69  CG        29.0040    3.0820  -21.9750 C.3    93  LEU93       0.0022
     70  CD1       28.1920    2.1220  -22.8340 C.3    93  LEU93       0.0001
     71  CD2       28.0910    4.0380  -21.2390 C.3    93  LEU93       0.0001
     72  N         31.3870    1.9820  -18.0130 N.am   94  LYS94      -0.1963
     73  CA        32.0410    1.0270  -17.1290 C.3    94  LYS94       0.1728
     74  C         30.9550    0.0590  -16.6520 C.2    94  LYS94       0.2616
     75  O         29.8040    0.4780  -16.3890 O.2    94  LYS94      -0.2715
     76  CB        32.6110    1.7080  -15.8720 C.3    94  LYS94       0.0311
     77  CG        33.5450    2.8980  -16.1500 C.3    94  LYS94       0.0038
     78  CD        34.7320    2.4760  -16.9380 C.3    94  LYS94       0.0206
     79  CE        35.6430    3.6510  -17.2570 C.3    94  LYS94       0.1093
     80  NZ        36.4080    4.1070  -16.0620 N.3    94  LYS94      -0.1314
     81  N         31.2980   -1.2240  -16.5980 N.am   95  VAL95      -0.1963
     82  CA        30.3760   -2.2420  -16.0880 C.3    95  VAL95       0.1727
     83  C         30.8020   -2.5240  -14.6620 C.2    95  VAL95       0.2616
     84  O         31.9700   -2.8360  -14.4150 O.2    95  VAL95      -0.2715
     85  CB        30.3850   -3.5290  -16.9500 C.3    95  VAL95       0.0290
     86  CG1       29.6180   -4.6840  -16.2560 C.3    95  VAL95       0.0023
     87  CG2       29.7660   -3.2540  -18.3100 C.3    95  VAL95       0.0023
     88  N         29.8390   -2.4230  -13.7200 N.am   96  ILE96      -0.1977
     89  CA        30.1160   -2.7410  -12.3330 C.3    96  ILE96       0.1596
     90  C         29.5580   -4.1440  -12.1140 C.2    96  ILE96       0.2287
     91  O         28.3530   -4.3390  -12.2360 O.2    96  ILE96      -0.2864
     92  CB        29.5550   -1.6570  -11.3700 C.3    96  ILE96       0.0276
     93  CG1       30.3780   -0.3440  -11.6200 C.3    96  ILE96       0.0022
     94  CG2       29.7000   -2.1300   -9.9060 C.3    96  ILE96       0.0022
     95  CD1       29.8360    0.9410  -11.0390 C.3    96  ILE96       0.0001
@<TRIPOS>BOND
     1    70    69    1
     2    46    45    2
     3    69    71    1
     4    69    68    1
     5    63    61   ar
     6    60    61    1
     7    60    59    1
     8    61    62   ar
     9    45    44    1
    10    56    59    1
    11    56    55    1
    12    56    57    1
    13    68    65    1
    14    64    57   am
    15    64    65    1
    16    43    44    1
    17    57    58    2
    18    38    37    2
    19    65    66    1
    20    33    31    1
    21    44    47    1
    22    67    66    2
    23    50    52   ar
    24    50    48   ar
    25    37    36    1
    26    47    48    1
    27    31    32    1
    28    31    28    1
    29    66    72   am
    30    30    29    2
    31    32    34    1
    32    52    53   ar
    33    48    49   ar
    34     6     8    1
    35     6     5    1
    36    29    28    1
    37    29    35   am
    38     2     1    1
    39     2     5    1
    40     2     3    1
    41    87    85    1
    42    53    54    1
    43    53    51   ar
    44    36    35    1
    45    36    39    1
    46    28    27    1
    47    72    73    1
    48    49    51   ar
    49     5     7    1
    50     3     4    2
    51    27    22   am
    52    79    78    1
    53    79    80    1
    54    73    74    1
    55    73    76    1
    56    39    40    1
    57    85    86    1
    58    85    82    1
    59    78    77    1
    60    74    81   am
    61    74    75    2
    62    81    82    1
    63    19    18    2
    64    77    76    1
    65    82    83    1
    66    22    23    2
    67    22    21    1
    68    40    41    2
    69    40    42   am
    70    18    17    1
    71    18    20   am
    72    21    20    1
    73    21    24    1
    74    26    24    1
    75    17    16    2
    76    83    84    2
    77    83    88   am
    78    24    25    1
    79    88    89    1
    80    16    11    1
    81    12    11    2
    82    11    10    1
    83    89    90    1
    84    89    92    1
    85    91    90    2
    86    93    92    1
    87    93    95    1
    88    92    94    1
    89    10     9    1
    90    10    13    1
    91    15    13    1
    92    14    13    1
