@<TRIPOS>MOLECULE
tmp/5y5rC00.pdb
 218 209 0 0 0
SMALL
GASTEIGER

@<TRIPOS>ATOM
      1  N        -20.3160   63.8880  -31.9470 N.3    10  GLY10      -0.1210
      2  CA       -19.5570   64.1760  -33.1480 C.3    10  GLY10       0.1956
      3  C        -18.5820   65.3030  -32.8950 C.2    10  GLY10       0.2612
      4  O        -18.2640   65.6370  -31.7520 O.2    10  GLY10      -0.2717
      5  N        -18.0930   65.8960  -33.9760 N.am   11  ALA11      -0.1965
      6  CA       -16.9950   66.8490  -33.8330 C.3    11  ALA11       0.1728
      7  C        -17.4170   68.1160  -33.0830 C.2    11  ALA11       0.2616
      8  O        -18.5370   68.6040  -33.2400 O.2    11  ALA11      -0.2715
      9  CB       -16.4340   67.1930  -35.1980 C.3    11  ALA11       0.0334
     10  N        -16.5020   68.6390  -32.2500 N.am   12  LEU12      -0.1963
     11  CA       -16.6810   69.8500  -31.4560 C.3    12  LEU12       0.1728
     12  C        -17.8200   69.7490  -30.4380 C.2    12  LEU12       0.2616
     13  O        -18.2210   70.7690  -29.8730 O.2    12  LEU12      -0.2715
     14  CB       -16.9120   71.0760  -32.3400 C.3    12  LEU12       0.0311
     15  CG       -15.6080   71.4580  -33.0140 C.3    12  LEU12       0.0022
     16  CD1      -15.7970   72.6250  -33.9750 C.3    12  LEU12       0.0001
     17  CD2      -14.6810   71.8230  -31.8910 C.3    12  LEU12       0.0001
     18  N        -18.3730   68.5610  -30.1960 N.am   13  ASN13      -0.1972
     19  CA       -19.4730   68.4420  -29.2510 C.3    13  ASN13       0.1688
     20  C        -18.9970   67.7440  -27.9870 C.2    13  ASN13       0.2292
     21  O        -17.8470   67.3230  -27.8890 O.2    13  ASN13      -0.2864
     22  CB       -20.6550   67.7120  -29.8810 C.3    13  ASN13       0.1181
     23  CG       -21.5210   68.6310  -30.7030 C.2    13  ASN13       0.2629
     24  OD1      -21.0630   69.2120  -31.6840 O.2    13  ASN13      -0.2716
     25  ND2      -22.7860   68.7520  -30.3280 N.am   13  ASN13      -0.0877
     26  N        -22.8290   60.0300  -33.5120 N.3    75  HIS75      -0.1226
     27  CA       -23.4670   61.1030  -34.2480 C.3    75  HIS75       0.1752
     28  C        -22.4060   61.7320  -35.1220 C.2    75  HIS75       0.2597
     29  O        -21.3690   62.0460  -34.6510 O.2    75  HIS75      -0.2718
     30  CB       -24.0610   62.1930  -33.3560 C.3    75  HIS75       0.0759
     31  CG       -24.4280   63.4470  -34.0980 C.ar   75  HIS75       0.0818
     32  ND1      -23.6910   64.5970  -34.0190 N.ar   75  HIS75      -0.2268
     33  CD2      -25.4190   63.7060  -34.9740 C.ar   75  HIS75       0.1154
     34  CE1      -24.2270   65.5150  -34.7830 C.ar   75  HIS75       0.1986
     35  NE2      -25.2750   65.0010  -35.3780 N.ar   75  HIS75      -0.2212
     36  N        -22.6870   61.9280  -36.3880 N.am   76  SER76      -0.1938
     37  CA       -21.7620   62.5760  -37.2620 C.3    76  SER76       0.2055
     38  C        -20.3500   61.9620  -37.2910 C.2    76  SER76       0.2642
     39  O        -20.1940   60.8160  -37.6160 O.2    76  SER76      -0.2714
     40  CB       -21.7230   64.0240  -36.8600 C.3    76  SER76       0.2130
     41  OG       -21.6330   64.8690  -37.9400 O.3    76  SER76      -0.2179
     42  N        -19.3310   62.7340  -36.9800 N.am   77  LEU77      -0.1977
     43  CA       -17.9850   62.2180  -36.9680 C.3    77  LEU77       0.1596
     44  C        -17.8370   61.0430  -35.9980 C.2    77  LEU77       0.2287
     45  O        -17.0010   60.2140  -36.1780 O.2    77  LEU77      -0.2864
     46  CB       -16.9850   63.2980  -36.6710 C.3    77  LEU77       0.0297
     47  CG       -15.5990   62.7440  -36.6370 C.3    77  LEU77       0.0022
     48  CD1      -15.0960   62.5860  -38.0470 C.3    77  LEU77       0.0001
     49  CD2      -14.6620   63.5760  -35.7980 C.3    77  LEU77       0.0001
     50  N        -20.6870   59.3470  -40.1480 N.3   102  VAL102     -0.1245
     51  CA       -19.7220   58.8510  -41.1220 C.3   102  VAL102      0.1561
     52  C        -19.6430   57.3340  -41.0100 C.2   102  VAL102      0.2260
     53  O        -19.3050   56.7880  -39.9540 O.2   102  VAL102     -0.2867
     54  CB       -18.3550   59.5130  -40.9240 C.3   102  VAL102      0.0252
     55  CG1      -17.3530   58.9470  -41.8930 C.3   102  VAL102      0.0019
     56  CG2      -18.4950   60.9980  -41.1670 C.3   102  VAL102      0.0019
     57  N        -16.0360   63.6530  -46.6490 N.3   114  VAL114     -0.1245
     58  CA       -16.0400   65.0440  -46.2280 C.3   114  VAL114      0.1561
     59  C        -15.5300   65.9450  -47.3520 C.2   114  VAL114      0.2260
     60  O        -16.0210   67.0670  -47.5430 O.2   114  VAL114     -0.2867
     61  CB       -15.2230   65.1930  -44.9350 C.3   114  VAL114      0.0252
     62  CG1      -14.9160   66.6420  -44.6720 C.3   114  VAL114      0.0019
     63  CG2      -15.9690   64.5710  -43.7550 C.3   114  VAL114      0.0019
     64  N        -18.8580   67.5330  -47.9760 N.3   123  THR123     -0.1218
     65  CA       -19.6220   68.3060  -46.9960 C.3   123  THR123      0.1862
     66  C        -19.1350   69.7500  -47.0760 C.2   123  THR123      0.2287
     67  O        -18.4840   70.2320  -46.1460 O.2   123  THR123     -0.2866
     68  CB       -19.4450   67.7510  -45.5790 C.3   123  THR123      0.1770
     69  OG1      -18.0500   67.7520  -45.2150 O.3   123  THR123     -0.2211
     70  CG2      -19.9510   66.3220  -45.4820 C.3   123  THR123      0.0375
     71  N        -19.6290   72.3900  -44.1150 N.3   126  ALA126     -0.1231
     72  CA       -18.7820   72.2250  -42.9450 C.3   126  ALA126      0.1694
     73  C        -17.3670   72.7090  -43.2290 C.2   126  ALA126      0.2591
     74  O        -16.7590   73.3470  -42.3710 O.2   126  ALA126     -0.2718
     75  CB       -18.7780   70.7720  -42.4710 C.3   126  ALA126      0.0304
     76  N        -16.7940   72.3680  -44.3930 N.am  127  LEU127     -0.1980
     77  CA       -15.4450   72.8600  -44.6860 C.3   127  LEU127      0.1596
     78  C        -15.4170   74.3770  -44.7970 C.2   127  LEU127      0.2287
     79  O        -14.3700   74.9920  -44.5780 O.2   127  LEU127     -0.2864
     80  CB       -14.8660   72.2790  -45.9760 C.3   127  LEU127      0.0297
     81  CG       -14.6920   70.7760  -46.0990 C.3   127  LEU127      0.0022
     82  CD1      -14.1550   70.3970  -47.4770 C.3   127  LEU127      0.0001
     83  CD2      -13.7980   70.2480  -44.9840 C.3   127  LEU127      0.0001
     84  N        -15.7010   75.4320  -40.8300 N.3   130  ILE130     -0.1245
     85  CA       -14.7300   74.8550  -39.9140 C.3   130  ILE130      0.1561
     86  C        -13.3760   74.9140  -40.6040 C.2   130  ILE130      0.2260
     87  O        -13.2210   74.3860  -41.7110 O.2   130  ILE130     -0.2867
     88  CB       -15.0940   73.4170  -39.5260 C.3   130  ILE130      0.0252
     89  CG1      -16.6020   73.2950  -39.2310 C.3   130  ILE130      0.0019
     90  CG2      -14.2820   72.9860  -38.3230 C.3   130  ILE130      0.0019
     91  CD1      -16.9990   73.6230  -37.8240 C.3   130  ILE130      0.0001
     92  N         -9.1910   71.5700  -35.7160 N.3   139  LEU139     -0.1245
     93  CA       -10.2120   72.2610  -36.4860 C.3   139  LEU139      0.1561
     94  C        -10.9660   73.1710  -35.5360 C.2   139  LEU139      0.2260
     95  O        -11.2100   72.7980  -34.3890 O.2   139  LEU139     -0.2867
     96  CB       -11.1880   71.3100  -37.1750 C.3   139  LEU139      0.0270
     97  CG       -10.6850   70.3550  -38.2470 C.3   139  LEU139      0.0019
     98  CD1      -11.8330   69.4380  -38.6950 C.3   139  LEU139      0.0001
     99  CD2      -10.1780   71.1700  -39.3980 C.3   139  LEU139      0.0001
    100  N        -14.2010   76.3180  -35.4350 N.3   141  ALA141     -0.1245
    101  CA       -15.2790   76.9920  -36.1540 C.3   141  ALA141      0.1562
    102  C        -14.9140   78.4520  -36.4490 C.2   141  ALA141      0.2260
    103  O        -14.1590   79.0760  -35.7060 O.2   141  ALA141     -0.2867
    104  CB       -16.5640   76.9260  -35.3260 C.3   141  ALA141      0.0290
    105  N        -15.7740   81.8620  -36.1180 N.3   143  PHE143     -0.1241
    106  CA       -16.6360   82.6760  -35.2680 C.3   143  PHE143      0.1605
    107  C        -16.8740   84.0870  -35.8070 C.2   143  PHE143      0.2264
    108  O        -17.5920   84.8700  -35.1680 O.2   143  PHE143     -0.2867
    109  CB       -16.0450   82.7230  -33.8590 C.3   143  PHE143      0.0534
    110  CG       -16.1100   81.4100  -33.1290 C.ar  143  PHE143     -0.0203
    111  CD1      -17.3300   80.8560  -32.7780 C.ar  143  PHE143     -0.0042
    112  CD2      -14.9440   80.7190  -32.8090 C.ar  143  PHE143     -0.0042
    113  CE1      -17.4060   79.6300  -32.1000 C.ar  143  PHE143     -0.0003
    114  CE2      -15.0020   79.4910  -32.1320 C.ar  143  PHE143     -0.0003
    115  CZ       -16.2350   78.9430  -31.7860 C.ar  143  PHE143     -0.0000
    116  N        -23.2290   79.7830  -38.4830 N.3   149  LEU149     -0.1245
    117  CA       -22.9480   78.5690  -37.7050 C.3   149  LEU149      0.1561
    118  C        -24.2190   78.0270  -37.0550 C.2   149  LEU149      0.2260
    119  O        -24.4090   76.8050  -36.9550 O.2   149  LEU149     -0.2867
    120  CB       -21.9090   78.8540  -36.6310 C.3   149  LEU149      0.0270
    121  CG       -20.4420   79.1470  -36.9270 C.3   149  LEU149      0.0019
    122  CD1      -19.8310   79.6950  -35.6670 C.3   149  LEU149      0.0001
    123  CD2      -19.6750   77.8890  -37.3190 C.3   149  LEU149      0.0001
    124  N        -25.5580   74.2560  -38.2290 N.3   153  PHE153     -0.1241
    125  CA       -25.2890   73.1770  -37.2870 C.3   153  PHE153      0.1605
    126  C        -26.3280   73.0480  -36.1810 C.2   153  PHE153      0.2264
    127  O        -26.5730   71.9390  -35.6940 O.2   153  PHE153     -0.2867
    128  CB       -23.8990   73.3730  -36.6440 C.3   153  PHE153      0.0534
    129  CG       -22.7410   73.2660  -37.6050 C.ar  153  PHE153     -0.0203
    130  CD1      -22.2720   72.0340  -38.0100 C.ar  153  PHE153     -0.0042
    131  CD2      -22.0780   74.4050  -38.0590 C.ar  153  PHE153     -0.0042
    132  CE1      -21.2040   71.9350  -38.8700 C.ar  153  PHE153     -0.0003
    133  CE2      -21.0020   74.3070  -38.9140 C.ar  153  PHE153     -0.0003
    134  CZ       -20.5630   73.0630  -39.3260 C.ar  153  PHE153     -0.0000
    135  N        -20.2740   71.9120  -26.1040 N.3   165  PHE165     -0.1227
    136  CA       -19.2720   72.1750  -27.1240 C.3   165  PHE165      0.1736
    137  C        -17.8770   72.2710  -26.5410 C.2   165  PHE165      0.2595
    138  O        -17.6970   72.4310  -25.3340 O.2   165  PHE165     -0.2718
    139  CB       -19.5540   73.4800  -27.8500 C.3   165  PHE165      0.0547
    140  CG       -20.9220   73.5790  -28.3600 C.ar  165  PHE165     -0.0202
    141  CD1      -21.4010   72.6130  -29.2440 C.ar  165  PHE165     -0.0042
    142  CD2      -21.7630   74.6090  -27.9480 C.ar  165  PHE165     -0.0042
    143  CE1      -22.6850   72.6870  -29.7340 C.ar  165  PHE165     -0.0003
    144  CE2      -23.0540   74.6920  -28.4360 C.ar  165  PHE165     -0.0003
    145  CZ       -23.5090   73.7320  -29.3430 C.ar  165  PHE165     -0.0000
    146  N        -16.8940   72.0970  -27.4300 N.am  166  ILE166     -0.1980
    147  CA       -15.4950   72.4390  -27.1830 C.3   166  ILE166      0.1595
    148  C        -15.0590   73.4130  -28.2590 C.2   166  ILE166      0.2287
    149  O        -15.7350   73.5930  -29.2610 O.2   166  ILE166     -0.2864
    150  CB       -14.5740   71.2000  -27.1710 C.3   166  ILE166      0.0276
    151  CG1      -14.5900   70.4850  -28.5280 C.3   166  ILE166      0.0022
    152  CG2      -15.0070   70.2430  -26.0690 C.3   166  ILE166      0.0022
    153  CD1      -13.4790   69.3640  -28.6840 C.3   166  ILE166      0.0001
    154  N        -10.6490   61.8580  -38.4100 N.3   174  PHE174     -0.1241
    155  CA       -10.8670   62.1150  -39.8330 C.3   174  PHE174      0.1605
    156  C         -9.9040   61.3250  -40.7180 C.2   174  PHE174      0.2264
    157  O        -10.2090   61.0810  -41.8940 O.2   174  PHE174     -0.2867
    158  CB       -10.7360   63.6100  -40.1260 C.3   174  PHE174      0.0534
    159  CG       -11.9260   64.4150  -39.6920 C.ar  174  PHE174     -0.0203
    160  CD1      -12.0170   64.9040  -38.4060 C.ar  174  PHE174     -0.0042
    161  CD2      -12.9730   64.6750  -40.5830 C.ar  174  PHE174     -0.0042
    162  CE1      -13.1250   65.6530  -38.0100 C.ar  174  PHE174     -0.0003
    163  CE2      -14.0870   65.4090  -40.1900 C.ar  174  PHE174     -0.0003
    164  CZ       -14.1640   65.8920  -38.9060 C.ar  174  PHE174     -0.0000
    165  N        -25.4120   69.9250  -43.2730 N.3   198  VAL198     -0.1231
    166  CA       -24.0200   69.6590  -42.9650 C.3   198  VAL198      0.1692
    167  C        -23.5500   68.4420  -43.7500 C.2   198  VAL198      0.2591
    168  O        -22.5670   68.4830  -44.5020 O.2   198  VAL198     -0.2718
    169  CB       -23.8770   69.4520  -41.4520 C.3   198  VAL198      0.0266
    170  CG1      -22.4930   68.9800  -41.1040 C.3   198  VAL198      0.0020
    171  CG2      -24.2050   70.7360  -40.7240 C.3   198  VAL198      0.0020
    172  N        -24.2740   67.3450  -43.5810 N.am  199  LEU199     -0.1980
    173  CA       -24.0580   66.0840  -44.2750 C.3   199  LEU199      0.1596
    174  C        -25.2780   65.7750  -45.1430 C.2   199  LEU199      0.2287
    175  O        -26.2390   65.1420  -44.6730 O.2   199  LEU199     -0.2864
    176  CB       -23.8240   64.9910  -43.2420 C.3   199  LEU199      0.0297
    177  CG       -23.5880   63.5990  -43.8100 C.3   199  LEU199      0.0022
    178  CD1      -22.2540   63.5570  -44.5940 C.3   199  LEU199      0.0001
    179  CD2      -23.6010   62.6540  -42.6290 C.3   199  LEU199      0.0001
    180  N        -29.3870   68.5770  -38.9740 N.3   223  HIS223     -0.1226
    181  CA       -28.1720   67.9460  -38.4520 C.3   223  HIS223      0.1752
    182  C        -28.3020   67.3610  -37.0300 C.2   223  HIS223      0.2595
    183  O        -27.4710   66.5240  -36.6510 O.2   223  HIS223     -0.2718
    184  CB       -26.9930   68.9290  -38.5220 C.3   223  HIS223      0.0759
    185  CG       -25.6650   68.2810  -38.3000 C.ar  223  HIS223      0.0818
    186  ND1      -25.3060   67.0900  -38.8980 N.ar  223  HIS223     -0.2268
    187  CD2      -24.6130   68.6490  -37.5350 C.ar  223  HIS223      0.1154
    188  CE1      -24.0900   66.7520  -38.5060 C.ar  223  HIS223      0.1986
    189  NE2      -23.6500   67.6800  -37.6740 N.ar  223  HIS223     -0.2212
    190  N        -29.2330   67.8150  -36.1890 N.am  224  ALA224     -0.1980
    191  CA       -29.2430   67.3990  -34.7770 C.3   224  ALA224      0.1597
    192  C        -30.5870   66.8700  -34.2800 C.2   224  ALA224      0.2287
    193  O        -31.2620   67.5370  -33.4850 O.2   224  ALA224     -0.2864
    194  CB       -28.7770   68.5450  -33.8770 C.3   224  ALA224      0.0319
    195  N        -31.2900   64.7890  -31.9720 N.3   226  TYR226     -0.1227
    196  CA       -31.3050   64.7460  -30.5160 C.3   226  TYR226      0.1736
    197  C        -31.6870   66.0810  -29.9000 C.2   226  TYR226      0.2595
    198  O        -31.9250   66.1330  -28.6890 O.2   226  TYR226     -0.2718
    199  CB       -29.9470   64.3070  -29.9860 C.3   226  TYR226      0.0548
    200  CG       -28.7940   65.0620  -30.5820 C.ar  226  TYR226     -0.0200
    201  CD1      -28.4250   66.3010  -30.0740 C.ar  226  TYR226     -0.0009
    202  CD2      -28.0700   64.5530  -31.6460 C.ar  226  TYR226     -0.0009
    203  CE1      -27.3650   67.0140  -30.6040 C.ar  226  TYR226      0.0417
    204  CE2      -27.0000   65.2640  -32.1940 C.ar  226  TYR226      0.0417
    205  CZ       -26.6610   66.5070  -31.6530 C.ar  226  TYR226      0.1957
    206  OH       -25.6140   67.2510  -32.1400 O.3   226  TYR226     -0.2866
    207  N        -31.6790   67.1670  -30.6800 N.am  227  TYR227     -0.1976
    208  CA       -32.2690   68.4210  -30.2190 C.3   227  TYR227      0.1639
    209  C        -33.7480   68.5240  -30.5780 C.2   227  TYR227      0.2290
    210  O        -34.5680   68.8570  -29.7160 O.2   227  TYR227     -0.2864
    211  CB       -31.5290   69.6100  -30.8340 C.3   227  TYR227      0.0560
    212  CG       -30.1630   69.9100  -30.2330 C.ar  227  TYR227     -0.0198
    213  CD1      -29.8730   69.5850  -28.9270 C.ar  227  TYR227     -0.0009
    214  CD2      -29.1750   70.5160  -30.9890 C.ar  227  TYR227     -0.0009
    215  CE1      -28.6200   69.8610  -28.3860 C.ar  227  TYR227      0.0417
    216  CE2      -27.9310   70.7900  -30.4670 C.ar  227  TYR227      0.0417
    217  CZ       -27.6540   70.4490  -29.1740 C.ar  227  TYR227      0.1957
    218  OH       -26.4230   70.7170  -28.6460 O.3   227  TYR227     -0.2866
@<TRIPOS>BOND
     1    64    65    1
     2    60    59    2
     3    82    81    1
     4    59    58    1
     5    66    65    1
     6    66    67    2
     7    65    68    1
     8    57    58    1
     9    58    61    1
    10    81    80    1
    11    81    83    1
    12    80    77    1
    13    68    70    1
    14    68    69    1
    15   174   175    2
    16   174   173    1
    17    61    62    1
    18    61    63    1
    19    78    77    1
    20    78    79    2
    21    77    76    1
    22   178   177    1
    23   168   167    2
    24    76    73   am
    25   173   172    1
    26   173   176    1
    27    71    72    1
    28   177   176    1
    29   177   179    1
    30   167   172   am
    31   167   166    1
    32   165   166    1
    33    73    72    1
    34    73    74    2
    35   166   169    1
    36    72    75    1
    37   157   156    2
    38    55    54    1
    39    87    86    2
    40   169   170    1
    41   169   171    1
    42    56    54    1
    43    51    52    1
    44    51    54    1
    45    51    50    1
    46    52    53    2
    47    84    85    1
    48   156   155    1
    49    86    85    1
    50   161   163   ar
    51   161   159   ar
    52   163   164   ar
    53   158   155    1
    54   158   159    1
    55    85    88    1
    56   155   154    1
    57   159   160   ar
    58    88    89    1
    59    88    90    1
    60    99    97    1
    61   134   133   ar
    62   134   132   ar
    63    89    91    1
    64   180   181    1
    65   133   131   ar
    66   164   162   ar
    67   186   188   ar
    68   186   185   ar
    69   132   130   ar
    70    98    97    1
    71   184   181    1
    72   184   185    1
    73   188   189   ar
    74   116   117    1
    75   181   182    1
    76   160   162   ar
    77   185   187   ar
    78    97    96    1
    79   124   125    1
    80   131   129   ar
    81    48    47    1
    82   130   129   ar
    83    41    40    1
    84   117   118    1
    85   117   120    1
    86   189   187   ar
    87    39    38    2
    88   129   128    1
    89   123   121    1
    90    38    37    1
    91    38    42   am
    92   125   128    1
    93   125   126    1
    94    37    40    1
    95    37    36    1
    96    96    93    1
    97   118   119    2
    98   182   183    2
    99   182   190   am
   100    42    43    1
   101    43    46    1
   102    43    44    1
   103   121   120    1
   104   121   122    1
   105    46    47    1
   106    47    49    1
   107    93    92    1
   108    93    94    1
   109   102   101    1
   110   102   103    2
   111    36    28   am
   112   190   191    1
   113   126   127    2
   114    45    44    2
   115   101   100    1
   116   101   104    1
   117   105   106    1
   118   107   106    1
   119   107   108    2
   120    94    95    2
   121    35    33   ar
   122    35    34   ar
   123   106   109    1
   124     9     6    1
   125    28    29    2
   126    28    27    1
   127    33    31   ar
   128    34    32   ar
   129   191   192    1
   130   191   194    1
   131   192   193    2
   132    27    26    1
   133    27    30    1
   134    31    32   ar
   135    31    30    1
   136     5     6    1
   137     5     3   am
   138    16    15    1
   139   109   110    1
   140     6     7    1
   141     8     7    2
   142     2     3    1
   143     2     1    1
   144   110   112   ar
   145   110   111   ar
   146     7    10   am
   147    15    14    1
   148    15    17    1
   149     3     4    2
   150   112   114   ar
   151   111   113   ar
   152    14    11    1
   153    10    11    1
   154   204   205   ar
   155   204   202   ar
   156   206   205    1
   157   114   115   ar
   158   113   115   ar
   159   195   196    1
   160    24    23    2
   161   205   203   ar
   162   202   200   ar
   163    11    12    1
   164   214   216   ar
   165   214   212   ar
   166   211   212    1
   167   211   208    1
   168    23    25   am
   169    23    22    1
   170   207   208    1
   171   207   197   am
   172   203   201   ar
   173   200   201   ar
   174   200   199    1
   175   209   208    1
   176   209   210    2
   177   196   199    1
   178   196   197    1
   179   216   217   ar
   180    12    18   am
   181    12    13    2
   182   212   213   ar
   183    18    19    1
   184   197   198    2
   185    22    19    1
   186   143   145   ar
   187   143   141   ar
   188   145   144   ar
   189   149   148    2
   190    19    20    1
   191   141   140   ar
   192   217   218    1
   193   217   215   ar
   194   213   215   ar
   195   153   151    1
   196   151   150    1
   197   144   142   ar
   198   140   142   ar
   199   140   139    1
   200   148   147    1
   201    20    21    2
   202   139   136    1
   203   146   147    1
   204   146   137   am
   205   147   150    1
   206   150   152    1
   207   136   137    1
   208   136   135    1
   209   137   138    2
