@<TRIPOS>MOLECULE
tmp/5y5sC01.pdb
 101 101 0 0 0
SMALL
GASTEIGER

@<TRIPOS>ATOM
      1  N        -68.7980   41.9250   57.9620 N.3     2  GLU2       -0.1231
      2  CA       -69.1820   41.1650   56.7840 C.3     2  GLU2        0.1699
      3  C        -68.6480   39.7420   56.9150 C.2     2  GLU2        0.2592
      4  O        -67.7310   39.4680   57.6920 O.2     2  GLU2       -0.2718
      5  CB       -68.6770   41.8430   55.4970 C.3     2  GLU2        0.0402
      6  CG       -69.2420   41.2710   54.1860 C.3     2  GLU2        0.1161
      7  CD       -70.7550   41.0690   54.2350 C.2     2  GLU2        0.3649
      8  OE1      -71.2130   39.9610   54.6060 O.co2   2  GLU2       -0.2457
      9  OE2      -71.4900   42.0390   53.9170 O.co2   2  GLU2       -0.2457
     10  N        -69.2560   38.8440   56.1470 N.am    3  TYR3       -0.1962
     11  CA       -68.7470   37.4910   55.9920 C.3     3  TYR3        0.1771
     12  C        -67.4560   37.5420   55.1870 C.2     3  TYR3        0.2619
     13  O        -67.4030   38.1380   54.1060 O.2     3  TYR3       -0.2715
     14  CB       -69.8120   36.6040   55.3260 C.3     3  TYR3        0.0574
     15  CG       -69.3990   35.1450   55.1590 C.ar    3  TYR3       -0.0198
     16  CD1      -68.7800   34.4430   56.2060 C.ar    3  TYR3       -0.0009
     17  CD2      -69.6310   34.4740   53.9620 C.ar    3  TYR3       -0.0009
     18  CE1      -68.4030   33.0990   56.0600 C.ar    3  TYR3        0.0417
     19  CE2      -69.2490   33.1160   53.7980 C.ar    3  TYR3        0.0417
     20  CZ       -68.6450   32.4500   54.8560 C.ar    3  TYR3        0.1957
     21  OH       -68.2720   31.1370   54.7040 O.3     3  TYR3       -0.2866
     22  N        -66.4000   36.9620   55.7430 N.am    4  GLN4       -0.1963
     23  CA       -65.0850   36.9650   55.1150 C.3     4  GLN4        0.1733
     24  C        -64.8470   35.7450   54.2290 C.2     4  GLN4        0.2616
     25  O        -63.8600   35.7190   53.4790 O.2     4  GLN4       -0.2715
     26  CB       -63.9920   37.0490   56.1990 C.3     4  GLN4        0.0408
     27  CG       -64.1360   38.2770   57.1160 C.3     4  GLN4        0.0908
     28  CD       -64.0630   39.5890   56.3420 C.2     4  GLN4        0.2608
     29  OE1      -63.2110   39.7560   55.4800 O.2     4  GLN4       -0.2717
     30  NE2      -64.9610   40.5210   56.6510 N.am    4  GLN4       -0.0878
     31  N        -65.7320   34.7550   54.2890 N.am    5  ASN5       -0.1958
     32  CA       -65.6310   33.5400   53.4780 C.3     5  ASN5        0.1819
     33  C        -64.3130   32.8200   53.7670 C.2     5  ASN5        0.2621
     34  O        -63.6270   32.3330   52.8610 O.2     5  ASN5       -0.2715
     35  CB       -65.7930   33.8490   51.9880 C.3     5  ASN5        0.1195
     36  CG       -66.5480   32.7570   51.2220 C.2     5  ASN5        0.2630
     37  OD1      -66.8030   31.6420   51.7250 O.2     5  ASN5       -0.2716
     38  ND2      -66.8970   33.0750   49.9810 N.am    5  ASN5       -0.0877
     39  N        -63.9530   32.7620   55.0490 N.am    6  ILE6       -0.1963
     40  CA       -62.8110   31.9450   55.4810 C.3     6  ILE6        0.1727
     41  C        -63.2510   30.5470   55.9030 C.2     6  ILE6        0.2616
     42  O        -62.6010   29.5510   55.5640 O.2     6  ILE6       -0.2715
     43  CB       -62.0660   32.6580   56.6310 C.3     6  ILE6        0.0290
     44  CG1      -61.5670   34.0320   56.1770 C.3     6  ILE6        0.0022
     45  CG2      -60.9050   31.8320   57.1100 C.3     6  ILE6        0.0023
     46  CD1      -60.5180   33.9570   55.0780 C.3     6  ILE6        0.0001
     47  N        -64.3180   30.4750   56.6850 N.am    7  PHE7       -0.1974
     48  CA       -64.9160   29.2380   57.1530 C.3     7  PHE7        0.1639
     49  C        -66.3370   29.1120   56.6300 C.2     7  PHE7        0.2290
     50  O        -67.0980   30.0970   56.5820 O.2     7  PHE7       -0.2864
     51  CB       -64.9150   29.1780   58.6800 C.3     7  PHE7        0.0560
     52  CG       -63.5360   29.2880   59.2820 C.ar    7  PHE7       -0.0200
     53  CD1      -62.6320   28.2440   59.1670 C.ar    7  PHE7       -0.0042
     54  CD2      -63.1530   30.4250   59.9630 C.ar    7  PHE7       -0.0042
     55  CE1      -61.3540   28.3380   59.7190 C.ar    7  PHE7       -0.0003
     56  CE2      -61.8970   30.5260   60.5180 C.ar    7  PHE7       -0.0003
     57  CZ       -60.9870   29.4750   60.3970 C.ar    7  PHE7       -0.0000
     58  N        -69.9040   28.2620   57.2900 N.3     9  ALA9       -0.1245
     59  CA       -70.7490   28.2670   58.4850 C.3     9  ALA9        0.1562
     60  C        -71.7910   27.1580   58.4560 C.2     9  ALA9        0.2260
     61  O        -72.1350   26.5920   59.5050 O.2     9  ALA9       -0.2867
     62  CB       -71.4600   29.6350   58.6380 C.3     9  ALA9        0.0290
     63  N        -64.9600   18.5430   59.9400 N.3    38  TRP38      -0.1227
     64  CA       -63.9950   19.6050   60.2060 C.3    38  TRP38       0.1737
     65  C        -63.2290   20.0140   58.9550 C.2    38  TRP38       0.2595
     66  O        -62.9340   21.1990   58.7850 O.2    38  TRP38      -0.2718
     67  CB       -63.0540   19.2060   61.3560 C.3    38  TRP38       0.0564
     68  CG       -63.8260   19.2650   62.6330 C.ar   38  TRP38       0.0003
     69  CD1      -64.2970   18.2130   63.3590 C.ar   38  TRP38       0.0946
     70  CD2      -64.3170   20.4480   63.2760 C.ar   38  TRP38       0.0152
     71  NE1      -65.0160   18.6660   64.4400 N.ar   38  TRP38      -0.2442
     72  CE2      -65.0410   20.0370   64.4120 C.ar   38  TRP38       0.0810
     73  CE3      -64.1910   21.8180   63.0140 C.ar   38  TRP38       0.0012
     74  CZ2      -65.6400   20.9460   65.2870 C.ar   38  TRP38       0.0191
     75  CZ3      -64.7860   22.7190   63.8830 C.ar   38  TRP38       0.0001
     76  CH2      -65.5000   22.2800   65.0040 C.ar   38  TRP38       0.0015
     77  N        -62.9390   19.0800   58.0480 N.am   39  LEU39      -0.1980
     78  CA       -62.4120   19.4840   56.7470 C.3    39  LEU39       0.1596
     79  C        -63.4330   20.3140   55.9820 C.2    39  LEU39       0.2287
     80  O        -63.0570   21.2320   55.2390 O.2    39  LEU39      -0.2864
     81  CB       -61.9950   18.2660   55.9190 C.3    39  LEU39       0.0297
     82  CG       -60.5910   17.6940   56.1220 C.3    39  LEU39       0.0022
     83  CD1      -60.3890   16.4710   55.2160 C.3    39  LEU39       0.0001
     84  CD2      -59.5000   18.7450   55.8630 C.3    39  LEU39       0.0001
     85  N        -65.3610   22.5080   57.1550 N.3    41  LYS41      -0.1231
     86  CA       -65.3540   23.8890   57.6220 C.3    41  LYS41       0.1693
     87  C        -64.4160   24.7580   56.7920 C.2    41  LYS41       0.2591
     88  O        -64.6620   25.9610   56.6290 O.2    41  LYS41      -0.2718
     89  CB       -64.9370   23.9440   59.0940 C.3    41  LYS41       0.0285
     90  CG       -66.0570   23.7490   60.0960 C.3    41  LYS41       0.0035
     91  CD       -66.5370   25.0830   60.6470 C.3    41  LYS41       0.0206
     92  CE       -67.5340   24.8890   61.7840 C.3    41  LYS41       0.1093
     93  NZ       -68.9510   25.1110   61.3500 N.3    41  LYS41      -0.1314
     94  N        -63.2930   24.1930   56.3290 N.am   42  ILE42      -0.1980
     95  CA       -62.3440   24.9660   55.5420 C.3    42  ILE42       0.1595
     96  C        -62.4050   24.6420   54.0570 C.2    42  ILE42       0.2287
     97  O        -62.0590   25.5030   53.2340 O.2    42  ILE42      -0.2864
     98  CB       -60.9090   24.7910   56.0820 C.3    42  ILE42       0.0276
     99  CG1      -60.4810   23.3330   56.0120 C.3    42  ILE42       0.0022
    100  CG2      -60.8490   25.2870   57.5280 C.3    42  ILE42       0.0022
    101  CD1      -59.1070   23.0660   56.6070 C.3    42  ILE42       0.0001
@<TRIPOS>BOND
     1    38    36   am
     2    36    37    2
     3    36    35    1
     4    35    32    1
     5    34    33    2
     6    97    96    2
     7    32    33    1
     8    32    31    1
     9    25    24    2
    10    33    39   am
    11    19    17   ar
    12    19    20   ar
    13     9     7   ar
    14    17    15   ar
    15    96    95    1
    16    13    12    2
    17     6     7    1
    18     6     5    1
    19    24    31   am
    20    24    23    1
    21     7     8   ar
    22    21    20    1
    23    20    18   ar
    24    39    40    1
    25    46    44    1
    26    23    22    1
    27    23    26    1
    28    15    14    1
    29    15    16   ar
    30    12    22   am
    31    12    11    1
    32    83    82    1
    33    80    79    2
    34    14    11    1
    35    29    28    2
    36    40    41    1
    37    40    43    1
    38     5     2    1
    39    95    98    1
    40    95    94    1
    41    42    41    2
    42    84    82    1
    43    41    47   am
    44    81    82    1
    45    81    78    1
    46    79    78    1
    47    11    10    1
    48    99    98    1
    49    99   101    1
    50    18    16   ar
    51    98   100    1
    52    10     3   am
    53    44    43    1
    54    26    27    1
    55    94    87   am
    56    28    30   am
    57    28    27    1
    58    50    49    2
    59    88    87    2
    60    49    48    1
    61    43    45    1
    62    47    48    1
    63    78    77    1
    64     2     3    1
    65     2     1    1
    66    87    86    1
    67     3     4    2
    68    48    51    1
    69    85    86    1
    70    58    59    1
    71    86    89    1
    72    77    65   am
    73    60    59    1
    74    60    61    2
    75    59    62    1
    76    51    52    1
    77    66    65    2
    78    65    64    1
    79    89    90    1
    80    53    52   ar
    81    53    55   ar
    82    52    54   ar
    83    55    57   ar
    84    63    64    1
    85    54    56   ar
    86    90    91    1
    87    64    67    1
    88    57    56   ar
    89    91    92    1
    90    93    92    1
    91    67    68    1
    92    68    70   ar
    93    68    69   ar
    94    73    70   ar
    95    73    75   ar
    96    70    72   ar
    97    69    71   ar
    98    75    76   ar
    99    72    71   ar
   100    72    74   ar
   101    76    74   ar
