@<TRIPOS>MOLECULE
tmp/5y5sM04.pdb
 95 90 0 0 0
SMALL
GASTEIGER

@<TRIPOS>ATOM
      1  N        -52.6890    1.0500   16.4230 N.3    12  ILE12      -0.1231
      2  CA       -52.7200    1.0720   17.8870 C.3    12  ILE12       0.1692
      3  C        -52.1540    2.3750   18.4410 C.2    12  ILE12       0.2592
      4  O        -52.7410    2.9910   19.3290 O.2    12  ILE12      -0.2718
      5  CB       -51.9430   -0.1380   18.4540 C.3    12  ILE12       0.0266
      6  CG1      -52.0340   -1.3320   17.5060 C.3    12  ILE12       0.0019
      7  CG2      -52.4560   -0.5150   19.8350 C.3    12  ILE12       0.0020
      8  CD1      -51.1840   -2.5100   17.9370 C.3    12  ILE12       0.0001
      9  N        -50.9940    2.7930   17.9410 N.am   13  LEU13      -0.1966
     10  CA       -50.2670    3.9390   18.4680 C.3    13  LEU13       0.1728
     11  C        -50.3710    5.1140   17.5050 C.2    13  LEU13       0.2616
     12  O        -50.2030    4.9460   16.2920 O.2    13  LEU13      -0.2715
     13  CB       -48.7960    3.5850   18.7040 C.3    13  LEU13       0.0311
     14  CG       -48.4860    2.4070   19.6310 C.3    13  LEU13       0.0022
     15  CD1      -46.9830    2.1720   19.7210 C.3    13  LEU13       0.0001
     16  CD2      -49.0790    2.6540   21.0060 C.3    13  LEU13       0.0001
     17  N        -50.6440    6.2960   18.0540 N.am   14  ASP14      -0.1971
     18  CA       -50.7070    7.5530   17.3190 C.3    14  ASP14       0.1709
     19  C        -49.3900    7.8000   16.5950 C.2    14  ASP14       0.2293
     20  O        -48.3630    8.0470   17.2390 O.2    14  ASP14      -0.2864
     21  CB       -51.0220    8.7100   18.2760 C.3    14  ASP14       0.1436
     22  CG       -51.1440   10.0520   17.5660 C.2    14  ASP14       0.3671
     23  OD1      -50.9800   10.1060   16.3330 O.co2  14  ASP14      -0.2456
     24  OD2      -51.4120   11.0650   18.2470 O.co2  14  ASP14      -0.2456
     25  N        -47.7770   11.3250   17.5140 N.3    17  ARG17      -0.1231
     26  CA       -47.2120   11.4380   18.8560 C.3    17  ARG17       0.1694
     27  C        -45.9210   10.6350   18.9890 C.2    17  ARG17       0.2591
     28  O        -44.9860   11.0630   19.6770 O.2    17  ARG17      -0.2718
     29  CB       -48.2330   10.9870   19.8990 C.3    17  ARG17       0.0321
     30  CG       -47.7820   11.2160   21.3360 C.3    17  ARG17       0.0489
     31  CD       -48.9270   10.9960   22.3040 C.3    17  ARG17       0.2205
     32  NE       -48.5200   11.1510   23.6970 N.pl3  17  ARG17      -0.0865
     33  CZ       -49.3060   10.8740   24.7340 C.cat  17  ARG17       0.5346
     34  NH1      -50.5360   10.4190   24.5290 N.pl3  17  ARG17       0.1354
     35  NH2      -48.8660   11.0460   25.9740 N.pl3  17  ARG17       0.1354
     36  N        -45.8570    9.4610   18.3540 N.am   18  VAL18      -0.1980
     37  CA       -44.6260    8.6740   18.3680 C.3    18  VAL18       0.1595
     38  C        -43.5040    9.4310   17.6670 C.2    18  VAL18       0.2287
     39  O        -42.3550    9.4340   18.1280 O.2    18  VAL18      -0.2864
     40  CB       -44.8760    7.2950   17.7250 C.3    18  VAL18       0.0276
     41  CG1      -43.5680    6.5100   17.5780 C.3    18  VAL18       0.0022
     42  CG2      -45.8710    6.5090   18.5570 C.3    18  VAL18       0.0022
     43  N        -42.2730   12.2940   19.8780 N.3    21  SER21      -0.1202
     44  CA       -41.5910   11.7040   21.0240 C.3    21  SER21       0.2020
     45  C        -40.1990   11.2310   20.6410 C.2    21  SER21       0.2618
     46  O        -39.2510   11.3660   21.4240 O.2    21  SER21      -0.2717
     47  CB       -42.4100   10.5410   21.5830 C.3    21  SER21       0.2103
     48  OG       -43.6730   10.9940   22.0250 O.3    21  SER21      -0.2182
     49  N        -40.0550   10.6800   19.4330 N.am   22  ILE22      -0.1979
     50  CA       -38.7520   10.1960   18.9880 C.3    22  ILE22       0.1595
     51  C        -37.7890   11.3630   18.8010 C.2    22  ILE22       0.2287
     52  O        -36.6310   11.3080   19.2340 O.2    22  ILE22      -0.2864
     53  CB       -38.9070    9.3660   17.7010 C.3    22  ILE22       0.0276
     54  CG1      -39.3970    7.9520   18.0370 C.3    22  ILE22       0.0022
     55  CG2      -37.6120    9.3470   16.9170 C.3    22  ILE22       0.0022
     56  CD1      -39.5430    7.0370   16.8260 C.3    22  ILE22       0.0001
     57  N        -37.9060   14.3750   20.2410 N.3    24  ALA24      -0.1231
     58  CA       -37.5640   14.9120   21.5550 C.3    24  ALA24       0.1694
     59  C        -36.5620   14.0160   22.2700 C.2    24  ALA24       0.2592
     60  O        -35.5600   14.4990   22.8100 O.2    24  ALA24      -0.2718
     61  CB       -38.8230   15.0800   22.4050 C.3    24  ALA24       0.0304
     62  N        -36.8280   12.7050   22.2970 N.am   25  PHE25      -0.1976
     63  CA       -35.9320   11.7830   22.9910 C.3    25  PHE25       0.1639
     64  C        -34.5410   11.7790   22.3650 C.2    25  PHE25       0.2290
     65  O        -33.5260   11.7430   23.0770 O.2    25  PHE25      -0.2864
     66  CB       -36.5240   10.3770   22.9830 C.3    25  PHE25       0.0560
     67  CG       -35.5600    9.3090   23.4340 C.ar   25  PHE25      -0.0200
     68  CD1      -35.2160    9.1890   24.7690 C.ar   25  PHE25      -0.0042
     69  CD2      -35.0060    8.4190   22.5200 C.ar   25  PHE25      -0.0042
     70  CE1      -34.3320    8.2010   25.1820 C.ar   25  PHE25      -0.0003
     71  CE2      -34.1360    7.4380   22.9290 C.ar   25  PHE25      -0.0003
     72  CZ       -33.7980    7.3270   24.2630 C.ar   25  PHE25      -0.0000
     73  N        -32.5450   15.0370   23.2450 N.3    28  VAL28      -0.1231
     74  CA       -32.0870   15.0420   24.6330 C.3    28  VAL28       0.1692
     75  C        -30.9660   14.0220   24.8290 C.2    28  VAL28       0.2591
     76  O        -29.9830   14.2870   25.5350 O.2    28  VAL28      -0.2718
     77  CB       -33.2690   14.7960   25.5880 C.3    28  VAL28       0.0266
     78  CG1      -32.7800   14.6820   27.0280 C.3    28  VAL28       0.0020
     79  CG2      -34.2880   15.9370   25.4710 C.3    28  VAL28       0.0020
     80  N        -31.0830   12.8550   24.1920 N.am   29  LEU29      -0.1980
     81  CA       -30.0320   11.8420   24.2760 C.3    29  LEU29       0.1596
     82  C        -28.7270   12.3600   23.6830 C.2    29  LEU29       0.2287
     83  O        -27.6570   12.2240   24.2910 O.2    29  LEU29      -0.2864
     84  CB       -30.4840   10.5650   23.5670 C.3    29  LEU29       0.0297
     85  CG       -29.5310    9.3650   23.6730 C.3    29  LEU29       0.0022
     86  CD1      -29.4150    8.8750   25.1280 C.3    29  LEU29       0.0001
     87  CD2      -29.9600    8.2490   22.7440 C.3    29  LEU29       0.0001
     88  N        -27.1050   14.6790   26.1030 N.3    32  LEU32      -0.1245
     89  CA       -26.5840   13.9530   27.2650 C.3    32  LEU32       0.1561
     90  C        -25.3130   13.1780   26.9270 C.2    32  LEU32       0.2260
     91  O        -24.3400   13.1940   27.6890 O.2    32  LEU32      -0.2867
     92  CB       -27.6550   13.0010   27.8010 C.3    32  LEU32       0.0270
     93  CG       -27.2120   11.9750   28.8520 C.3    32  LEU32       0.0019
     94  CD1      -26.9360   12.6440   30.1900 C.3    32  LEU32       0.0001
     95  CD2      -28.2590   10.8640   29.0090 C.3    32  LEU32       0.0001
@<TRIPOS>BOND
     1    12    11    2
     2    23    22   ar
     3     1     2    1
     4    19    20    2
     5    19    18    1
     6    56    54    1
     7    55    53    1
     8    18    17    1
     9    18    21    1
    10    11    17   am
    11    11    10    1
    12     6     8    1
    13     6     5    1
    14    25    26    1
    15    22    24   ar
    16    22    21    1
    17    41    40    1
    18    38    39    2
    19    38    37    1
    20    53    54    1
    21    53    50    1
    22    40    37    1
    23    40    42    1
    24     2     3    1
    25     2     5    1
    26     9     3   am
    27     9    10    1
    28    36    37    1
    29    36    27   am
    30     3     4    2
    31     5     7    1
    32    10    13    1
    33    13    14    1
    34    51    50    1
    35    51    52    2
    36    26    27    1
    37    26    29    1
    38    50    49    1
    39    27    28    2
    40    49    45   am
    41    14    15    1
    42    14    16    1
    43    43    44    1
    44    29    30    1
    45    57    58    1
    46    45    44    1
    47    45    46    2
    48    44    47    1
    49    30    31    1
    50    58    59    1
    51    58    61    1
    52    47    48    1
    53    59    62   am
    54    59    60    2
    55    62    63    1
    56    31    32    1
    57    64    63    1
    58    64    65    2
    59    69    71   ar
    60    69    67   ar
    61    87    85    1
    62    71    72   ar
    63    66    63    1
    64    66    67    1
    65    73    74    1
    66    67    68   ar
    67    84    85    1
    68    84    81    1
    69    85    86    1
    70    82    81    1
    71    82    83    2
    72    32    33    2
    73    80    81    1
    74    80    75   am
    75    72    70   ar
    76    34    33    1
    77    74    75    1
    78    74    77    1
    79    33    35    1
    80    68    70   ar
    81    75    76    2
    82    79    77    1
    83    77    78    1
    84    88    89    1
    85    90    89    1
    86    90    91    2
    87    89    92    1
    88    92    93    1
    89    93    95    1
    90    93    94    1
