@<TRIPOS>MOLECULE
tmp/5y5sD02.pdb
 107 104 0 0 0
SMALL
GASTEIGER

@<TRIPOS>ATOM
      1  N        -36.8760   38.2180   30.1220 N.3    20  PHE20      -0.1241
      2  CA       -37.5450   39.3340   29.4790 C.3    20  PHE20       0.1605
      3  C        -38.4380   38.8490   28.3480 C.2    20  PHE20       0.2264
      4  O        -39.5280   39.3960   28.1550 O.2    20  PHE20      -0.2867
      5  CB       -36.5150   40.3720   29.0390 C.3    20  PHE20       0.0534
      6  CG       -35.9580   41.1520   30.1980 C.ar   20  PHE20      -0.0203
      7  CD1      -36.7230   42.1250   30.8220 C.ar   20  PHE20      -0.0042
      8  CD2      -34.7080   40.8680   30.7110 C.ar   20  PHE20      -0.0042
      9  CE1      -36.2370   42.8160   31.9150 C.ar   20  PHE20      -0.0003
     10  CE2      -34.2190   41.5560   31.7990 C.ar   20  PHE20      -0.0003
     11  CZ       -34.9810   42.5280   32.4020 C.ar   20  PHE20      -0.0000
     12  N        -41.6740   37.7740   30.1650 N.3    23  ILE23      -0.1231
     13  CA       -42.5190   38.8890   30.5910 C.3    23  ILE23       0.1692
     14  C        -43.3480   39.4000   29.4260 C.2    23  ILE23       0.2591
     15  O        -44.5250   39.7420   29.5870 O.2    23  ILE23      -0.2718
     16  CB       -41.6660   40.0200   31.2000 C.3    23  ILE23       0.0266
     17  CG1      -40.9520   39.5500   32.4700 C.3    23  ILE23       0.0019
     18  CG2      -42.5190   41.2550   31.4980 C.3    23  ILE23       0.0020
     19  CD1      -41.8710   38.8710   33.4640 C.3    23  ILE23       0.0001
     20  N        -42.7470   39.4820   28.2390 N.am   24  ILE24      -0.1980
     21  CA       -43.4910   39.9910   27.0890 C.3    24  ILE24       0.1595
     22  C        -44.5940   39.0170   26.7050 C.2    24  ILE24       0.2287
     23  O        -45.7210   39.4230   26.3970 O.2    24  ILE24      -0.2864
     24  CB       -42.5470   40.2710   25.9090 C.3    24  ILE24       0.0276
     25  CG1      -41.4560   41.2630   26.3300 C.3    24  ILE24       0.0022
     26  CG2      -43.3510   40.7840   24.7120 C.3    24  ILE24       0.0022
     27  CD1      -40.3930   41.4990   25.2830 C.3    24  ILE24       0.0001
     28  N        -47.3900   39.6040   29.3430 N.3    27  ARG27      -0.1245
     29  CA       -48.1350   40.8510   29.1530 C.3    27  ARG27       0.1563
     30  C        -49.0850   40.7770   27.9630 C.2    27  ARG27       0.2260
     31  O        -50.1390   41.4330   27.9660 O.2    27  ARG27      -0.2867
     32  CB       -47.1570   42.0170   28.9880 C.3    27  ARG27       0.0307
     33  CG       -46.4380   42.4320   30.2820 C.3    27  ARG27       0.0489
     34  CD       -47.4440   42.7900   31.3620 C.3    27  ARG27       0.2205
     35  NE       -48.2210   44.0010   31.0440 N.pl3  27  ARG27      -0.0865
     36  CZ       -49.4030   44.2830   31.5810 C.cat  27  ARG27       0.5346
     37  NH1      -49.9510   43.4330   32.4400 N.pl3  27  ARG27       0.1354
     38  NH2      -50.0340   45.4120   31.2730 N.pl3  27  ARG27       0.1354
     39  N        -60.2180   55.3260   25.6340 N.3    39  SER39      -0.1217
     40  CA       -59.4940   56.5600   25.8850 C.3    39  SER39       0.1889
     41  C        -60.2380   57.7140   25.2280 C.2    39  SER39       0.2288
     42  O        -61.1530   57.5170   24.4260 O.2    39  SER39      -0.2866
     43  CB       -58.0590   56.4860   25.3520 C.3    39  SER39       0.2089
     44  OG       -58.0490   56.4020   23.9370 O.3    39  SER39      -0.2183
     45  N        -58.3370   59.6400   23.4700 N.3    41  ARG41      -0.1245
     46  CA       -57.5380   59.7430   22.2570 C.3    41  ARG41       0.1563
     47  C        -58.2080   59.0200   21.0950 C.2    41  ARG41       0.2260
     48  O        -58.1700   59.5020   19.9560 O.2    41  ARG41      -0.2867
     49  CB       -56.1430   59.1750   22.5060 C.3    41  ARG41       0.0307
     50  CG       -55.0610   59.7830   21.6430 C.3    41  ARG41       0.0489
     51  CD       -53.9160   58.7990   21.4570 C.3    41  ARG41       0.2205
     52  NE       -52.7540   59.4010   20.8070 N.pl3  41  ARG41      -0.0865
     53  CZ       -52.7230   59.8030   19.5390 C.cat  41  ARG41       0.5346
     54  NH1      -51.6120   60.3270   19.0450 N.pl3  41  ARG41       0.1354
     55  NH2      -53.8010   59.6980   18.7680 N.pl3  41  ARG41       0.1354
     56  N        -57.0120   55.6760   16.1680 N.3    49  VAL49      -0.1231
     57  CA       -55.9150   55.2420   17.0290 C.3    49  VAL49       0.1692
     58  C        -56.4610   54.3000   18.0920 C.2    49  VAL49       0.2592
     59  O        -57.2600   54.7090   18.9430 O.2    49  VAL49      -0.2718
     60  CB       -55.2030   56.4400   17.6750 C.3    49  VAL49       0.0266
     61  CG1      -54.1900   55.9640   18.7160 C.3    49  VAL49       0.0020
     62  CG2      -54.5330   57.2900   16.6060 C.3    49  VAL49       0.0020
     63  N        -56.0170   53.0430   18.0550 N.am   50  LYS50      -0.1966
     64  CA       -56.3600   52.0590   19.0750 C.3    50  LYS50       0.1728
     65  C        -55.2580   52.0350   20.1290 C.2    50  LYS50       0.2616
     66  O        -54.0800   51.8490   19.8020 O.2    50  LYS50      -0.2715
     67  CB       -56.5490   50.6750   18.4530 C.3    50  LYS50       0.0311
     68  CG       -57.6980   50.5960   17.4500 C.3    50  LYS50       0.0038
     69  CD       -58.9690   51.1580   18.0570 C.3    50  LYS50       0.0206
     70  CE       -60.1210   51.1450   17.0710 C.3    50  LYS50       0.1093
     71  NZ       -61.2660   51.9540   17.5810 N.3    50  LYS50      -0.1314
     72  N        -55.6340   52.2280   21.3880 N.am   51  VAL51      -0.1963
     73  CA       -54.6750   52.2700   22.4880 C.3    51  VAL51       0.1727
     74  C        -54.4930   50.8470   23.0130 C.2    51  VAL51       0.2616
     75  O        -55.4310   50.2610   23.5590 O.2    51  VAL51      -0.2715
     76  CB       -55.1530   53.2180   23.5950 C.3    51  VAL51       0.0290
     77  CG1      -54.2110   53.1920   24.7750 C.3    51  VAL51       0.0023
     78  CG2      -55.3220   54.6460   23.0470 C.3    51  VAL51       0.0023
     79  N        -53.2930   50.2810   22.8460 N.am   52  VAL52      -0.1963
     80  CA       -53.0360   48.9110   23.2960 C.3    52  VAL52       0.1727
     81  C        -51.7340   48.8180   24.0950 C.2    52  VAL52       0.2617
     82  O        -51.4750   47.8110   24.7630 O.2    52  VAL52      -0.2715
     83  CB       -53.0160   47.9300   22.1050 C.3    52  VAL52       0.0290
     84  CG1      -54.3330   48.0010   21.3030 C.3    52  VAL52       0.0023
     85  CG2      -51.8140   48.2010   21.2070 C.3    52  VAL52       0.0023
     86  N        -50.9070   49.8560   24.0420 N.am   53  GLY53      -0.1940
     87  CA       -49.6660   49.8070   24.7980 C.3    53  GLY53       0.2014
     88  C        -48.6540   48.8420   24.1930 C.2    53  GLY53       0.2639
     89  O        -48.6630   48.5630   22.9890 O.2    53  GLY53      -0.2714
     90  N        -47.7660   48.3150   25.0450 N.am   54  PHE54      -0.1960
     91  CA       -46.7550   47.3750   24.5770 C.3    54  PHE54       0.1756
     92  C        -46.5460   46.2630   25.6010 C.2    54  PHE54       0.2461
     93  O        -46.3310   46.5480   26.7940 O.2    54  PHE54      -0.2730
     94  CB       -45.4080   48.0400   24.2730 C.3    54  PHE54       0.0574
     95  CG       -44.3280   47.0490   23.9160 C.ar   54  PHE54      -0.0200
     96  CD1      -44.1760   46.6130   22.6100 C.ar   54  PHE54      -0.0042
     97  CD2      -43.4900   46.5240   24.8960 C.ar   54  PHE54      -0.0042
     98  CE1      -43.1990   45.6850   22.2830 C.ar   54  PHE54      -0.0003
     99  CE2      -42.5150   45.5950   24.5760 C.ar   54  PHE54      -0.0003
    100  CZ       -42.3690   45.1770   23.2670 C.ar   54  PHE54      -0.0000
    101  N        -46.5340   45.0000   25.1700 N.am   55  PRO55      -0.2727
    102  CA       -46.6740   44.5360   23.7830 C.3    55  PRO55       0.1402
    103  C        -48.0940   44.6720   23.2280 C.2    55  PRO55       0.2269
    104  O        -49.0040   45.0550   23.9600 O.2    55  PRO55      -0.2865
    105  CB       -46.2730   43.0630   23.8780 C.3    55  PRO55       0.0296
    106  CG       -46.6580   42.6930   25.2720 C.3    55  PRO55       0.0237
    107  CD       -46.2990   43.8780   26.0950 C.3    55  PRO55       0.0939
@<TRIPOS>BOND
     1    56    57    1
     2    62    60    1
     3    57    60    1
     4    57    58    1
     5    70    71    1
     6    70    69    1
     7    68    69    1
     8    68    67    1
     9    60    61    1
    10    63    58   am
    11    63    64    1
    12    58    59    2
    13    67    64    1
    14    55    53    1
    15    54    53    1
    16    64    65    1
    17    53    52    2
    18    66    65    2
    19    48    47    2
    20    65    72   am
    21    52    51    1
    22    47    46    1
    23    85    83    1
    24    84    83    1
    25    72    73    1
    26    51    50    1
    27    50    49    1
    28    83    80    1
    29    46    49    1
    30    46    45    1
    31    98    96   ar
    32    98   100   ar
    33    73    74    1
    34    73    76    1
    35    96    95   ar
    36    79    74   am
    37    79    80    1
    38    89    88    2
    39    74    75    2
    40    78    76    1
    41   103   102    1
    42   103   104    2
    43   100    99   ar
    44    80    81    1
    45    76    77    1
    46   102   105    1
    47   102   101    1
    48   105   106    1
    49    95    94    1
    50    95    97   ar
    51    44    43    1
    52    86    81   am
    53    86    87    1
    54    81    82    2
    55    88    87    1
    56    88    90   am
    57    94    91    1
    58    42    41    2
    59    99    97   ar
    60    91    90    1
    61    91    92    1
    62    26    24    1
    63   101    92   am
    64   101   107    1
    65    41    40    1
    66   106   107    1
    67    27    25    1
    68    43    40    1
    69    92    93    2
    70    39    40    1
    71    24    25    1
    72    24    21    1
    73    23    22    2
    74    22    21    1
    75    21    20    1
    76    30    31    2
    77    30    29    1
    78     4     3    2
    79    20    14   am
    80     3     2    1
    81    32    29    1
    82    32    33    1
    83     5     2    1
    84     5     6    1
    85    29    28    1
    86    14    15    2
    87    14    13    1
    88     2     1    1
    89    12    13    1
    90     6     8   ar
    91     6     7   ar
    92    33    34    1
    93    13    16    1
    94     8    10   ar
    95     7     9   ar
    96    35    34    1
    97    35    36    2
    98    16    18    1
    99    16    17    1
   100    38    36    1
   101    36    37    1
   102    10    11   ar
   103     9    11   ar
   104    17    19    1
