@<TRIPOS>MOLECULE
tmp/5y5sB14.pdb
 194 187 0 0 0
SMALL
GASTEIGER

@<TRIPOS>ATOM
      1  N        -40.8680   26.6990   61.0000 N.3   183  LEU183     -0.1245
      2  CA       -42.2880   26.7700   60.6740 C.3   183  LEU183      0.1561
      3  C        -42.5660   27.7400   59.5250 C.2   183  LEU183      0.2260
      4  O        -43.3640   27.4370   58.6220 O.2   183  LEU183     -0.2867
      5  CB       -43.0780   27.1770   61.9230 C.3   183  LEU183      0.0270
      6  CG       -44.6040   27.1390   61.8350 C.3   183  LEU183      0.0019
      7  CD1      -45.0890   25.7560   61.3880 C.3   183  LEU183      0.0001
      8  CD2      -45.2260   27.5050   63.1810 C.3   183  LEU183      0.0001
      9  N        -41.4070   26.2070   56.2270 N.3   186  SER186     -0.1202
     10  CA       -42.4040   25.2100   55.8390 C.3   186  SER186      0.2020
     11  C        -43.6000   25.8800   55.1590 C.2   186  SER186      0.2618
     12  O        -44.0940   25.3990   54.1230 O.2   186  SER186     -0.2717
     13  CB       -42.8490   24.4060   57.0720 C.3   186  SER186      0.2103
     14  OG       -41.7720   23.6360   57.6040 O.3   186  SER186     -0.2182
     15  N        -44.0430   27.0240   55.6860 N.am  187  PHE187     -0.1975
     16  CA       -45.1460   27.7300   55.0210 C.3   187  PHE187      0.1639
     17  C        -44.7200   28.2880   53.6630 C.2   187  PHE187      0.2290
     18  O        -45.4710   28.1560   52.6870 O.2   187  PHE187     -0.2864
     19  CB       -45.7160   28.8400   55.9120 C.3   187  PHE187      0.0560
     20  CG       -46.6270   28.3360   56.9990 C.ar  187  PHE187     -0.0200
     21  CD1      -47.8360   27.7150   56.6840 C.ar  187  PHE187     -0.0042
     22  CD2      -46.2680   28.4510   58.3320 C.ar  187  PHE187     -0.0042
     23  CE1      -48.6690   27.2410   57.6780 C.ar  187  PHE187     -0.0003
     24  CE2      -47.1110   27.9750   59.3340 C.ar  187  PHE187     -0.0003
     25  CZ       -48.3100   27.3780   59.0060 C.ar  187  PHE187     -0.0000
     26  N        -44.4990   25.2040   51.3030 N.3   190  THR190     -0.1218
     27  CA       -45.8420   24.6880   51.0350 C.3   190  THR190      0.1862
     28  C        -46.6410   25.6630   50.1670 C.2   190  THR190      0.2287
     29  O        -47.3900   25.2490   49.2720 O.2   190  THR190     -0.2866
     30  CB       -46.5740   24.4020   52.3480 C.3   190  THR190      0.1770
     31  OG1      -45.8320   23.4390   53.1250 O.3   190  THR190     -0.2211
     32  CG2      -47.9860   23.8450   52.0760 C.3   190  THR190      0.0375
     33  N        -45.4210   25.1780   46.4280 N.3   193  LEU193     -0.1231
     34  CA       -46.0700   23.9580   45.9420 C.3   193  LEU193      0.1693
     35  C        -47.5500   24.1820   45.6240 C.2   193  LEU193      0.2591
     36  O        -48.0280   23.8600   44.5270 O.2   193  LEU193     -0.2718
     37  CB       -45.9230   22.8570   46.9990 C.3   193  LEU193      0.0284
     38  CG       -46.8650   21.6420   46.8690 C.3   193  LEU193      0.0019
     39  CD1      -46.5460   20.9140   45.5920 C.3   193  LEU193      0.0001
     40  CD2      -46.7180   20.7210   48.0900 C.3   193  LEU193      0.0001
     41  N        -48.2950   24.7040   46.5940 N.am  194  ALA194     -0.1980
     42  CA       -49.7190   24.9760   46.3960 C.3   194  ALA194      0.1597
     43  C        -49.9800   25.9290   45.2270 C.2   194  ALA194      0.2287
     44  O        -50.9620   25.7480   44.4790 O.2   194  ALA194     -0.2864
     45  CB       -50.3210   25.5450   47.6790 C.3   194  ALA194      0.0319
     46  N        -49.4330   24.0660   41.9570 N.3   197  MET197     -0.1230
     47  CA       -50.5720   23.1650   41.7630 C.3   197  MET197      0.1702
     48  C        -51.8080   23.9350   41.2910 C.2   197  MET197      0.2592
     49  O        -52.5280   23.4940   40.3740 O.2   197  MET197     -0.2718
     50  CB       -50.8890   22.4270   43.0700 C.3   197  MET197      0.0401
     51  CG       -49.9100   21.2800   43.4970 C.3   197  MET197      0.0596
     52  SD       -50.2320   20.8550   45.2440 S.3   197  MET197     -0.1393
     53  CE       -51.8510   20.1030   45.1960 C.3   197  MET197      0.0692
     54  N        -52.0830   25.0790   41.9190 N.am  198  HIS198     -0.1976
     55  CA       -53.2860   25.8520   41.5670 C.3   198  HIS198      0.1656
     56  C        -53.1850   26.4460   40.1650 C.2   198  HIS198      0.2291
     57  O        -54.0990   26.2750   39.3380 O.2   198  HIS198     -0.2864
     58  CB       -53.5550   26.9710   42.5750 C.3   198  HIS198      0.0771
     59  CG       -54.8080   27.7440   42.2640 C.ar  198  HIS198      0.0820
     60  ND1      -56.0280   27.1240   42.0680 N.ar  198  HIS198     -0.2267
     61  CD2      -55.0250   29.0660   42.0630 C.ar  198  HIS198      0.1154
     62  CE1      -56.9480   28.0360   41.8080 C.ar  198  HIS198      0.1986
     63  NE2      -56.3620   29.2200   41.7810 N.ar  198  HIS198     -0.2212
     64  N        -53.5880   23.6980   37.6100 N.3   201  LEU201     -0.1231
     65  CA       -54.9150   23.1180   37.4450 C.3   201  LEU201      0.1693
     66  C        -55.8390   24.0520   36.6590 C.2   201  LEU201      0.2591
     67  O        -56.5700   23.6020   35.7640 O.2   201  LEU201     -0.2718
     68  CB       -55.5210   22.7580   38.8120 C.3   201  LEU201      0.0284
     69  CG       -56.9110   22.0920   38.7490 C.3   201  LEU201      0.0019
     70  CD1      -56.8950   20.9530   37.7380 C.3   201  LEU201      0.0001
     71  CD2      -57.4250   21.5840   40.1090 C.3   201  LEU201      0.0001
     72  N        -55.8150   25.3550   36.9560 N.am  202  ILE202     -0.1980
     73  CA       -56.7040   26.2660   36.2260 C.3   202  ILE202      0.1595
     74  C        -56.3210   26.3010   34.7490 C.2   202  ILE202      0.2287
     75  O        -57.1850   26.3210   33.8690 O.2   202  ILE202     -0.2864
     76  CB       -56.6760   27.6720   36.8720 C.3   202  ILE202      0.0276
     77  CG1      -57.1340   27.5630   38.3320 C.3   202  ILE202      0.0022
     78  CG2      -57.5620   28.6750   36.0860 C.3   202  ILE202      0.0022
     79  CD1      -58.6430   27.2330   38.4750 C.3   202  ILE202      0.0001
     80  N        -61.8620   19.2410   37.9040 N.3   220  GLU220     -0.1231
     81  CA       -60.8890   19.7690   38.8590 C.3   220  GLU220      0.1699
     82  C        -60.8470   18.9170   40.1120 C.2   220  GLU220      0.2592
     83  O        -59.7710   18.5350   40.5870 O.2   220  GLU220     -0.2718
     84  CB       -61.2320   21.2050   39.2460 C.3   220  GLU220      0.0402
     85  CG       -61.2630   22.1890   38.1240 C.3   220  GLU220      0.1161
     86  CD       -61.7360   23.5580   38.6130 C.2   220  GLU220      0.3649
     87  OE1      -61.1550   24.5760   38.1970 O.co2 220  GLU220     -0.2457
     88  OE2      -62.6790   23.5970   39.4350 O.co2 220  GLU220     -0.2457
     89  N        -62.0200   18.6260   40.6660 N.am  221  ASN221     -0.1974
     90  CA       -62.0960   17.8090   41.8710 C.3   221  ASN221      0.1688
     91  C        -61.5990   16.3920   41.6110 C.2   221  ASN221      0.2292
     92  O        -60.8280   15.8440   42.4070 O.2   221  ASN221     -0.2864
     93  CB       -63.5350   17.7720   42.3820 C.3   221  ASN221      0.1181
     94  CG       -63.9680   19.0890   43.0300 C.2   221  ASN221      0.2629
     95  OD1      -65.0230   19.6180   42.7050 O.2   221  ASN221     -0.2716
     96  ND2      -63.1550   19.6110   43.9520 N.am  221  ASN221     -0.0877
     97  N        -57.4010   15.8120   41.3950 N.3   224  PHE224     -0.1241
     98  CA       -56.5670   15.6580   42.5730 C.3   224  PHE224      0.1605
     99  C        -57.0330   14.5370   43.4890 C.2   224  PHE224      0.2264
    100  O        -56.2070   13.9650   44.2110 O.2   224  PHE224     -0.2867
    101  CB       -56.4690   16.9800   43.3160 C.3   224  PHE224      0.0534
    102  CG       -55.3080   17.7870   42.8550 C.ar  224  PHE224     -0.0203
    103  CD1      -54.0200   17.2900   43.0170 C.ar  224  PHE224     -0.0042
    104  CD2      -55.4920   18.9730   42.1720 C.ar  224  PHE224     -0.0042
    105  CE1      -52.9230   18.0030   42.5610 C.ar  224  PHE224     -0.0003
    106  CE2      -54.4060   19.6850   41.7140 C.ar  224  PHE224     -0.0003
    107  CZ       -53.1280   19.2140   41.9050 C.ar  224  PHE224     -0.0000
    108  N        -54.1040   12.2830   44.8690 N.3   228  VAL228     -0.1245
    109  CA       -53.8670   12.2270   46.3110 C.3   228  VAL228      0.1561
    110  C        -55.0930   11.7800   47.1050 C.2   228  VAL228      0.2260
    111  O        -55.0260   11.7250   48.3350 O.2   228  VAL228     -0.2867
    112  CB       -53.3260   13.5730   46.8590 C.3   228  VAL228      0.0252
    113  CG1      -51.9810   13.9550   46.2170 C.3   228  VAL228      0.0019
    114  CG2      -54.3140   14.7110   46.6520 C.3   228  VAL228      0.0019
    115  N        -57.8310   13.4130   47.5360 N.3   230  TYR230     -0.1227
    116  CA       -58.5140   14.5320   48.1690 C.3   230  TYR230      0.1736
    117  C        -58.4480   15.7360   47.2390 C.2   230  TYR230      0.2596
    118  O        -57.4720   15.9270   46.5100 O.2   230  TYR230     -0.2718
    119  CB       -57.9160   14.8930   49.5420 C.3   230  TYR230      0.0548
    120  CG       -58.6460   16.0800   50.1910 C.ar  230  TYR230     -0.0200
    121  CD1      -59.9520   15.9470   50.6270 C.ar  230  TYR230     -0.0009
    122  CD2      -58.0110   17.3230   50.3630 C.ar  230  TYR230     -0.0009
    123  CE1      -60.6690   17.0370   51.1920 C.ar  230  TYR230      0.0417
    124  CE2      -58.6890   18.3970   50.9460 C.ar  230  TYR230      0.0417
    125  CZ       -60.0220   18.2520   51.3600 C.ar  230  TYR230      0.1957
    126  OH       -60.6930   19.3180   51.9260 O.3   230  TYR230     -0.2866
    127  N        -59.5080   16.5320   47.2810 N.am  231  SER231     -0.1938
    128  CA       -59.6180   17.7900   46.5640 C.3   231  SER231      0.2055
    129  C        -60.0980   18.8240   47.5670 C.2   231  SER231      0.2643
    130  O        -61.0850   18.5850   48.2610 O.2   231  SER231     -0.2714
    131  CB       -60.6020   17.6960   45.3990 C.3   231  SER231      0.2130
    132  OG       -60.7560   18.9770   44.8050 O.3   231  SER231     -0.2179
    133  N        -59.3780   19.9410   47.6940 N.am  232  ILE232     -0.1963
    134  CA       -59.8220   20.9070   48.6970 C.3   232  ILE232      0.1727
    135  C        -60.9840   21.7640   48.1900 C.2   232  ILE232      0.2617
    136  O        -61.7870   22.2490   48.9920 O.2   232  ILE232     -0.2715
    137  CB       -58.6400   21.7680   49.1590 C.3   232  ILE232      0.0290
    138  CG1      -58.9640   22.4770   50.4730 C.3   232  ILE232      0.0022
    139  CG2      -58.2140   22.7540   48.0750 C.3   232  ILE232      0.0023
    140  CD1      -57.7330   23.2360   51.0290 C.3   232  ILE232      0.0001
    141  N        -61.1070   21.9590   46.8880 N.am  233  GLY233     -0.1940
    142  CA       -62.2010   22.7650   46.3760 C.3   233  GLY233      0.2014
    143  C        -61.7210   24.1220   45.8430 C.2   233  GLY233      0.2638
    144  O        -60.6960   24.6710   46.2770 O.2   233  GLY233     -0.2714
    145  N        -62.4670   24.6520   44.8660 N.am  234  ALA234     -0.1977
    146  CA       -61.9890   25.7950   44.0920 C.3   234  ALA234      0.1597
    147  C        -62.0500   27.0820   44.8970 C.2   234  ALA234      0.2287
    148  O        -61.2360   27.9930   44.6890 O.2   234  ALA234     -0.2864
    149  CB       -62.8040   25.9410   42.8090 C.3   234  ALA234      0.0319
    150  N        -59.0490   26.5060   47.7750 N.3   237  ILE237     -0.1231
    151  CA       -57.6300   26.6140   47.4300 C.3   237  ILE237      0.1692
    152  C        -57.1610   28.0580   47.5900 C.2   237  ILE237      0.2592
    153  O        -56.0010   28.3120   47.9290 O.2   237  ILE237     -0.2718
    154  CB       -57.3330   26.0860   46.0140 C.3   237  ILE237      0.0266
    155  CG1      -55.8220   26.1260   45.7050 C.3   237  ILE237      0.0019
    156  CG2      -58.1470   26.8580   44.9560 C.3   237  ILE237      0.0020
    157  CD1      -54.9040   25.2600   46.6560 C.3   237  ILE237      0.0001
    158  N        -58.0470   29.0160   47.3360 N.am  238  HIS238     -0.1976
    159  CA       -57.7190   30.4220   47.5600 C.3   238  HIS238      0.1656
    160  C        -57.6840   30.7440   49.0640 C.2   238  HIS238      0.2291
    161  O        -56.8340   31.5170   49.5060 O.2   238  HIS238     -0.2864
    162  CB       -58.7180   31.3060   46.7790 C.3   238  HIS238      0.0771
    163  CG       -58.6660   31.1040   45.2790 C.ar  238  HIS238      0.0820
    164  ND1      -59.5000   30.2310   44.6130 N.ar  238  HIS238     -0.2267
    165  CD2      -57.8420   31.6220   44.3290 C.ar  238  HIS238      0.1154
    166  CE1      -59.2070   30.2280   43.3210 C.ar  238  HIS238      0.1986
    167  NE2      -58.2070   31.0660   43.1180 N.ar  238  HIS238     -0.2212
    168  N        -56.7130   28.5170   51.2890 N.3   240  LEU240     -0.1245
    169  CA       -55.4680   27.8680   51.6590 C.3   240  LEU240      0.1561
    170  C        -54.2660   28.7000   51.2430 C.2   240  LEU240      0.2260
    171  O        -53.3500   28.9190   52.0370 O.2   240  LEU240     -0.2867
    172  CB       -55.4070   26.4770   51.0230 C.3   240  LEU240      0.0270
    173  CG       -54.0590   25.7900   51.2680 C.3   240  LEU240      0.0019
    174  CD1      -53.8730   25.5520   52.7700 C.3   240  LEU240      0.0001
    175  CD2      -54.0040   24.4690   50.4870 C.3   240  LEU240      0.0001
    176  N        -53.9150   31.5530   53.5140 N.3   243  PHE243     -0.1227
    177  CA       -53.4760   31.1110   54.8360 C.3   243  PHE243      0.1736
    178  C        -51.9790   30.7980   54.8560 C.2   243  PHE243      0.2595
    179  O        -51.2650   31.1880   55.7870 O.2   243  PHE243     -0.2718
    180  CB       -54.2730   29.8760   55.2690 C.3   243  PHE243      0.0547
    181  CG       -53.7320   29.2270   56.5110 C.ar  243  PHE243     -0.0202
    182  CD1      -53.8810   29.8490   57.7440 C.ar  243  PHE243     -0.0042
    183  CD2      -53.0590   28.0160   56.4460 C.ar  243  PHE243     -0.0042
    184  CE1      -53.3830   29.2790   58.8820 C.ar  243  PHE243     -0.0003
    185  CE2      -52.5740   27.4390   57.5860 C.ar  243  PHE243     -0.0003
    186  CZ       -52.7400   28.0800   58.8060 C.ar  243  PHE243     -0.0000
    187  N        -51.4870   30.0830   53.8400 N.am  244  LEU244     -0.1980
    188  CA       -50.0670   29.7400   53.7960 C.3   244  LEU244      0.1596
    189  C        -49.1870   30.9760   53.6270 C.2   244  LEU244      0.2287
    190  O        -48.1490   31.0900   54.2890 O.2   244  LEU244     -0.2864
    191  CB       -49.7900   28.7340   52.6740 C.3   244  LEU244      0.0297
    192  CG       -50.5560   27.4100   52.7200 C.3   244  LEU244      0.0022
    193  CD1      -50.4480   26.6710   51.3580 C.3   244  LEU244      0.0001
    194  CD2      -50.1120   26.5180   53.9080 C.3   244  LEU244      0.0001
@<TRIPOS>BOND
     1    75    74    2
     2    74    73    1
     3    67    66    2
     4    78    76    1
     5    73    76    1
     6    73    72    1
     7    66    72   am
     8    66    65    1
     9    76    77    1
    10    65    64    1
    11    65    68    1
    12    70    69    1
    13    80    81    1
    14    85    86    1
    15    85    84    1
    16    87    86   ar
    17    77    79    1
    18    86    88   ar
    19    69    68    1
    20    69    71    1
    21    81    84    1
    22    81    82    1
    23    57    56    2
    24    82    83    2
    25    82    89   am
    26    56    55    1
    27    49    48    2
    28    89    90    1
    29    48    47    1
    30    48    54   am
    31    97    98    1
    32    55    54    1
    33    55    58    1
    34    91    90    1
    35    91    92    2
    36   106   107   ar
    37   106   104   ar
    38    47    46    1
    39    47    50    1
    40    63    62   ar
    41    63    61   ar
    42    62    60   ar
    43    90    93    1
    44   107   105   ar
    45    61    59   ar
    46    60    59   ar
    47   104   102   ar
    48    59    58    1
    49    93    94    1
    50   105   103   ar
    51    98   101    1
    52    98    99    1
    53    95    94    2
    54   149   146    1
    55   102   103   ar
    56   102   101    1
    57    94    96   am
    58    50    51    1
    59   167   166   ar
    60   167   165   ar
    61   166   164   ar
    62    99   100    2
    63    51    52    1
    64   146   145    1
    65   146   147    1
    66   165   163   ar
    67    44    43    2
    68    36    35    2
    69   164   163   ar
    70   148   147    2
    71   132   131    1
    72   145   143   am
    73   108   109    1
    74   156   154    1
    75    53    52    1
    76    43    42    1
    77   163   162    1
    78   131   128    1
    79    39    38    1
    80    35    34    1
    81    35    41   am
    82   155   154    1
    83   155   157    1
    84   143   144    2
    85   143   142    1
    86    34    33    1
    87    34    37    1
    88   154   151    1
    89   113   112    1
    90   109   112    1
    91   109   110    1
    92   142   141    1
    93    42    41    1
    94    42    45    1
    95   118   117    2
    96   128   127    1
    97   128   129    1
    98   114   112    1
    99   162   159    1
   100    38    37    1
   101    38    40    1
   102   141   135   am
   103   110   111    2
   104   117   127   am
   105   117   116    1
   106   158   159    1
   107   158   152   am
   108   151   152    1
   109   151   150    1
   110   115   116    1
   111   159   160    1
   112   129   133   am
   113   129   130    2
   114   152   153    2
   115   133   134    1
   116   139   137    1
   117   116   119    1
   118   135   134    1
   119   135   136    2
   120   134   137    1
   121   160   161    2
   122   137   138    1
   123    29    28    2
   124   119   120    1
   125    28    27    1
   126   120   122   ar
   127   120   121   ar
   128   122   124   ar
   129   138   140    1
   130   175   173    1
   131   121   123   ar
   132   124   125   ar
   133   172   173    1
   134   172   169    1
   135    27    26    1
   136    27    30    1
   137   123   125   ar
   138   170   169    1
   139   170   171    2
   140   173   174    1
   141   168   169    1
   142   193   192    1
   143   125   126    1
   144    32    30    1
   145    30    31    1
   146   191   192    1
   147   191   188    1
   148    18    17    2
   149   192   194    1
   150   176   177    1
   151   189   188    1
   152   189   190    2
   153    17    16    1
   154   188   187    1
   155   187   178   am
   156    12    11    2
   157   177   178    1
   158   177   180    1
   159   178   179    2
   160    16    15    1
   161    16    19    1
   162    11    15   am
   163    11    10    1
   164   180   181    1
   165    10     9    1
   166    10    13    1
   167    19    20    1
   168   183   181   ar
   169   183   185   ar
   170   181   182   ar
   171    21    20   ar
   172    21    23   ar
   173    20    22   ar
   174    13    14    1
   175   185   186   ar
   176    23    25   ar
   177   182   184   ar
   178    22    24   ar
   179     4     3    2
   180   186   184   ar
   181    25    24   ar
   182     3     2    1
   183     2     1    1
   184     2     5    1
   185     7     6    1
   186     6     5    1
   187     6     8    1
