@<TRIPOS>MOLECULE
tmp/5y5sD04.pdb
 133 131 0 0 0
SMALL
GASTEIGER

@<TRIPOS>ATOM
      1  N        -30.1700   33.7460   31.3490 N.3    15  PHE15      -0.1227
      2  CA       -31.4430   33.7800   32.0610 C.3    15  PHE15       0.1736
      3  C        -32.1870   35.0900   31.8120 C.2    15  PHE15       0.2595
      4  O        -33.4170   35.0880   31.6550 O.2    15  PHE15      -0.2718
      5  CB       -31.2530   33.5810   33.5650 C.3    15  PHE15       0.0547
      6  CG       -32.5410   33.7240   34.3340 C.ar   15  PHE15      -0.0202
      7  CD1      -33.3700   32.6340   34.5230 C.ar   15  PHE15      -0.0042
      8  CD2      -32.9500   34.9660   34.8110 C.ar   15  PHE15      -0.0042
      9  CE1      -34.5750   32.7730   35.2000 C.ar   15  PHE15      -0.0003
     10  CE2      -34.1450   35.1070   35.4850 C.ar   15  PHE15      -0.0003
     11  CZ       -34.9580   33.9980   35.6840 C.ar   15  PHE15      -0.0000
     12  N        -31.4710   36.2230   31.8220 N.am   16  TRP16      -0.1976
     13  CA       -32.1350   37.5100   31.6130 C.3    16  TRP16       0.1640
     14  C        -32.8040   37.5630   30.2520 C.2    16  TRP16       0.2290
     15  O        -33.9110   38.1020   30.1170 O.2    16  TRP16      -0.2864
     16  CB       -31.1430   38.6680   31.7500 C.3    16  TRP16       0.0576
     17  CG       -30.6410   38.8690   33.1460 C.ar   16  TRP16       0.0006
     18  CD1      -29.3380   38.8860   33.5550 C.ar   16  TRP16       0.0946
     19  CD2      -31.4340   39.0620   34.3230 C.ar   16  TRP16       0.0152
     20  NE1      -29.2730   39.0860   34.9160 N.ar   16  TRP16      -0.2442
     21  CE2      -30.5460   39.2030   35.4080 C.ar   16  TRP16       0.0810
     22  CE3      -32.8070   39.1530   34.5600 C.ar   16  TRP16       0.0012
     23  CZ2      -30.9910   39.4040   36.7150 C.ar   16  TRP16       0.0191
     24  CZ3      -33.2440   39.3650   35.8540 C.ar   16  TRP16       0.0001
     25  CH2      -32.3400   39.4930   36.9130 C.ar   16  TRP16       0.0015
     26  N        -35.9170   35.5920   30.5790 N.3    19  PHE19      -0.1227
     27  CA       -36.9030   36.1870   31.4770 C.3    19  PHE19       0.1736
     28  C        -37.6160   37.3630   30.8240 C.2    19  PHE19       0.2595
     29  O        -38.8370   37.5090   30.9520 O.2    19  PHE19      -0.2718
     30  CB       -36.2320   36.6230   32.7730 C.3    19  PHE19       0.0547
     31  CG       -37.1840   37.2080   33.7790 C.ar   19  PHE19      -0.0202
     32  CD1      -38.0770   36.3930   34.4710 C.ar   19  PHE19      -0.0042
     33  CD2      -37.1850   38.5700   34.0360 C.ar   19  PHE19      -0.0042
     34  CE1      -38.9530   36.9310   35.4090 C.ar   19  PHE19      -0.0003
     35  CE2      -38.0460   39.1140   34.9740 C.ar   19  PHE19      -0.0003
     36  CZ       -38.9230   38.2980   35.6660 C.ar   19  PHE19      -0.0000
     37  N        -36.8760   38.2180   30.1220 N.am   20  PHE20      -0.1976
     38  CA       -37.5450   39.3340   29.4790 C.3    20  PHE20       0.1639
     39  C        -38.4380   38.8490   28.3480 C.2    20  PHE20       0.2290
     40  O        -39.5280   39.3960   28.1550 O.2    20  PHE20      -0.2864
     41  CB       -36.5150   40.3720   29.0390 C.3    20  PHE20       0.0560
     42  CG       -35.9580   41.1520   30.1980 C.ar   20  PHE20      -0.0200
     43  CD1      -36.7230   42.1250   30.8220 C.ar   20  PHE20      -0.0042
     44  CD2      -34.7080   40.8680   30.7110 C.ar   20  PHE20      -0.0042
     45  CE1      -36.2370   42.8160   31.9150 C.ar   20  PHE20      -0.0003
     46  CE2      -34.2190   41.5560   31.7990 C.ar   20  PHE20      -0.0003
     47  CZ       -34.9810   42.5280   32.4020 C.ar   20  PHE20      -0.0000
     48  N        -40.0980   36.0440   28.5420 N.3    22  LEU22      -0.1231
     49  CA       -41.2480   35.5300   29.2770 C.3    22  LEU22       0.1693
     50  C        -42.2090   36.6550   29.6720 C.2    22  LEU22       0.2591
     51  O        -43.4300   36.5180   29.5320 O.2    22  LEU22      -0.2718
     52  CB       -40.7590   34.7700   30.5150 C.3    22  LEU22       0.0284
     53  CG       -41.8450   34.2580   31.4690 C.3    22  LEU22       0.0019
     54  CD1      -42.7670   33.2400   30.7920 C.3    22  LEU22       0.0001
     55  CD2      -41.2200   33.6930   32.7370 C.3    22  LEU22       0.0001
     56  N        -41.6740   37.7740   30.1650 N.am   23  ILE23      -0.1980
     57  CA       -42.5190   38.8890   30.5910 C.3    23  ILE23       0.1595
     58  C        -43.3480   39.4000   29.4260 C.2    23  ILE23       0.2287
     59  O        -44.5250   39.7420   29.5870 O.2    23  ILE23      -0.2864
     60  CB       -41.6660   40.0200   31.2000 C.3    23  ILE23       0.0276
     61  CG1      -40.9520   39.5500   32.4700 C.3    23  ILE23       0.0022
     62  CG2      -42.5190   41.2550   31.4980 C.3    23  ILE23       0.0022
     63  CD1      -41.8710   38.8710   33.4640 C.3    23  ILE23       0.0001
     64  N        -46.1610   37.0790   28.8210 N.3    26  LEU26      -0.1231
     65  CA       -47.2040   37.2090   29.8380 C.3    26  LEU26       0.1693
     66  C        -48.0370   38.4750   29.6400 C.2    26  LEU26       0.2591
     67  O        -49.2670   38.4380   29.7380 O.2    26  LEU26      -0.2718
     68  CB       -46.5640   37.1840   31.2330 C.3    26  LEU26       0.0284
     69  CG       -45.9940   35.8450   31.7100 C.3    26  LEU26       0.0019
     70  CD1      -45.0910   35.9890   32.9450 C.3    26  LEU26       0.0001
     71  CD2      -47.1240   34.8710   31.9910 C.3    26  LEU26       0.0001
     72  N        -47.3900   39.6040   29.3430 N.am   27  ARG27      -0.1980
     73  CA       -48.1350   40.8510   29.1530 C.3    27  ARG27       0.1597
     74  C        -49.0850   40.7770   27.9630 C.2    27  ARG27       0.2287
     75  O        -50.1390   41.4330   27.9660 O.2    27  ARG27      -0.2864
     76  CB       -47.1570   42.0170   28.9880 C.3    27  ARG27       0.0334
     77  CG       -46.4380   42.4320   30.2820 C.3    27  ARG27       0.0492
     78  CD       -47.4440   42.7900   31.3620 C.3    27  ARG27       0.2205
     79  NE       -48.2210   44.0010   31.0440 N.pl3  27  ARG27      -0.0865
     80  CZ       -49.4030   44.2830   31.5810 C.cat  27  ARG27       0.5346
     81  NH1      -49.9510   43.4330   32.4400 N.pl3  27  ARG27       0.1354
     82  NH2      -50.0340   45.4120   31.2730 N.pl3  27  ARG27       0.1354
     83  N        -53.6660   40.9550   28.0780 N.3    31  LYS31      -0.1245
     84  CA       -54.4450   41.8860   27.2830 C.3    31  LYS31       0.1561
     85  C        -55.5530   41.1970   26.4950 C.2    31  LYS31       0.2260
     86  O        -56.0740   41.7780   25.5380 O.2    31  LYS31      -0.2867
     87  CB       -53.5120   42.6680   26.3550 C.3    31  LYS31       0.0271
     88  CG       -52.4630   43.4960   27.1050 C.3    31  LYS31       0.0035
     89  CD       -51.6370   44.3810   26.1620 C.3    31  LYS31       0.0206
     90  CE       -50.6360   45.2380   26.9480 C.3    31  LYS31       0.1093
     91  NZ       -49.9310   46.2340   26.1000 N.3    31  LYS31      -0.1314
     92  N        -59.0090   45.1750   26.3030 N.3    35  TYR35      -0.1241
     93  CA       -58.2280   45.9380   25.3390 C.3    35  TYR35       0.1605
     94  C        -58.8670   45.8320   23.9550 C.2    35  TYR35       0.2264
     95  O        -59.5830   44.8680   23.6830 O.2    35  TYR35      -0.2867
     96  CB       -56.7750   45.4450   25.2680 C.3    35  TYR35       0.0534
     97  CG       -55.8990   45.8330   26.4560 C.ar   35  TYR35      -0.0201
     98  CD1      -56.0420   45.2130   27.6990 C.ar   35  TYR35      -0.0009
     99  CD2      -54.9240   46.8170   26.3280 C.ar   35  TYR35      -0.0009
    100  CE1      -55.2330   45.5820   28.7860 C.ar   35  TYR35       0.0417
    101  CE2      -54.1100   47.1760   27.4000 C.ar   35  TYR35       0.0417
    102  CZ       -54.2670   46.5540   28.6200 C.ar   35  TYR35       0.1957
    103  OH       -53.4520   46.9270   29.6800 O.3    35  TYR35      -0.2866
    104  N        -57.9290   49.9370   24.8660 N.3    37  LEU37      -0.1245
    105  CA       -58.4280   50.7390   25.9720 C.3    37  LEU37       0.1561
    106  C        -59.4240   51.7920   25.5000 C.2    37  LEU37       0.2260
    107  O        -59.3520   52.3090   24.3790 O.2    37  LEU37      -0.2867
    108  CB       -57.2710   51.4120   26.7100 C.3    37  LEU37       0.0270
    109  CG       -56.1990   50.4490   27.2230 C.3    37  LEU37       0.0019
    110  CD1      -55.0990   51.1980   27.9580 C.3    37  LEU37       0.0001
    111  CD2      -56.8160   49.3920   28.1230 C.3    37  LEU37       0.0001
    112  N        -55.6340   52.2280   21.3880 N.3    51  VAL51      -0.1245
    113  CA       -54.6750   52.2700   22.4880 C.3    51  VAL51       0.1561
    114  C        -54.4930   50.8470   23.0130 C.2    51  VAL51       0.2260
    115  O        -55.4310   50.2610   23.5590 O.2    51  VAL51      -0.2867
    116  CB       -55.1530   53.2180   23.5950 C.3    51  VAL51       0.0252
    117  CG1      -54.2110   53.1920   24.7750 C.3    51  VAL51       0.0019
    118  CG2      -55.3220   54.6460   23.0470 C.3    51  VAL51       0.0019
    119  N        -50.9070   49.8560   24.0420 N.3    53  GLY53      -0.1210
    120  CA       -49.6660   49.8070   24.7980 C.3    53  GLY53       0.1956
    121  C        -48.6540   48.8420   24.1930 C.2    53  GLY53       0.2611
    122  O        -48.6630   48.5630   22.9890 O.2    53  GLY53      -0.2717
    123  N        -47.7660   48.3150   25.0450 N.am   54  PHE54      -0.1976
    124  CA       -46.7550   47.3750   24.5770 C.3    54  PHE54       0.1639
    125  C        -46.5460   46.2630   25.6010 C.2    54  PHE54       0.2290
    126  O        -46.3310   46.5480   26.7940 O.2    54  PHE54      -0.2864
    127  CB       -45.4080   48.0400   24.2730 C.3    54  PHE54       0.0560
    128  CG       -44.3280   47.0490   23.9160 C.ar   54  PHE54      -0.0200
    129  CD1      -44.1760   46.6130   22.6100 C.ar   54  PHE54      -0.0042
    130  CD2      -43.4900   46.5240   24.8960 C.ar   54  PHE54      -0.0042
    131  CE1      -43.1990   45.6850   22.2830 C.ar   54  PHE54      -0.0003
    132  CE2      -42.5150   45.5950   24.5760 C.ar   54  PHE54      -0.0003
    133  CZ       -42.3690   45.1770   23.2670 C.ar   54  PHE54      -0.0000
@<TRIPOS>BOND
     1   112   113    1
     2   131   129   ar
     3   131   133   ar
     4   113   114    1
     5   113   116    1
     6   129   128   ar
     7   122   121    2
     8   114   115    2
     9   118   116    1
    10   133   132   ar
    11   116   117    1
    12    95    94    2
    13   128   127    1
    14   128   130   ar
    15    94    93    1
    16   119   120    1
    17   121   120    1
    18   121   123   am
    19   127   124    1
    20   107   106    2
    21   132   130   ar
    22   124   123    1
    23   124   125    1
    24   104   105    1
    25    96    93    1
    26    96    97    1
    27    93    92    1
    28   106   105    1
    29    86    85    2
    30   125   126    2
    31   105   108    1
    32    91    90    1
    33    89    90    1
    34    89    88    1
    35    99    97   ar
    36    99   101   ar
    37    87    88    1
    38    87    84    1
    39    97    98   ar
    40    85    84    1
    41   108   109    1
    42   109   110    1
    43   109   111    1
    44    84    83    1
    45   101   102   ar
    46    98   100   ar
    47    74    75    2
    48    74    73    1
    49    40    39    2
    50    39    38    1
    51    48    49    1
    52   102   100   ar
    53   102   103    1
    54    64    65    1
    55    76    73    1
    56    76    77    1
    57    41    38    1
    58    41    42    1
    59    73    72    1
    60    49    50    1
    61    49    52    1
    62    72    66   am
    63    58    59    2
    64    58    57    1
    65    38    37    1
    66    51    50    2
    67    66    67    2
    68    66    65    1
    69    50    56   am
    70    65    68    1
    71    15    14    2
    72    37    28   am
    73    56    57    1
    74    42    44   ar
    75    42    43   ar
    76    14    13    1
    77    77    78    1
    78    52    53    1
    79    26    27    1
    80    57    60    1
    81    44    46   ar
    82    54    53    1
    83    43    45   ar
    84    28    29    2
    85    28    27    1
    86    79    78    1
    87    79    80    2
    88    60    62    1
    89    60    61    1
    90    68    69    1
    91    82    80    1
    92     1     2    1
    93    53    55    1
    94    27    30    1
    95    80    81    1
    96    13    16    1
    97    13    12    1
    98     4     3    2
    99    69    71    1
   100    69    70    1
   101    16    17    1
   102    46    47   ar
   103     3    12   am
   104     3     2    1
   105    45    47   ar
   106     2     5    1
   107    61    63    1
   108    30    31    1
   109    17    18   ar
   110    17    19   ar
   111    18    20   ar
   112     5     6    1
   113    31    33   ar
   114    31    32   ar
   115    33    35   ar
   116    19    22   ar
   117    19    21   ar
   118     6     7   ar
   119     6     8   ar
   120    32    34   ar
   121     7     9   ar
   122    22    24   ar
   123     8    10   ar
   124    20    21   ar
   125    35    36   ar
   126     9    11   ar
   127    21    23   ar
   128    34    36   ar
   129    10    11   ar
   130    24    25   ar
   131    23    25   ar
