@<TRIPOS>MOLECULE
tmp/5y5sB06.pdb
 104 103 0 0 0
SMALL
GASTEIGER

@<TRIPOS>ATOM
      1  N        -56.2640   56.4130   29.8600 N.3     1  ALA1       -0.1245
      2  CA       -57.1060   55.4030   29.2270 C.3     1  ALA1        0.1562
      3  C        -57.6930   54.4520   30.2670 C.2     1  ALA1        0.2260
      4  O        -57.1890   54.3480   31.3840 O.2     1  ALA1       -0.2867
      5  CB       -56.3150   54.6300   28.1800 C.3     1  ALA1        0.0290
      6  N        -55.1360   59.2440   37.8370 N.3    26  VAL26      -0.1231
      7  CA       -54.1040   59.7620   36.9380 C.3    26  VAL26       0.1692
      8  C        -53.7010   58.6110   36.0210 C.2    26  VAL26       0.2593
      9  O        -52.9810   57.6940   36.4350 O.2    26  VAL26      -0.2718
     10  CB       -52.9020   60.3370   37.6920 C.3    26  VAL26       0.0266
     11  CG1      -51.6700   60.4180   36.7800 C.3    26  VAL26       0.0020
     12  CG2      -53.2620   61.7210   38.2380 C.3    26  VAL26       0.0020
     13  N        -54.1680   58.6510   34.7760 N.am   27  GLY27      -0.1943
     14  CA       -54.1480   57.4770   33.9390 C.3    27  GLY27       0.1998
     15  C        -54.8480   56.3070   34.6180 C.2    27  GLY27       0.2481
     16  O        -56.0120   56.3900   35.0130 O.2    27  GLY27      -0.2729
     17  N        -54.1300   55.1970   34.7910 N.am   28  PRO28      -0.2715
     18  CA       -54.7240   54.0270   35.4540 C.3    28  PRO28       0.1536
     19  C        -54.8160   54.1590   36.9700 C.2    28  PRO28       0.2599
     20  O        -55.7040   53.5700   37.5950 O.2    28  PRO28      -0.2715
     21  CB       -53.7710   52.8900   35.0670 C.3    28  PRO28       0.0310
     22  CG       -52.4110   53.5940   34.9440 C.3    28  PRO28       0.0237
     23  CD       -52.7360   54.9640   34.3640 C.3    28  PRO28       0.0939
     24  N        -53.9010   54.9150   37.5710 N.am   29  PHE29      -0.1960
     25  CA       -53.7910   54.9590   39.0230 C.3    29  PHE29       0.1771
     26  C        -54.9370   55.7440   39.6400 C.2    29  PHE29       0.2620
     27  O        -55.2260   56.8550   39.2020 O.2    29  PHE29      -0.2715
     28  CB       -52.4740   55.6210   39.4270 C.3    29  PHE29       0.0574
     29  CG       -51.2540   54.8490   39.0420 C.ar   29  PHE29      -0.0200
     30  CD1      -50.7600   53.8710   39.8750 C.ar   29  PHE29      -0.0042
     31  CD2      -50.5860   55.1270   37.8600 C.ar   29  PHE29      -0.0042
     32  CE1      -49.6050   53.1630   39.5360 C.ar   29  PHE29      -0.0003
     33  CE2      -49.4440   54.4240   37.5060 C.ar   29  PHE29      -0.0003
     34  CZ       -48.9510   53.4430   38.3460 C.ar   29  PHE29      -0.0000
     35  N        -55.5640   55.1910   40.6810 N.am   30  TYR30      -0.1960
     36  CA       -56.3840   56.0100   41.5710 C.3    30  TYR30       0.1771
     37  C        -55.4800   56.7940   42.5120 C.2    30  TYR30       0.2619
     38  O        -54.4950   56.2610   43.0250 O.2    30  TYR30      -0.2715
     39  CB       -57.3530   55.1600   42.4020 C.3    30  TYR30       0.0574
     40  CG       -58.0960   56.0190   43.4030 C.ar   30  TYR30      -0.0198
     41  CD1      -58.9960   56.9970   42.9670 C.ar   30  TYR30      -0.0009
     42  CD2      -57.8560   55.9060   44.7690 C.ar   30  TYR30      -0.0009
     43  CE1      -59.6470   57.8300   43.8630 C.ar   30  TYR30       0.0417
     44  CE2      -58.5160   56.7390   45.6750 C.ar   30  TYR30       0.0417
     45  CZ       -59.4140   57.6820   45.2090 C.ar   30  TYR30       0.1957
     46  OH       -60.0660   58.4930   46.0960 O.3    30  TYR30      -0.2866
     47  N        -55.8220   58.0620   42.7690 N.am   31  VAL31      -0.1977
     48  CA       -54.9290   58.8380   43.6270 C.3    31  VAL31       0.1596
     49  C        -55.4990   58.9320   45.0400 C.2    31  VAL31       0.2287
     50  O        -55.1490   58.1290   45.9130 O.2    31  VAL31      -0.2864
     51  CB       -54.6470   60.2320   43.0300 C.3    31  VAL31       0.0276
     52  CG1      -53.6740   61.0120   43.9100 C.3    31  VAL31       0.0022
     53  CG2      -54.0590   60.0900   41.6390 C.3    31  VAL31       0.0022
     54  N        -52.8480   58.4930   47.9930 N.3    35  GLY35      -0.1225
     55  CA       -51.9970   58.5590   46.8190 C.3    35  GLY35       0.1811
     56  C        -51.0710   59.7660   46.8610 C.2    35  GLY35       0.2280
     57  O        -49.8640   59.6520   46.6180 O.2    35  GLY35      -0.2866
     58  N        -48.7470   59.1860   49.9340 N.3    38  GLY38      -0.1210
     59  CA       -47.8030   58.1290   49.6110 C.3    38  GLY38       0.1956
     60  C        -46.8030   58.5540   48.5550 C.2    38  GLY38       0.2611
     61  O        -45.6260   58.2020   48.6300 O.2    38  GLY38      -0.2717
     62  N        -47.2550   59.3430   47.5740 N.am   39  PHE39      -0.1976
     63  CA       -46.3450   59.8310   46.5380 C.3    39  PHE39       0.1639
     64  C        -45.2350   60.6860   47.1290 C.2    39  PHE39       0.2290
     65  O        -44.0700   60.5720   46.7260 O.2    39  PHE39      -0.2864
     66  CB       -47.1070   60.6310   45.4860 C.3    39  PHE39       0.0560
     67  CG       -46.2210   61.3560   44.5270 C.ar   39  PHE39      -0.0200
     68  CD1      -45.7960   62.6580   44.7980 C.ar   39  PHE39      -0.0042
     69  CD2      -45.8160   60.7560   43.3530 C.ar   39  PHE39      -0.0042
     70  CE1      -44.9780   63.3330   43.9220 C.ar   39  PHE39      -0.0003
     71  CE2      -44.9910   61.4370   42.4640 C.ar   39  PHE39      -0.0003
     72  CZ       -44.5740   62.7200   42.7520 C.ar   39  PHE39      -0.0000
     73  N        -42.7920   58.4810   48.9620 N.3    42  THR42      -0.1218
     74  CA       -42.0960   57.5910   48.0400 C.3    42  THR42       0.1862
     75  C        -41.0060   58.3400   47.2950 C.2    42  THR42       0.2287
     76  O        -39.8460   57.9050   47.2640 O.2    42  THR42      -0.2866
     77  CB       -43.0980   57.0020   47.0420 C.3    42  THR42       0.1770
     78  OG1      -44.0210   56.1530   47.7310 O.3    42  THR42      -0.2211
     79  CG2      -42.3810   56.2170   45.9360 C.3    42  THR42       0.0375
     80  N        -50.0120   53.2420   51.0520 N.3   108  TRP108     -0.1241
     81  CA       -50.3970   52.3310   49.9770 C.3   108  TRP108      0.1605
     82  C        -51.5560   51.4360   50.4180 C.2   108  TRP108      0.2264
     83  O        -52.5290   51.2460   49.6760 O.2   108  TRP108     -0.2867
     84  CB       -49.1740   51.5140   49.5400 C.3   108  TRP108      0.0550
     85  CG       -49.3370   50.6940   48.2710 C.ar  108  TRP108      0.0003
     86  CD1      -49.8460   49.4320   48.1690 C.ar  108  TRP108      0.0946
     87  CD2      -48.9290   51.0670   46.9490 C.ar  108  TRP108      0.0152
     88  NE1      -49.8130   49.0080   46.8570 N.ar  108  TRP108     -0.2442
     89  CE2      -49.2420   49.9850   46.0910 C.ar  108  TRP108      0.0810
     90  CE3      -48.3320   52.2090   46.4060 C.ar  108  TRP108      0.0012
     91  CZ2      -48.9810   50.0150   44.7230 C.ar  108  TRP108      0.0191
     92  CZ3      -48.0780   52.2420   45.0450 C.ar  108  TRP108      0.0001
     93  CH2      -48.4080   51.1550   44.2170 C.ar  108  TRP108      0.0015
     94  N        -54.8260   53.5220   50.6900 N.3   111  ARG111     -0.1245
     95  CA       -55.3230   53.7160   49.3270 C.3   111  ARG111      0.1563
     96  C        -56.0490   52.4590   48.8270 C.2   111  ARG111      0.2260
     97  O        -57.1050   52.5450   48.1890 O.2   111  ARG111     -0.2867
     98  CB       -54.1680   54.0870   48.3850 C.3   111  ARG111      0.0307
     99  CG       -54.6340   54.6810   47.0220 C.3   111  ARG111      0.0489
    100  CD       -53.5020   55.3070   46.2060 C.3   111  ARG111      0.2205
    101  NE       -52.4200   54.3460   46.0280 N.pl3 111  ARG111     -0.0865
    102  CZ       -52.2240   53.6610   44.9070 C.cat 111  ARG111      0.5346
    103  NH1      -53.0180   53.8670   43.8600 N.pl3 111  ARG111      0.1354
    104  NH2      -51.2690   52.7390   44.8480 N.pl3 111  ARG111      0.1354
@<TRIPOS>BOND
     1     5     2    1
     2     2     1    1
     3     2     3    1
     4     3     4    2
     5    14    15    1
     6    14    13    1
     7    23    17    1
     8    23    22    1
     9    15    17   am
    10    15    16    2
    11    13     8   am
    12    17    18    1
    13    22    21    1
    14    21    18    1
    15    18    19    1
    16     8     9    2
    17     8     7    1
    18    11    10    1
    19     7    10    1
    20     7     6    1
    21    19    24   am
    22    19    20    2
    23    33    31   ar
    24    33    34   ar
    25    24    25    1
    26    10    12    1
    27    31    29   ar
    28    34    32   ar
    29    25    28    1
    30    25    26    1
    31    29    28    1
    32    29    30   ar
    33    27    26    2
    34    32    30   ar
    35    26    35   am
    36    35    36    1
    37    36    39    1
    38    36    37    1
    39    53    51    1
    40    39    40    1
    41    71    72   ar
    42    71    69   ar
    43    37    47   am
    44    37    38    2
    45    72    70   ar
    46    47    48    1
    47    41    40   ar
    48    41    43   ar
    49    51    48    1
    50    51    52    1
    51    69    67   ar
    52    40    42   ar
    53    48    49    1
    54   103   102    1
    55    43    45   ar
    56    70    68   ar
    57    93    91   ar
    58    93    92   ar
    59    67    68   ar
    60    67    66    1
    61    91    89   ar
    62    42    44   ar
    63   104   102    1
    64   102   101    2
    65    49    50    2
    66    92    90   ar
    67    45    44   ar
    68    45    46    1
    69    66    63    1
    70    79    77    1
    71   101   100    1
    72    89    88   ar
    73    89    87   ar
    74   100    99    1
    75    90    87   ar
    76    63    64    1
    77    63    62    1
    78    57    56    2
    79    65    64    2
    80    55    56    1
    81    55    54    1
    82    88    86   ar
    83    87    85   ar
    84    99    98    1
    85    77    78    1
    86    77    74    1
    87    76    75    2
    88    75    74    1
    89    62    60   am
    90    74    73    1
    91    86    85   ar
    92    97    96    2
    93    85    84    1
    94    98    95    1
    95    60    61    2
    96    60    59    1
    97    96    95    1
    98    95    94    1
    99    84    81    1
   100    59    58    1
   101    83    82    2
   102    81    82    1
   103    81    80    1
