@<TRIPOS>MOLECULE
tmp/5y5sC07.pdb
 119 116 0 0 0
SMALL
GASTEIGER

@<TRIPOS>ATOM
      1  N        -32.0480   34.8480   42.5710 N.3   203  LEU203     -0.1245
      2  CA       -33.2410   34.6900   41.7450 C.3   203  LEU203      0.1561
      3  C        -34.2350   33.7280   42.3900 C.2   203  LEU203      0.2260
      4  O        -35.4390   34.0070   42.4490 O.2   203  LEU203     -0.2867
      5  CB       -32.8350   34.2140   40.3440 C.3   203  LEU203      0.0270
      6  CG       -32.2310   35.3210   39.4650 C.3   203  LEU203      0.0019
      7  CD1      -31.7630   34.7380   38.1410 C.3   203  LEU203      0.0001
      8  CD2      -33.2700   36.4410   39.1880 C.3   203  LEU203      0.0001
      9  N        -36.0150   35.5870   45.0280 N.3   206  ALA206     -0.1231
     10  CA       -36.9920   36.4810   44.4020 C.3   206  ALA206      0.1694
     11  C        -38.2570   35.7230   44.0060 C.2   206  ALA206      0.2592
     12  O        -39.3830   36.2070   44.2070 O.2   206  ALA206     -0.2718
     13  CB       -36.3800   37.1570   43.1690 C.3   206  ALA206      0.0304
     14  N        -38.0970   34.5190   43.4580 N.am  207  PHE207     -0.1976
     15  CA       -39.2730   33.7690   43.0280 C.3   207  PHE207      0.1639
     16  C        -39.9780   33.0720   44.1900 C.2   207  PHE207      0.2290
     17  O        -41.2100   32.9630   44.1770 O.2   207  PHE207     -0.2864
     18  CB       -38.8870   32.7750   41.9300 C.3   207  PHE207      0.0560
     19  CG       -38.4990   33.4380   40.6460 C.ar  207  PHE207     -0.0200
     20  CD1      -39.4000   34.2510   39.9780 C.ar  207  PHE207     -0.0042
     21  CD2      -37.2310   33.2650   40.1100 C.ar  207  PHE207     -0.0042
     22  CE1      -39.0530   34.8810   38.7980 C.ar  207  PHE207     -0.0003
     23  CE2      -36.8710   33.8970   38.9230 C.ar  207  PHE207     -0.0003
     24  CZ       -37.7830   34.7050   38.2680 C.ar  207  PHE207     -0.0000
     25  N        -41.6970   35.8920   45.7000 N.3   210  GLY210     -0.1225
     26  CA       -42.7230   36.2700   44.7410 C.3   210  GLY210      0.1811
     27  C        -43.9090   35.3210   44.7330 C.2   210  GLY210      0.2280
     28  O        -45.0490   35.7540   44.4970 O.2   210  GLY210     -0.2866
     29  N        -47.5460   36.5120   45.3620 N.3   214  LEU214     -0.1245
     30  CA       -48.5930   36.3440   44.3610 C.3   214  LEU214      0.1561
     31  C        -49.7750   35.5350   44.9020 C.2   214  LEU214      0.2260
     32  O        -50.9240   35.8090   44.5500 O.2   214  LEU214     -0.2867
     33  CB       -48.0130   35.7170   43.0900 C.3   214  LEU214      0.0270
     34  CG       -47.3370   36.6480   42.0790 C.3   214  LEU214      0.0019
     35  CD1      -46.7400   35.8030   40.9110 C.3   214  LEU214      0.0001
     36  CD2      -48.2810   37.7680   41.5530 C.3   214  LEU214      0.0001
     37  N        -55.3500   47.4420   38.7280 N.3   252  ARG252     -0.1245
     38  CA       -55.0300   48.5480   37.8220 C.3   252  ARG252      0.1563
     39  C        -54.9990   49.8860   38.5650 C.2   252  ARG252      0.2260
     40  O        -54.0690   50.6790   38.3860 O.2   252  ARG252     -0.2867
     41  CB       -56.0430   48.6030   36.6710 C.3   252  ARG252      0.0307
     42  CG       -55.7270   49.6600   35.6180 C.3   252  ARG252      0.0489
     43  CD       -56.7060   49.6200   34.4260 C.3   252  ARG252      0.2205
     44  NE       -56.1410   50.2960   33.2580 N.pl3 252  ARG252     -0.0865
     45  CZ       -55.2090   49.7650   32.4670 C.cat 252  ARG252      0.5346
     46  NH1      -54.7540   48.5480   32.7130 N.pl3 252  ARG252      0.1354
     47  NH2      -54.7360   50.4510   31.4290 N.pl3 252  ARG252      0.1354
     48  N        -54.5660   50.3030   41.7730 N.3   254  THR254     -0.1203
     49  CA       -53.5160   50.2530   42.7880 C.3   254  THR254      0.1994
     50  C        -52.1330   50.4890   42.1830 C.2   254  THR254      0.2618
     51  O        -51.3970   51.3830   42.6290 O.2   254  THR254     -0.2717
     52  CB       -53.5610   48.9050   43.5200 C.3   254  THR254      0.1784
     53  OG1      -54.8120   48.7790   44.2180 O.3   254  THR254     -0.2211
     54  CG2      -52.4270   48.8100   44.5390 C.3   254  THR254      0.0376
     55  N        -51.7510   49.6860   41.1760 N.am  255  MET255     -0.1965
     56  CA       -50.3700   49.6480   40.6950 C.3   255  MET255      0.1736
     57  C        -50.2170   49.9210   39.1980 C.2   255  MET255      0.2617
     58  O        -49.1060   49.7880   38.6730 O.2   255  MET255     -0.2715
     59  CB       -49.7130   48.3070   41.0440 C.3   255  MET255      0.0427
     60  CG       -50.3800   47.0590   40.4560 C.3   255  MET255      0.0599
     61  SD       -49.4300   45.5240   40.7410 S.3   255  MET255     -0.1393
     62  CE       -50.6990   44.3110   40.5490 C.3   255  MET255      0.0692
     63  N        -51.2760   50.3170   38.5010 N.am  256  GLY256     -0.1940
     64  CA       -51.1640   50.8240   37.1410 C.3   256  GLY256      0.2014
     65  C        -51.3850   49.8020   36.0450 C.2   256  GLY256      0.2638
     66  O        -51.5590   50.1910   34.8850 O.2   256  GLY256     -0.2714
     67  N        -51.3760   48.5110   36.3650 N.am  257  PHE257     -0.1973
     68  CA       -51.6290   47.4970   35.3560 C.3   257  PHE257      0.1639
     69  C        -52.2540   46.2940   36.0420 C.2   257  PHE257      0.2290
     70  O        -52.3630   46.2400   37.2700 O.2   257  PHE257     -0.2864
     71  CB       -50.3530   47.1300   34.5890 C.3   257  PHE257      0.0560
     72  CG       -49.3050   46.4600   35.4430 C.ar  257  PHE257     -0.0200
     73  CD1      -48.5390   47.2000   36.3300 C.ar  257  PHE257     -0.0042
     74  CD2      -49.1050   45.0940   35.3620 C.ar  257  PHE257     -0.0042
     75  CE1      -47.5810   46.5790   37.1260 C.ar  257  PHE257     -0.0003
     76  CE2      -48.1350   44.4650   36.1420 C.ar  257  PHE257     -0.0003
     77  CZ       -47.3850   45.2020   37.0270 C.ar  257  PHE257     -0.0000
     78  N        -48.9200   33.8160   35.4590 N.3   267  TRP267     -0.1241
     79  CA       -47.9170   34.4550   36.3170 C.3   267  TRP267      0.1605
     80  C        -47.5550   33.5750   37.5080 C.2   267  TRP267      0.2264
     81  O        -46.3650   33.4010   37.8350 O.2   267  TRP267     -0.2867
     82  CB       -48.4070   35.8140   36.8060 C.3   267  TRP267      0.0550
     83  CG       -48.3820   36.8930   35.7730 C.ar  267  TRP267      0.0003
     84  CD1      -49.3440   37.1560   34.8160 C.ar  267  TRP267      0.0946
     85  CD2      -47.3650   37.8750   35.6030 C.ar  267  TRP267      0.0152
     86  NE1      -48.9650   38.2400   34.0660 N.ar  267  TRP267     -0.2442
     87  CE2      -47.7580   38.7030   34.5300 C.ar  267  TRP267      0.0810
     88  CE3      -46.1340   38.1230   36.2420 C.ar  267  TRP267      0.0012
     89  CZ2      -46.9810   39.7690   34.0840 C.ar  267  TRP267      0.0191
     90  CZ3      -45.3620   39.1930   35.7970 C.ar  267  TRP267      0.0001
     91  CH2      -45.7920   40.0020   34.7250 C.ar  267  TRP267      0.0015
     92  N        -45.4150   30.3570   36.4210 N.3   270  TRP270     -0.1227
     93  CA       -44.0170   30.6190   36.1090 C.3   270  TRP270      0.1737
     94  C        -43.2450   31.0410   37.3430 C.2   270  TRP270      0.2595
     95  O        -42.0870   30.6280   37.5280 O.2   270  TRP270     -0.2718
     96  CB       -43.9040   31.6660   34.9990 C.3   270  TRP270      0.0564
     97  CG       -44.1360   31.0620   33.6450 C.ar  270  TRP270      0.0003
     98  CD1      -45.2640   31.1630   32.8710 C.ar  270  TRP270      0.0946
     99  CD2      -43.2230   30.2410   32.9170 C.ar  270  TRP270      0.0152
    100  NE1      -45.0950   30.4650   31.6940 N.ar  270  TRP270     -0.2442
    101  CE2      -43.8570   29.8790   31.7050 C.ar  270  TRP270      0.0810
    102  CE3      -41.9310   29.7610   33.1780 C.ar  270  TRP270      0.0012
    103  CZ2      -43.2350   29.0800   30.7470 C.ar  270  TRP270      0.0191
    104  CZ3      -41.3140   28.9660   32.2280 C.ar  270  TRP270      0.0001
    105  CH2      -41.9620   28.6360   31.0210 C.ar  270  TRP270      0.0015
    106  N        -43.8550   31.8480   38.2080 N.am  271  CYS271     -0.1970
    107  CA       -43.1400   32.2830   39.4090 C.3   271  CYS271      0.1712
    108  C        -42.7250   31.0830   40.2490 C.2   271  CYS271      0.2296
    109  O        -41.5720   30.9750   40.6800 O.2   271  CYS271     -0.2864
    110  CB       -44.0060   33.2380   40.2260 C.3   271  CYS271      0.0983
    111  SG       -43.1340   34.0890   41.5950 S.3   271  CYS271     -0.0798
    112  N        -40.0820   28.9160   38.3000 N.3   274  LEU274     -0.1245
    113  CA       -38.7570   29.5130   38.2470 C.3   274  LEU274      0.1561
    114  C        -38.0440   29.4190   39.5870 C.2   274  LEU274      0.2260
    115  O        -36.8040   29.4050   39.6060 O.2   274  LEU274     -0.2867
    116  CB       -38.8350   30.9670   37.7470 C.3   274  LEU274      0.0270
    117  CG       -39.2670   30.9900   36.2610 C.3   274  LEU274      0.0019
    118  CD1      -39.4550   32.4000   35.7210 C.3   274  LEU274      0.0001
    119  CD2      -38.2670   30.2100   35.3930 C.3   274  LEU274      0.0001
@<TRIPOS>BOND
     1   103   105   ar
     2   103   101   ar
     3   105   104   ar
     4    47    45    1
     5   100   101   ar
     6   100    98   ar
     7   101    99   ar
     8   104   102   ar
     9    45    46    1
    10    45    44    2
    11    98    97   ar
    12    99   102   ar
    13    99    97   ar
    14    44    43    1
    15    97    96    1
    16    86    87   ar
    17    86    84   ar
    18    89    87   ar
    19    89    91   ar
    20    43    42    1
    21    87    85   ar
    22    71    68    1
    23    71    72    1
    24    91    90   ar
    25    84    83   ar
    26    66    65    2
    27    96    93    1
    28    68    69    1
    29    68    67    1
    30    74    72   ar
    31    74    76   ar
    32   119   117    1
    33    72    73   ar
    34    78    79    1
    35    85    83   ar
    36    85    88   ar
    37    42    41    1
    38   118   117    1
    39    83    82    1
    40    90    88   ar
    41    69    70    2
    42    65    67   am
    43    65    64    1
    44    93    92    1
    45    93    94    1
    46    76    77   ar
    47   117   116    1
    48    79    82    1
    49    79    80    1
    50    73    75   ar
    51    41    38    1
    52    77    75   ar
    53    64    63    1
    54    94    95    2
    55    94   106   am
    56    80    81    2
    57   116   113    1
    58    38    39    1
    59    38    37    1
    60     7     6    1
    61   106   107    1
    62   113   112    1
    63   113   114    1
    64    24    22   ar
    65    24    23   ar
    66    40    39    2
    67    63    57   am
    68    58    57    2
    69    22    20   ar
    70    23    21   ar
    71     8     6    1
    72    57    56    1
    73   107   110    1
    74   107   108    1
    75     6     5    1
    76   114   115    2
    77    20    19   ar
    78    21    19   ar
    79   110   111    1
    80   108   109    2
    81     5     2    1
    82    60    61    1
    83    60    59    1
    84    62    61    1
    85    19    18    1
    86    56    59    1
    87    56    55    1
    88    35    34    1
    89    55    50   am
    90    36    34    1
    91     2     3    1
    92     2     1    1
    93    48    49    1
    94    18    15    1
    95    34    33    1
    96    50    51    2
    97    50    49    1
    98     3     4    2
    99    49    52    1
   100    15    14    1
   101    15    16    1
   102    33    30    1
   103    13    10    1
   104    14    11   am
   105    52    53    1
   106    52    54    1
   107    11    12    2
   108    11    10    1
   109    17    16    2
   110    30    31    1
   111    30    29    1
   112    10     9    1
   113    28    27    2
   114    32    31    2
   115    27    26    1
   116    26    25    1
