@<TRIPOS>MOLECULE
tmp/5y5sB04.pdb
 158 152 0 0 0
SMALL
GASTEIGER

@<TRIPOS>ATOM
      1  N        -64.4520   42.8200   49.1760 N.3   122  GLY122     -0.1210
      2  CA       -63.8990   42.5640   50.4950 C.3   122  GLY122      0.1956
      3  C        -62.5310   43.1960   50.6740 C.2   122  GLY122      0.2612
      4  O        -61.8760   43.6290   49.7220 O.2   122  GLY122     -0.2717
      5  N        -62.0820   43.2380   51.9330 N.am  123  PHE123     -0.1962
      6  CA       -60.8600   43.9420   52.3000 C.3   123  PHE123      0.1771
      7  C        -59.6640   42.9980   52.5000 C.2   123  PHE123      0.2619
      8  O        -58.6800   43.3710   53.1600 O.2   123  PHE123     -0.2715
      9  CB       -61.1160   44.7730   53.5530 C.3   123  PHE123      0.0574
     10  CG       -62.1780   45.8550   53.3490 C.ar  123  PHE123     -0.0200
     11  CD1      -61.8520   47.0220   52.6810 C.ar  123  PHE123     -0.0042
     12  CD2      -63.4790   45.6820   53.7960 C.ar  123  PHE123     -0.0042
     13  CE1      -62.8230   48.0450   52.4760 C.ar  123  PHE123     -0.0003
     14  CE2      -64.4610   46.6850   53.5910 C.ar  123  PHE123     -0.0003
     15  CZ       -64.1210   47.8570   52.9330 C.ar  123  PHE123     -0.0000
     16  N        -59.7000   41.8290   51.8600 N.am  124  HIS124     -0.1973
     17  CA       -58.6990   40.7990   52.1090 C.3   124  HIS124      0.1656
     18  C        -57.2990   41.2470   51.7000 C.2   124  HIS124      0.2291
     19  O        -56.3190   40.9160   52.3720 O.2   124  HIS124     -0.2864
     20  CB       -59.0960   39.5150   51.3700 C.3   124  HIS124      0.0771
     21  CG       -60.4430   38.9970   51.7570 C.ar  124  HIS124      0.0820
     22  ND1      -61.6160   39.6600   51.4480 N.ar  124  HIS124     -0.2267
     23  CD2      -60.8070   37.8800   52.4330 C.ar  124  HIS124      0.1154
     24  CE1      -62.6420   38.9720   51.9150 C.ar  124  HIS124      0.1986
     25  NE2      -62.1780   37.9000   52.5330 N.ar  124  HIS124     -0.2212
     26  N        -55.7750   43.8180   54.0730 N.3   127  PHE127     -0.1241
     27  CA       -55.5420   43.0270   55.2800 C.3   127  PHE127      0.1605
     28  C        -54.2970   42.1590   55.1240 C.2   127  PHE127      0.2264
     29  O        -53.4430   42.1100   56.0140 O.2   127  PHE127     -0.2867
     30  CB       -56.7620   42.1630   55.5910 C.3   127  PHE127      0.0534
     31  CG       -56.5860   41.2620   56.7960 C.ar  127  PHE127     -0.0203
     32  CD1      -56.8710   41.7300   58.0720 C.ar  127  PHE127     -0.0042
     33  CD2      -56.1420   39.9520   56.6490 C.ar  127  PHE127     -0.0042
     34  CE1      -56.7020   40.9080   59.1830 C.ar  127  PHE127     -0.0003
     35  CE2      -55.9720   39.1250   57.7590 C.ar  127  PHE127     -0.0003
     36  CZ       -56.2660   39.6000   59.0240 C.ar  127  PHE127     -0.0000
     37  N        -51.0540   44.1060   55.0290 N.3   130  SER130     -0.1202
     38  CA       -50.6720   44.4770   56.3850 C.3   130  SER130      0.2020
     39  C        -49.7190   43.4770   57.0140 C.2   130  SER130      0.2618
     40  O        -48.9140   43.8670   57.8650 O.2   130  SER130     -0.2717
     41  CB       -51.9090   44.6080   57.2670 C.3   130  SER130      0.2103
     42  OG       -52.7240   45.6770   56.8180 O.3   130  SER130     -0.2182
     43  N        -49.8100   42.1820   56.6550 N.am  131  PHE131     -0.1975
     44  CA       -48.8280   41.2360   57.2160 C.3   131  PHE131      0.1639
     45  C        -47.4170   41.5160   56.7110 C.2   131  PHE131      0.2290
     46  O        -46.4560   41.3940   57.4690 O.2   131  PHE131     -0.2864
     47  CB       -49.2280   39.7790   56.9220 C.3   131  PHE131      0.0560
     48  CG       -50.3210   39.2510   57.8360 C.ar  131  PHE131     -0.0200
     49  CD1      -51.5800   39.8370   57.8470 C.ar  131  PHE131     -0.0042
     50  CD2      -50.0890   38.1420   58.6660 C.ar  131  PHE131     -0.0042
     51  CE1      -52.5920   39.3620   58.6880 C.ar  131  PHE131     -0.0003
     52  CE2      -51.0690   37.6620   59.5090 C.ar  131  PHE131     -0.0003
     53  CZ       -52.3440   38.2710   59.5200 C.ar  131  PHE131     -0.0000
     54  N        -46.3090   44.5640   58.6200 N.3   134  GLY134     -0.1210
     55  CA       -45.9960   44.1730   59.9870 C.3   134  GLY134      0.1956
     56  C        -44.6200   43.5360   60.1090 C.2   134  GLY134      0.2611
     57  O        -43.8800   43.8140   61.0570 O.2   134  GLY134     -0.2717
     58  N        -44.2470   42.6920   59.1400 N.am  135  ALA135     -0.1979
     59  CA       -42.9250   42.0690   59.1820 C.3   135  ALA135      0.1597
     60  C        -41.8250   43.1110   58.9980 C.2   135  ALA135      0.2287
     61  O        -40.8110   43.0850   59.7080 O.2   135  ALA135     -0.2864
     62  CB       -42.8130   40.9710   58.1150 C.3   135  ALA135      0.0319
     63  N        -41.5580   44.9130   62.2530 N.3   138  VAL138     -0.1245
     64  CA       -40.8260   44.1320   63.2560 C.3   138  VAL138      0.1561
     65  C        -39.3290   44.3190   63.0560 C.2   138  VAL138      0.2260
     66  O        -38.5760   44.5330   64.0170 O.2   138  VAL138     -0.2867
     67  CB       -41.2400   42.6480   63.2100 C.3   138  VAL138      0.0252
     68  CG1      -40.1460   41.7170   63.9190 C.3   138  VAL138      0.0019
     69  CG2      -42.6020   42.4560   63.8550 C.3   138  VAL138      0.0019
     70  N        -40.1540   47.1830   65.9080 N.3   142  VAL142     -0.1245
     71  CA       -40.4030   46.4460   67.1500 C.3   142  VAL142      0.1561
     72  C        -39.1100   45.8160   67.6840 C.2   142  VAL142      0.2260
     73  O        -38.7720   45.9730   68.8620 O.2   142  VAL142     -0.2867
     74  CB       -41.4890   45.3730   66.9720 C.3   142  VAL142      0.0252
     75  CG1      -41.8040   44.7560   68.3360 C.3   142  VAL142      0.0019
     76  CG2      -42.7710   45.9460   66.3400 C.3   142  VAL142      0.0019
     77  N        -58.5690   30.1390   49.8760 N.3   239  ARG239     -0.1231
     78  CA       -58.4180   30.2440   51.3350 C.3   239  ARG239      0.1694
     79  C        -57.0650   29.7060   51.7850 C.2   239  ARG239      0.2591
     80  O        -56.3670   30.3190   52.6070 O.2   239  ARG239     -0.2718
     81  CB       -59.5140   29.4600   52.0590 C.3   239  ARG239      0.0321
     82  CG       -60.9560   29.8820   51.7960 C.3   239  ARG239      0.0489
     83  CD       -61.9020   28.9790   52.5400 C.3   239  ARG239      0.2205
     84  NE       -63.2880   29.4980   52.5250 N.pl3 239  ARG239     -0.0865
     85  CZ       -64.3440   28.8050   52.9370 C.cat 239  ARG239      0.5346
     86  NH1      -64.1920   27.5530   53.3800 N.pl3 239  ARG239      0.1354
     87  NH2      -65.5470   29.3580   52.9230 N.pl3 239  ARG239      0.1354
     88  N        -56.7130   28.5170   51.2890 N.am  240  LEU240     -0.1980
     89  CA       -55.4680   27.8680   51.6590 C.3   240  LEU240      0.1596
     90  C        -54.2660   28.7000   51.2430 C.2   240  LEU240      0.2287
     91  O        -53.3500   28.9190   52.0370 O.2   240  LEU240     -0.2864
     92  CB       -55.4070   26.4770   51.0230 C.3   240  LEU240      0.0297
     93  CG       -54.0590   25.7900   51.2680 C.3   240  LEU240      0.0022
     94  CD1      -53.8730   25.5520   52.7700 C.3   240  LEU240      0.0001
     95  CD2      -54.0040   24.4690   50.4870 C.3   240  LEU240      0.0001
     96  N        -54.0130   31.8480   50.7290 N.3   242  LEU242     -0.1231
     97  CA       -53.9130   33.0360   51.5760 C.3   242  LEU242      0.1693
     98  C        -53.4220   32.6670   52.9660 C.2   242  LEU242      0.2592
     99  O        -52.5950   33.3710   53.5420 O.2   242  LEU242     -0.2718
    100  CB       -55.2700   33.7430   51.6730 C.3   242  LEU242      0.0284
    101  CG       -55.2350   35.0600   52.4720 C.3   242  LEU242      0.0019
    102  CD1      -54.2450   36.0980   51.8510 C.3   242  LEU242      0.0001
    103  CD2      -56.6330   35.6700   52.6050 C.3   242  LEU242      0.0001
    104  N        -53.9150   31.5530   53.5140 N.am  243  PHE243     -0.1976
    105  CA       -53.4760   31.1110   54.8360 C.3   243  PHE243      0.1639
    106  C        -51.9790   30.7980   54.8560 C.2   243  PHE243      0.2290
    107  O        -51.2650   31.1880   55.7870 O.2   243  PHE243     -0.2864
    108  CB       -54.2730   29.8760   55.2690 C.3   243  PHE243      0.0560
    109  CG       -53.7320   29.2270   56.5110 C.ar  243  PHE243     -0.0200
    110  CD1      -53.8810   29.8490   57.7440 C.ar  243  PHE243     -0.0042
    111  CD2      -53.0590   28.0160   56.4460 C.ar  243  PHE243     -0.0042
    112  CE1      -53.3830   29.2790   58.8820 C.ar  243  PHE243     -0.0003
    113  CE2      -52.5740   27.4390   57.5860 C.ar  243  PHE243     -0.0003
    114  CZ       -52.7400   28.0800   58.8060 C.ar  243  PHE243     -0.0000
    115  N        -49.8680   34.2400   54.3490 N.3   246  LEU246     -0.1245
    116  CA       -49.8760   35.0700   55.5540 C.3   246  LEU246      0.1561
    117  C        -49.1750   34.3840   56.7280 C.2   246  LEU246      0.2260
    118  O        -48.5570   35.0680   57.5580 O.2   246  LEU246     -0.2867
    119  CB       -51.2940   35.4400   55.9590 C.3   246  LEU246      0.0270
    120  CG       -52.0710   36.3090   54.9580 C.3   246  LEU246      0.0019
    121  CD1      -53.2720   36.9330   55.6400 C.3   246  LEU246      0.0001
    122  CD2      -51.1750   37.4020   54.3310 C.3   246  LEU246      0.0001
    123  N        -45.4640   34.9110   56.4040 N.3   249  ALA249     -0.1231
    124  CA       -45.0430   36.2370   56.8540 C.3   249  ALA249      0.1694
    125  C        -45.1290   36.3530   58.3630 C.2   249  ALA249      0.2592
    126  O        -44.2580   36.9640   59.0000 O.2   249  ALA249     -0.2718
    127  CB       -45.9110   37.3310   56.2100 C.3   249  ALA249      0.0304
    128  N        -46.1950   35.8050   58.9430 N.am  250  PHE250     -0.1976
    129  CA       -46.4000   35.9420   60.3750 C.3   250  PHE250      0.1639
    130  C        -45.2950   35.2340   61.1430 C.2   250  PHE250      0.2290
    131  O        -44.6890   35.8140   62.0470 O.2   250  PHE250     -0.2864
    132  CB       -47.7860   35.4140   60.7770 C.3   250  PHE250      0.0560
    133  CG       -47.9690   35.2950   62.2730 C.ar  250  PHE250     -0.0200
    134  CD1      -48.3060   36.3930   63.0350 C.ar  250  PHE250     -0.0042
    135  CD2      -47.7310   34.0900   62.9170 C.ar  250  PHE250     -0.0042
    136  CE1      -48.4440   36.2880   64.4130 C.ar  250  PHE250     -0.0003
    137  CE2      -47.8630   33.9780   64.2930 C.ar  250  PHE250     -0.0003
    138  CZ       -48.2250   35.0860   65.0370 C.ar  250  PHE250     -0.0000
    139  N        -42.0080   37.0910   61.0110 N.3   253  ALA253     -0.1231
    140  CA       -41.8970   38.1940   61.9610 C.3   253  ALA253      0.1694
    141  C        -41.6270   37.6710   63.3600 C.2   253  ALA253      0.2591
    142  O        -40.7810   38.2110   64.0810 O.2   253  ALA253     -0.2718
    143  CB       -43.1720   39.0540   61.9300 C.3   253  ALA253      0.0304
    144  N        -42.3360   36.6080   63.7530 N.am  254  VAL254     -0.1980
    145  CA       -42.1030   35.9880   65.0550 C.3   254  VAL254      0.1595
    146  C        -40.6520   35.5130   65.1650 C.2   254  VAL254      0.2287
    147  O        -40.0000   35.6980   66.2040 O.2   254  VAL254     -0.2864
    148  CB       -43.0900   34.8170   65.2650 C.3   254  VAL254      0.0276
    149  CG1      -42.6840   33.9790   66.4730 C.3   254  VAL254      0.0022
    150  CG2      -44.5300   35.3170   65.4030 C.3   254  VAL254      0.0022
    151  N        -38.3130   38.3500   65.6630 N.3   257  LEU257     -0.1245
    152  CA       -38.6670   39.0490   66.8960 C.3   257  LEU257      0.1561
    153  C        -38.1230   38.3400   68.1320 C.2   257  LEU257      0.2260
    154  O        -37.7510   38.9970   69.1080 O.2   257  LEU257     -0.2867
    155  CB       -40.1870   39.1840   67.0060 C.3   257  LEU257      0.0270
    156  CG       -40.7130   39.8930   68.2510 C.3   257  LEU257      0.0019
    157  CD1      -40.1630   41.3130   68.3150 C.3   257  LEU257      0.0001
    158  CD2      -42.2460   39.9040   68.2800 C.3   257  LEU257      0.0001
@<TRIPOS>BOND
     1     1     2    1
     2     4     3    2
     3    77    78    1
     4    95    93    1
     5     2     3    1
     6     3     5   am
     7    96    97    1
     8    92    93    1
     9    92    89    1
    10    90    89    1
    11    90    91    2
    12    93    94    1
    13    88    89    1
    14    88    79   am
    15    78    79    1
    16    78    81    1
    17    20    21    1
    18    20    17    1
    19    22    21   ar
    20    22    24   ar
    21    97   100    1
    22    97    98    1
    23   100   101    1
    24    18    17    1
    25    18    19    2
    26    21    23   ar
    27    79    80    2
    28    82    81    1
    29    82    83    1
    30   102   101    1
    31    16    17    1
    32    16     7   am
    33    24    25   ar
    34     5     6    1
    35     6     7    1
    36     6     9    1
    37    23    25   ar
    38   101   103    1
    39    13    11   ar
    40    13    15   ar
    41     7     8    2
    42    84    83    1
    43    84    85    2
    44    11    10   ar
    45    87    85    1
    46    15    14   ar
    47    85    86    1
    48    98   104   am
    49    98    99    2
    50    10     9    1
    51    10    12   ar
    52   104   105    1
    53    14    12   ar
    54    26    27    1
    55   122   120    1
    56   115   116    1
    57   105   106    1
    58   105   108    1
    59   106   107    2
    60   120   121    1
    61   120   119    1
    62    37    38    1
    63    28    27    1
    64    28    29    2
    65   108   109    1
    66    27    30    1
    67   116   119    1
    68   116   117    1
    69    30    31    1
    70   127   124    1
    71    38    39    1
    72    38    41    1
    73   123   124    1
    74   111   109   ar
    75   111   113   ar
    76   109   110   ar
    77    33    31   ar
    78    33    35   ar
    79    43    39   am
    80    43    44    1
    81    45    44    1
    82    45    46    2
    83   117   118    2
    84    31    32   ar
    85    42    41    1
    86   124   125    1
    87    47    44    1
    88    47    48    1
    89    39    40    2
    90   113   114   ar
    91   110   112   ar
    92    35    36   ar
    93    48    49   ar
    94    48    50   ar
    95    49    51   ar
    96    32    34   ar
    97    62    59    1
    98   125   128   am
    99   125   126    2
   100    54    55    1
   101    50    52   ar
   102    51    53   ar
   103   114   112   ar
   104   128   129    1
   105    60    59    1
   106    60    61    2
   107    36    34   ar
   108    58    59    1
   109    58    56   am
   110    52    53   ar
   111    55    56    1
   112    56    57    2
   113   129   132    1
   114   129   130    1
   115   132   133    1
   116   139   140    1
   117   130   131    2
   118   143   140    1
   119   140   141    1
   120    63    64    1
   121   133   135   ar
   122   133   134   ar
   123   135   137   ar
   124   134   136   ar
   125    65    64    1
   126    65    66    2
   127    67    64    1
   128    67    69    1
   129    67    68    1
   130   141   144   am
   131   141   142    2
   132   144   145    1
   133   137   138   ar
   134   136   138   ar
   135   145   146    1
   136   145   148    1
   137   146   147    2
   138   148   150    1
   139   148   149    1
   140   151   152    1
   141    70    71    1
   142    76    74    1
   143   152   155    1
   144   152   153    1
   145    74    71    1
   146    74    75    1
   147   155   156    1
   148    71    72    1
   149    72    73    2
   150   153   154    2
   151   156   158    1
   152   156   157    1
