@<TRIPOS>MOLECULE
tmp/5y5sB11.pdb
 107 108 0 0 0
SMALL
GASTEIGER

@<TRIPOS>ATOM
      1  N        -37.0470   27.6350   65.8920 N.3   179  PRO179     -0.2102
      2  CA       -38.3060   26.9060   65.6520 C.3   179  PRO179      0.1504
      3  C        -39.3530   27.6840   64.8650 C.2   179  PRO179      0.2575
      4  O        -40.0680   27.0960   64.0420 O.2   179  PRO179     -0.2718
      5  CB       -38.8040   26.5950   67.0740 C.3   179  PRO179      0.0282
      6  CG       -38.2110   27.6630   67.9190 C.3   179  PRO179      0.0208
      7  CD       -36.8120   27.8510   67.3320 C.3   179  PRO179      0.0893
      8  N        -39.4540   29.0010   65.0740 N.am  180  ALA180     -0.1980
      9  CA       -40.4150   29.7730   64.2880 C.3   180  ALA180      0.1597
     10  C        -39.9540   29.9100   62.8420 C.2   180  ALA180      0.2287
     11  O        -40.7880   29.9710   61.9180 O.2   180  ALA180     -0.2864
     12  CB       -40.6490   31.1550   64.9340 C.3   180  ALA180      0.0319
     13  N        -40.8680   26.6990   61.0000 N.3   183  LEU183     -0.1245
     14  CA       -42.2880   26.7700   60.6740 C.3   183  LEU183      0.1561
     15  C        -42.5660   27.7400   59.5250 C.2   183  LEU183      0.2260
     16  O        -43.3640   27.4370   58.6220 O.2   183  LEU183     -0.2867
     17  CB       -43.0780   27.1770   61.9230 C.3   183  LEU183      0.0270
     18  CG       -44.6040   27.1390   61.8350 C.3   183  LEU183      0.0019
     19  CD1      -45.0890   25.7560   61.3880 C.3   183  LEU183      0.0001
     20  CD2      -45.2260   27.5050   63.1810 C.3   183  LEU183      0.0001
     21  N        -46.1950   35.8050   58.9430 N.3   250  PHE250     -0.1227
     22  CA       -46.4000   35.9420   60.3750 C.3   250  PHE250      0.1736
     23  C        -45.2950   35.2340   61.1430 C.2   250  PHE250      0.2595
     24  O        -44.6890   35.8140   62.0470 O.2   250  PHE250     -0.2718
     25  CB       -47.7860   35.4140   60.7770 C.3   250  PHE250      0.0547
     26  CG       -47.9690   35.2950   62.2730 C.ar  250  PHE250     -0.0202
     27  CD1      -48.3060   36.3930   63.0350 C.ar  250  PHE250     -0.0042
     28  CD2      -47.7310   34.0900   62.9170 C.ar  250  PHE250     -0.0042
     29  CE1      -48.4440   36.2880   64.4130 C.ar  250  PHE250     -0.0003
     30  CE2      -47.8630   33.9780   64.2930 C.ar  250  PHE250     -0.0003
     31  CZ       -48.2250   35.0860   65.0370 C.ar  250  PHE250     -0.0000
     32  N        -45.0150   33.9680   60.7930 N.am  251  TRP251     -0.1976
     33  CA       -43.9830   33.2340   61.5160 C.3   251  TRP251      0.1640
     34  C        -42.5900   33.7680   61.1910 C.2   251  TRP251      0.2290
     35  O        -41.6860   33.6550   62.0270 O.2   251  TRP251     -0.2864
     36  CB       -44.1150   31.7160   61.2420 C.3   251  TRP251      0.0576
     37  CG       -45.3680   31.1830   61.8910 C.ar  251  TRP251      0.0006
     38  CD1      -46.5410   30.8230   61.2700 C.ar  251  TRP251      0.0946
     39  CD2      -45.6020   31.0400   63.3000 C.ar  251  TRP251      0.0152
     40  NE1      -47.4770   30.4280   62.2140 N.ar  251  TRP251     -0.2442
     41  CE2      -46.9270   30.5600   63.4630 C.ar  251  TRP251      0.0810
     42  CE3      -44.8220   31.2750   64.4410 C.ar  251  TRP251      0.0012
     43  CZ2      -47.4830   30.3040   64.7250 C.ar  251  TRP251      0.0191
     44  CZ3      -45.3740   31.0120   65.6950 C.ar  251  TRP251      0.0001
     45  CH2      -46.6910   30.5360   65.8270 C.ar  251  TRP251      0.0015
     46  N        -42.3360   36.6080   63.7530 N.3   254  VAL254     -0.1245
     47  CA       -42.1030   35.9880   65.0550 C.3   254  VAL254      0.1561
     48  C        -40.6520   35.5130   65.1650 C.2   254  VAL254      0.2260
     49  O        -40.0000   35.6980   66.2040 O.2   254  VAL254     -0.2867
     50  CB       -43.0900   34.8170   65.2650 C.3   254  VAL254      0.0252
     51  CG1      -42.6840   33.9790   66.4730 C.3   254  VAL254      0.0019
     52  CG2      -44.5300   35.3170   65.4030 C.3   254  VAL254      0.0019
     53  N        -38.3130   38.3500   65.6630 N.3   257  LEU257     -0.1231
     54  CA       -38.6670   39.0490   66.8960 C.3   257  LEU257      0.1693
     55  C        -38.1230   38.3400   68.1320 C.2   257  LEU257      0.2591
     56  O        -37.7510   38.9970   69.1080 O.2   257  LEU257     -0.2718
     57  CB       -40.1870   39.1840   67.0060 C.3   257  LEU257      0.0284
     58  CG       -40.7130   39.8930   68.2510 C.3   257  LEU257      0.0019
     59  CD1      -40.1630   41.3130   68.3150 C.3   257  LEU257      0.0001
     60  CD2      -42.2460   39.9040   68.2800 C.3   257  LEU257      0.0001
     61  N        -38.1030   37.0000   68.1300 N.am  258  ILE258     -0.1980
     62  CA       -37.5500   36.2740   69.2750 C.3   258  ILE258      0.1595
     63  C        -36.0260   36.1850   69.2370 C.2   258  ILE258      0.2287
     64  O        -35.3980   35.8000   70.2430 O.2   258  ILE258     -0.2864
     65  CB       -38.2180   34.8850   69.3550 C.3   258  ILE258      0.0276
     66  CG1      -37.8790   34.0320   68.1180 C.3   258  ILE258      0.0022
     67  CG2      -39.7730   35.0420   69.5400 C.3   258  ILE258      0.0022
     68  CD1      -38.4990   32.6160   68.1490 C.3   258  ILE258      0.0001
     69  N        -35.9820   37.8360   72.8050 N.3   262  PHE262     -0.1241
     70  CA       -36.4930   36.7510   73.6400 C.3   262  PHE262      0.1605
     71  C        -35.5880   35.5260   73.6470 C.2   262  PHE262      0.2264
     72  O        -35.9560   34.4990   74.2380 O.2   262  PHE262     -0.2867
     73  CB       -37.9040   36.3620   73.1920 C.3   262  PHE262      0.0534
     74  CG       -38.8970   37.4820   73.3320 C.ar  262  PHE262     -0.0203
     75  CD1      -39.5030   37.7280   74.5460 C.ar  262  PHE262     -0.0042
     76  CD2      -39.2150   38.2890   72.2530 C.ar  262  PHE262     -0.0042
     77  CE1      -40.4400   38.7720   74.6850 C.ar  262  PHE262     -0.0003
     78  CE2      -40.1490   39.3270   72.3810 C.ar  262  PHE262     -0.0003
     79  CZ       -40.7520   39.5670   73.6000 C.ar  262  PHE262     -0.0000
     80  N        -29.3040   28.8030   68.5160 N.3   267  TRP267     -0.1241
     81  CA       -30.6610   28.2660   68.3290 C.3   267  TRP267      0.1605
     82  C        -30.7280   26.7420   68.5310 C.2   267  TRP267      0.2264
     83  O        -31.7140   26.2700   69.0990 O.2   267  TRP267     -0.2867
     84  CB       -31.2460   28.6790   66.9630 C.3   267  TRP267      0.0550
     85  CG       -32.0180   30.0070   67.0650 C.ar  267  TRP267      0.0003
     86  CD1      -31.7680   31.1620   66.3920 C.ar  267  TRP267      0.0946
     87  CD2      -33.1380   30.2820   67.9160 C.ar  267  TRP267      0.0152
     88  NE1      -32.6380   32.1460   66.7800 N.ar  267  TRP267     -0.2442
     89  CE2      -33.4960   31.6340   67.7160 C.ar  267  TRP267      0.0810
     90  CE3      -33.8810   29.5100   68.8200 C.ar  267  TRP267      0.0012
     91  CZ2      -34.5780   32.2330   68.3800 C.ar  267  TRP267      0.0191
     92  CZ3      -34.9350   30.0980   69.4970 C.ar  267  TRP267      0.0001
     93  CH2      -35.2780   31.4530   69.2710 C.ar  267  TRP267      0.0015
     94  N        -31.7800   25.8560   72.0930 N.3   270  TRP270     -0.1241
     95  CA       -33.1720   26.0050   72.5110 C.3   270  TRP270      0.1605
     96  C        -33.8500   24.6490   72.6420 C.2   270  TRP270      0.2264
     97  O        -34.5950   24.4100   73.5960 O.2   270  TRP270     -0.2867
     98  CB       -33.9490   26.8990   71.5210 C.3   270  TRP270      0.0550
     99  CG       -35.4090   27.1520   71.8820 C.ar  270  TRP270      0.0003
    100  CD1      -35.8960   28.1570   72.6890 C.ar  270  TRP270      0.0946
    101  CD2      -36.5660   26.4400   71.3950 C.ar  270  TRP270      0.0152
    102  NE1      -37.2720   28.0800   72.7550 N.ar  270  TRP270     -0.2442
    103  CE2      -37.7040   27.0410   71.9710 C.ar  270  TRP270      0.0810
    104  CE3      -36.7450   25.3460   70.5340 C.ar  270  TRP270      0.0012
    105  CZ2      -38.9980   26.5870   71.7190 C.ar  270  TRP270      0.0191
    106  CZ3      -38.0230   24.8900   70.2950 C.ar  270  TRP270      0.0001
    107  CH2      -39.1370   25.5100   70.8810 C.ar  270  TRP270      0.0015
@<TRIPOS>BOND
     1    16    15    2
     2    21    22    1
     3    15    14    1
     4    22    25    1
     5    22    23    1
     6    14    13    1
     7    14    17    1
     8    25    26    1
     9    32    23   am
    10    32    33    1
    11    23    24    2
    12    34    33    1
    13    34    35    2
    14    36    33    1
    15    36    37    1
    16    38    37   ar
    17    38    40   ar
    18    19    18    1
    19    18    17    1
    20    18    20    1
    21    37    39   ar
    22    11    10    2
    23    40    41   ar
    24    26    28   ar
    25    26    27   ar
    26    10     9    1
    27    28    30   ar
    28    27    29   ar
    29    39    41   ar
    30    39    42   ar
    31    41    43   ar
    32    46    47    1
    33     4     3    2
    34     9    12    1
    35     9     8    1
    36    30    31   ar
    37    29    31   ar
    38    42    44   ar
    39    43    45   ar
    40     3     8   am
    41     3     2    1
    42    47    48    1
    43    47    50    1
    44    48    49    2
    45    50    52    1
    46    50    51    1
    47     2     1    1
    48     2     5    1
    49    53    54    1
    50    44    45   ar
    51     1     7    1
    52    86    88   ar
    53    86    85   ar
    54    88    89   ar
    55    54    57    1
    56    54    55    1
    57    84    85    1
    58    84    81    1
    59    57    58    1
    60    85    87   ar
    61     5     6    1
    62     7     6    1
    63    89    87   ar
    64    89    91   ar
    65    87    90   ar
    66    66    68    1
    67    66    65    1
    68    61    55   am
    69    61    62    1
    70    55    56    2
    71    58    60    1
    72    58    59    1
    73    81    80    1
    74    81    82    1
    75    91    93   ar
    76    82    83    2
    77    90    92   ar
    78    63    62    1
    79    63    64    2
    80    93    92   ar
    81    62    65    1
    82    65    67    1
    83   106   104   ar
    84   106   107   ar
    85   104   101   ar
    86   107   105   ar
    87   101    99   ar
    88   101   103   ar
    89    98    99    1
    90    98    95    1
    91   105   103   ar
    92    99   100   ar
    93   103   102   ar
    94    94    95    1
    95    76    78   ar
    96    76    74   ar
    97    78    79   ar
    98    95    96    1
    99    96    97    2
   100   100   102   ar
   101    69    70    1
   102    73    74    1
   103    73    70    1
   104    74    75   ar
   105    79    77   ar
   106    70    71    1
   107    71    72    2
   108    75    77   ar
