@<TRIPOS>MOLECULE
tmp/5y5sC04.pdb
 116 114 0 0 0
SMALL
GASTEIGER

@<TRIPOS>ATOM
      1  N        -54.6940   19.2740   29.8590 N.3   142  SER142     -0.1217
      2  CA       -53.3150   19.5380   29.4620 C.3   142  SER142      0.1889
      3  C        -52.3620   19.2410   30.6140 C.2   142  SER142      0.2288
      4  O        -52.7670   19.0080   31.7590 O.2   142  SER142     -0.2866
      5  CB       -53.1390   20.9840   29.0030 C.3   142  SER142      0.2089
      6  OG       -53.5700   21.1290   27.6630 O.3   142  SER142     -0.2183
      7  N        -50.0090   20.8280   32.3980 N.3   144  HIS144     -0.1241
      8  CA       -49.2880   21.8900   33.1180 C.3   144  HIS144      0.1621
      9  C        -48.7200   21.3940   34.4410 C.2   144  HIS144      0.2264
     10  O        -47.6100   21.7840   34.8380 O.2   144  HIS144     -0.2867
     11  CB       -50.1820   23.1050   33.3690 C.3   144  HIS144      0.0745
     12  CG       -50.5740   23.8210   32.1180 C.ar  144  HIS144      0.0817
     13  ND1      -51.5670   23.3580   31.2840 N.ar  144  HIS144     -0.2268
     14  CD2      -50.0880   24.9440   31.5420 C.ar  144  HIS144      0.1154
     15  CE1      -51.6850   24.1720   30.2510 C.ar  144  HIS144      0.1986
     16  NE2      -50.8010   25.1440   30.3850 N.ar  144  HIS144     -0.2212
     17  N        -45.4430   19.3550   33.9470 N.3   147  TRP147     -0.1241
     18  CA       -44.3040   20.1990   33.5810 C.3   147  TRP147      0.1605
     19  C        -43.7160   20.8870   34.8090 C.2   147  TRP147      0.2264
     20  O        -42.4880   20.9450   34.9760 O.2   147  TRP147     -0.2867
     21  CB       -44.7120   21.2460   32.5430 C.3   147  TRP147      0.0550
     22  CG       -45.3010   20.7230   31.2570 C.ar  147  TRP147      0.0003
     23  CD1      -45.0600   19.5230   30.6560 C.ar  147  TRP147      0.0946
     24  CD2      -46.2560   21.4050   30.4270 C.ar  147  TRP147      0.0152
     25  NE1      -45.7960   19.4250   29.4900 N.ar  147  TRP147     -0.2442
     26  CE2      -46.5400   20.5660   29.3350 C.ar  147  TRP147      0.0810
     27  CE3      -46.8960   22.6510   30.5050 C.ar  147  TRP147      0.0012
     28  CZ2      -47.4410   20.9340   28.3210 C.ar  147  TRP147      0.0191
     29  CZ3      -47.7930   23.0130   29.4970 C.ar  147  TRP147      0.0001
     30  CH2      -48.0550   22.1570   28.4240 C.ar  147  TRP147      0.0015
     31  N        -39.9860   20.4090   36.8690 N.3   151  ALA151     -0.1245
     32  CA       -39.0650   21.4440   37.3050 C.3   151  ALA151      0.1562
     33  C        -38.6310   21.2220   38.7500 C.2   151  ALA151      0.2260
     34  O        -37.4570   21.4150   39.0880 O.2   151  ALA151     -0.2867
     35  CB       -39.7000   22.8330   37.1210 C.3   151  ALA151      0.0290
     36  N        -28.0130   32.7880   41.0350 N.3   200  PHE200     -0.1241
     37  CA       -29.2300   31.9950   40.9220 C.3   200  PHE200      0.1605
     38  C        -29.8670   31.7260   42.2780 C.2   200  PHE200      0.2264
     39  O        -31.0720   31.4560   42.3360 O.2   200  PHE200     -0.2867
     40  CB       -28.9260   30.7040   40.1540 C.3   200  PHE200      0.0534
     41  CG       -28.7360   30.9490   38.6890 C.ar  200  PHE200     -0.0203
     42  CD1      -29.8270   31.0010   37.8480 C.ar  200  PHE200     -0.0042
     43  CD2      -27.4800   31.2170   38.1750 C.ar  200  PHE200     -0.0042
     44  CE1      -29.6720   31.2720   36.5010 C.ar  200  PHE200     -0.0003
     45  CE2      -27.3140   31.4820   36.8320 C.ar  200  PHE200     -0.0003
     46  CZ       -28.4210   31.5130   35.9920 C.ar  200  PHE200     -0.0000
     47  N        -51.0840   32.0000   34.9220 N.3   266  ARG266     -0.1245
     48  CA       -49.8040   31.8810   34.2220 C.3   266  ARG266      0.1563
     49  C        -48.6780   32.5870   34.9780 C.2   266  ARG266      0.2260
     50  O        -47.5680   32.0520   35.0930 O.2   266  ARG266     -0.2867
     51  CB       -49.9280   32.4460   32.8020 C.3   266  ARG266      0.0307
     52  CG       -50.9890   31.7500   31.9680 C.3   266  ARG266      0.0489
     53  CD       -50.8970   32.1210   30.5010 C.3   266  ARG266      0.2205
     54  NE       -51.9000   31.3830   29.7330 N.pl3 266  ARG266     -0.0865
     55  CZ       -51.7430   30.1370   29.2890 C.cat 266  ARG266      0.5346
     56  NH1      -50.6160   29.4800   29.5300 N.pl3 266  ARG266      0.1354
     57  NH2      -52.7180   29.5380   28.6070 N.pl3 266  ARG266      0.1354
     58  N        -47.9050   30.2540   37.8270 N.3   269  TRP269     -0.1227
     59  CA       -47.2320   29.0470   37.3630 C.3   269  TRP269      0.1737
     60  C        -45.7470   29.2970   37.1660 C.2   269  TRP269      0.2595
     61  O        -44.8920   28.5580   37.6900 O.2   269  TRP269     -0.2718
     62  CB       -47.8810   28.5770   36.0470 C.3   269  TRP269      0.0564
     63  CG       -47.4800   27.1570   35.6610 C.ar  269  TRP269      0.0003
     64  CD1      -48.1100   26.0090   36.0370 C.ar  269  TRP269      0.0946
     65  CD2      -46.3690   26.7550   34.8470 C.ar  269  TRP269      0.0152
     66  NE1      -47.4720   24.9110   35.5020 N.ar  269  TRP269     -0.2442
     67  CE2      -46.3910   25.3400   34.7770 C.ar  269  TRP269      0.0810
     68  CE3      -45.3330   27.4470   34.1970 C.ar  269  TRP269      0.0012
     69  CZ2      -45.4350   24.6070   34.0620 C.ar  269  TRP269      0.0191
     70  CZ3      -44.3760   26.7070   33.4810 C.ar  269  TRP269      0.0001
     71  CH2      -44.4330   25.3080   33.4300 C.ar  269  TRP269      0.0015
     72  N        -45.4150   30.3570   36.4210 N.am  270  TRP270     -0.1976
     73  CA       -44.0170   30.6190   36.1090 C.3   270  TRP270      0.1640
     74  C        -43.2450   31.0410   37.3430 C.2   270  TRP270      0.2290
     75  O        -42.0870   30.6280   37.5280 O.2   270  TRP270     -0.2864
     76  CB       -43.9040   31.6660   34.9990 C.3   270  TRP270      0.0576
     77  CG       -44.1360   31.0620   33.6450 C.ar  270  TRP270      0.0006
     78  CD1      -45.2640   31.1630   32.8710 C.ar  270  TRP270      0.0946
     79  CD2      -43.2230   30.2410   32.9170 C.ar  270  TRP270      0.0152
     80  NE1      -45.0950   30.4650   31.6940 N.ar  270  TRP270     -0.2442
     81  CE2      -43.8570   29.8790   31.7050 C.ar  270  TRP270      0.0810
     82  CE3      -41.9310   29.7610   33.1780 C.ar  270  TRP270      0.0012
     83  CZ2      -43.2350   29.0800   30.7470 C.ar  270  TRP270      0.0191
     84  CZ3      -41.3140   28.9660   32.2280 C.ar  270  TRP270      0.0001
     85  CH2      -41.9620   28.6360   31.0210 C.ar  270  TRP270      0.0015
     86  N        -42.4780   27.8660   39.3040 N.3   273  VAL273     -0.1231
     87  CA       -41.5800   27.0110   38.5350 C.3   273  VAL273      0.1692
     88  C        -40.1810   27.5980   38.4810 C.2   273  VAL273      0.2591
     89  O        -39.1760   26.8730   38.6020 O.2   273  VAL273     -0.2718
     90  CB       -42.1560   26.7830   37.1230 C.3   273  VAL273      0.0266
     91  CG1      -41.0440   26.3770   36.1130 C.3   273  VAL273      0.0020
     92  CG2      -43.2310   25.7080   37.1780 C.3   273  VAL273      0.0020
     93  N        -40.0820   28.9160   38.3000 N.am  274  LEU274     -0.1980
     94  CA       -38.7570   29.5130   38.2470 C.3   274  LEU274      0.1596
     95  C        -38.0440   29.4190   39.5870 C.2   274  LEU274      0.2287
     96  O        -36.8040   29.4050   39.6060 O.2   274  LEU274     -0.2864
     97  CB       -38.8350   30.9670   37.7470 C.3   274  LEU274      0.0297
     98  CG       -39.2670   30.9900   36.2610 C.3   274  LEU274      0.0022
     99  CD1      -39.4550   32.4000   35.7210 C.3   274  LEU274      0.0001
    100  CD2      -38.2670   30.2100   35.3930 C.3   274  LEU274      0.0001
    101  N        -36.3430   26.0000   39.0590 N.3   277  ILE277     -0.1245
    102  CA       -35.3780   26.0370   37.9600 C.3   277  ILE277      0.1561
    103  C        -34.1140   26.7800   38.3780 C.2   277  ILE277      0.2260
    104  O        -32.9980   26.2770   38.2130 O.2   277  ILE277     -0.2867
    105  CB       -35.9860   26.6790   36.7090 C.3   277  ILE277      0.0252
    106  CG1      -37.1370   25.8350   36.1710 C.3   277  ILE277      0.0019
    107  CG2      -34.9130   26.8440   35.6420 C.3   277  ILE277      0.0019
    108  CD1      -36.6650   24.4850   35.7120 C.3   277  ILE277      0.0001
    109  N        -30.1950   25.3200   38.8590 N.3   281  ILE281     -0.1245
    110  CA       -29.0470   25.8900   38.1390 C.3   281  ILE281      0.1561
    111  C        -27.9890   26.3800   39.1280 C.2   281  ILE281      0.2260
    112  O        -26.7860   26.0960   38.9780 O.2   281  ILE281     -0.2867
    113  CB       -29.5000   27.0270   37.2030 C.3   281  ILE281      0.0252
    114  CG1      -30.2710   26.4720   35.9970 C.3   281  ILE281      0.0019
    115  CG2      -28.2890   27.9030   36.7630 C.3   281  ILE281      0.0019
    116  CD1      -31.0420   27.5480   35.1930 C.3   281  ILE281      0.0001
@<TRIPOS>BOND
     1     6     5    1
     2    28    30   ar
     3    28    26   ar
     4    30    29   ar
     5    57    55    1
     6     5     2    1
     7    55    56    1
     8    55    54    2
     9    26    25   ar
    10    26    24   ar
    11     2     1    1
    12     2     3    1
    13    25    23   ar
    14    29    27   ar
    15    54    53    1
    16    15    16   ar
    17    15    13   ar
    18    16    14   ar
    19    24    27   ar
    20    24    22   ar
    21    53    52    1
    22     3     4    2
    23    23    22   ar
    24    83    85   ar
    25    83    81   ar
    26    85    84   ar
    27    22    21    1
    28    13    12   ar
    29    14    12   ar
    30    80    81   ar
    31    80    78   ar
    32    81    79   ar
    33    52    51    1
    34    12    11    1
    35    84    82   ar
    36     7     8    1
    37    21    18    1
    38    51    48    1
    39    78    77   ar
    40    79    82   ar
    41    79    77   ar
    42     8    11    1
    43     8     9    1
    44    71    70   ar
    45    71    69   ar
    46    70    68   ar
    47    18    17    1
    48    18    19    1
    49    77    76    1
    50    69    67   ar
    51    68    65   ar
    52    48    47    1
    53    48    49    1
    54     9    10    2
    55    67    65   ar
    56    67    66   ar
    57    19    20    2
    58    65    63   ar
    59    49    50    2
    60    76    73    1
    61   116   114    1
    62   100    98    1
    63    66    64   ar
    64   107   105    1
    65    63    64   ar
    66    63    62    1
    67   108   106    1
    68    99    98    1
    69    46    44   ar
    70    46    45   ar
    71   114   113    1
    72    62    59    1
    73    73    72    1
    74    73    74    1
    75    91    90    1
    76   106   105    1
    77    98    97    1
    78    72    60   am
    79    44    42   ar
    80   105   102    1
    81   115   113    1
    82    45    43   ar
    83    31    32    1
    84    35    32    1
    85    90    92    1
    86    90    87    1
    87    60    59    1
    88    60    61    2
    89   113   110    1
    90    32    33    1
    91    74    75    2
    92    59    58    1
    93    97    94    1
    94    42    41   ar
    95   102   103    1
    96   102   101    1
    97   110   109    1
    98   110   111    1
    99    43    41   ar
   100   104   103    2
   101    94    93    1
   102    94    95    1
   103    93    88   am
   104    88    87    1
   105    88    89    2
   106    87    86    1
   107    41    40    1
   108    33    34    2
   109   112   111    2
   110    95    96    2
   111    40    37    1
   112    37    36    1
   113    37    38    1
   114    38    39    2
