@<TRIPOS>MOLECULE
tmp/5y5sB15.pdb
 131 126 0 0 0
SMALL
GASTEIGER

@<TRIPOS>ATOM
      1  N        -36.9410   57.7050   47.7290 N.3    46  VAL46      -0.1245
      2  CA       -36.1130   57.2630   46.6060 C.3    46  VAL46       0.1561
      3  C        -34.9880   58.2610   46.3390 C.2    46  VAL46       0.2260
      4  O        -33.8250   57.8810   46.1250 O.2    46  VAL46      -0.2867
      5  CB       -36.9860   57.0360   45.3560 C.3    46  VAL46       0.0252
      6  CG1      -36.1290   56.8270   44.1250 C.3    46  VAL46       0.0019
      7  CG2      -37.9290   55.8260   45.5650 C.3    46  VAL46       0.0019
      8  N        -32.3230   57.9260   48.7900 N.3    49  ILE49      -0.1231
      9  CA       -31.5060   56.7560   48.4660 C.3    49  ILE49       0.1692
     10  C        -30.4480   57.1310   47.4310 C.2    49  ILE49       0.2591
     11  O        -29.2640   56.8150   47.5830 O.2    49  ILE49      -0.2718
     12  CB       -32.4030   55.5910   47.9860 C.3    49  ILE49       0.0266
     13  CG1      -33.1500   54.9460   49.1630 C.3    49  ILE49       0.0019
     14  CG2      -31.5950   54.5180   47.2460 C.3    49  ILE49       0.0020
     15  CD1      -32.2590   54.1320   50.0770 C.3    49  ILE49       0.0001
     16  N        -30.8570   57.8560   46.3850 N.am   50  VAL50      -0.1980
     17  CA       -29.9240   58.2670   45.3410 C.3    50  VAL50       0.1595
     18  C        -28.9040   59.2560   45.8990 C.2    50  VAL50       0.2287
     19  O        -27.7160   59.2120   45.5510 O.2    50  VAL50      -0.2864
     20  CB       -30.6960   58.8480   44.1410 C.3    50  VAL50       0.0276
     21  CG1      -29.7420   59.4280   43.1090 C.3    50  VAL50       0.0022
     22  CG2      -31.5400   57.7770   43.5070 C.3    50  VAL50       0.0022
     23  N        -26.4100   57.1200   47.8180 N.3    53  ALA53      -0.1245
     24  CA       -25.4740   56.5340   46.8610 C.3    53  ALA53       0.1562
     25  C        -24.4680   57.5660   46.3440 C.2    53  ALA53       0.2260
     26  O        -23.3030   57.2310   46.0990 O.2    53  ALA53      -0.2867
     27  CB       -26.2370   55.9180   45.6880 C.3    53  ALA53       0.0290
     28  N        -18.2990   61.7320   48.7450 N.3    60  PRO60      -0.2102
     29  CA       -18.3430   61.4080   47.3060 C.3    60  PRO60       0.1504
     30  C        -16.9760   61.2760   46.6560 C.2    60  PRO60       0.2576
     31  O        -16.8800   60.6970   45.5620 O.2    60  PRO60      -0.2718
     32  CB       -19.1350   62.5790   46.7060 C.3    60  PRO60       0.0282
     33  CG       -18.9630   63.7080   47.7040 C.3    60  PRO60       0.0208
     34  CD       -18.8940   63.0450   49.0490 C.3    60  PRO60       0.0893
     35  N        -15.9220   61.7820   47.2920 N.am   61  THR61      -0.1939
     36  CA       -14.5790   61.7170   46.7380 C.3    61  THR61       0.2028
     37  C        -13.8260   60.4510   47.1330 C.2    61  THR61       0.2642
     38  O        -12.7560   60.1900   46.5810 O.2    61  THR61      -0.2714
     39  CB       -13.7700   62.9450   47.1710 C.3    61  THR61       0.1808
     40  OG1      -13.5010   62.8830   48.5810 O.3    61  THR61      -0.2208
     41  CG2      -14.5460   64.2120   46.8630 C.3    61  THR61       0.0379
     42  N        -14.3540   59.6570   48.0560 N.am   62  SER62      -0.1949
     43  CA       -13.6130   58.4860   48.4880 C.3    62  SER62       0.1924
     44  C        -13.8450   57.3260   47.5240 C.2    62  SER62       0.2314
     45  O        -14.7580   57.3380   46.6860 O.2    62  SER62      -0.2863
     46  CB       -13.9990   58.0980   49.9120 C.3    62  SER62       0.2116
     47  OG       -15.1900   57.3350   49.9280 O.3    62  SER62      -0.2180
     48  N        -17.4030   55.4350   47.4650 N.3    65  GLN65      -0.1231
     49  CA       -18.6260   55.8850   46.8140 C.3    65  GLN65       0.1698
     50  C        -18.7680   55.1760   45.4760 C.2    65  GLN65       0.2593
     51  O        -17.7940   55.0140   44.7350 O.2    65  GLN65      -0.2718
     52  CB       -18.6340   57.3980   46.6170 C.3    65  GLN65       0.0381
     53  CG       -19.9770   57.9730   46.1250 C.3    65  GLN65       0.0905
     54  CD       -20.1390   57.9090   44.6090 C.2    65  GLN65       0.2608
     55  OE1      -19.1680   57.9900   43.8730 O.2    65  GLN65      -0.2717
     56  NE2      -21.3670   57.7420   44.1470 N.am   65  GLN65      -0.0878
     57  N        -19.9860   54.7480   45.1720 N.am   66  THR66      -0.1939
     58  CA       -20.2110   53.9170   44.0020 C.3    66  THR66       0.2028
     59  C        -21.6790   54.0030   43.5990 C.2    66  THR66       0.2642
     60  O        -22.5710   54.1040   44.4480 O.2    66  THR66      -0.2714
     61  CB       -19.7920   52.4590   44.2860 C.3    66  THR66       0.1808
     62  OG1      -20.0500   51.6430   43.1390 O.3    66  THR66      -0.2208
     63  CG2      -20.5470   51.9150   45.4770 C.3    66  THR66       0.0379
     64  N        -21.9130   54.0110   42.2940 N.am   67  TYR67      -0.1959
     65  CA       -23.2450   53.8420   41.7370 C.3    67  TYR67       0.1771
     66  C        -23.4740   52.4130   41.2360 C.2    67  TYR67       0.2620
     67  O        -24.4950   52.1390   40.6040 O.2    67  TYR67      -0.2715
     68  CB       -23.4750   54.8530   40.6100 C.3    67  TYR67       0.0574
     69  CG       -23.7270   56.2860   41.0480 C.ar   67  TYR67      -0.0198
     70  CD1      -24.7980   56.6050   41.8730 C.ar   67  TYR67      -0.0009
     71  CD2      -22.9160   57.3250   40.5930 C.ar   67  TYR67      -0.0009
     72  CE1      -25.0470   57.9270   42.2500 C.ar   67  TYR67       0.0417
     73  CE2      -23.1460   58.6470   40.9650 C.ar   67  TYR67       0.0417
     74  CZ       -24.2110   58.9440   41.7960 C.ar   67  TYR67       0.1957
     75  OH       -24.4580   60.2560   42.1490 O.3    67  TYR67      -0.2866
     76  N        -22.5460   51.4970   41.4970 N.am   68  ASN68      -0.1958
     77  CA       -22.7810   50.0990   41.1470 C.3    68  ASN68       0.1819
     78  C        -24.0200   49.5950   41.8720 C.2    68  ASN68       0.2621
     79  O        -24.1170   49.6830   43.1030 O.2    68  ASN68      -0.2715
     80  CB       -21.5580   49.2500   41.5040 C.3    68  ASN68       0.1195
     81  CG       -21.7600   47.7710   41.2000 C.2    68  ASN68       0.2630
     82  OD1      -22.5230   47.0820   41.8810 O.2    68  ASN68      -0.2716
     83  ND2      -21.0440   47.2700   40.1980 N.am   68  ASN68      -0.0877
     84  N        -24.9640   49.0560   41.0940 N.am   69  LEU69      -0.1977
     85  CA       -26.2880   48.7290   41.6190 C.3    69  LEU69       0.1596
     86  C        -26.2220   47.7190   42.7510 C.2    69  LEU69       0.2287
     87  O        -27.0240   47.7930   43.6950 O.2    69  LEU69      -0.2864
     88  CB       -27.1680   48.1790   40.4990 C.3    69  LEU69       0.0297
     89  CG       -28.6540   48.0200   40.8010 C.3    69  LEU69       0.0022
     90  CD1      -29.2790   49.3850   41.0360 C.3    69  LEU69       0.0001
     91  CD2      -29.3580   47.2820   39.6650 C.3    69  LEU69       0.0001
     92  N        -24.2890   49.6950   46.1140 N.3    72  ILE72      -0.1245
     93  CA       -24.8470   50.8360   46.8290 C.3    72  ILE72       0.1561
     94  C        -25.4050   50.3720   48.1620 C.2    72  ILE72       0.2260
     95  O        -26.1180   49.3610   48.2390 O.2    72  ILE72      -0.2867
     96  CB       -25.9290   51.5240   45.9880 C.3    72  ILE72       0.0252
     97  CG1      -25.3080   52.2370   44.7900 C.3    72  ILE72       0.0019
     98  CG2      -26.6650   52.5260   46.8290 C.3    72  ILE72       0.0019
     99  CD1      -26.3570   52.7380   43.8170 C.3    72  ILE72       0.0001
    100  N        -27.0180   52.1120   51.9420 N.3    74  ILE74      -0.1245
    101  CA       -27.3450   53.1490   52.9200 C.3    74  ILE74       0.1561
    102  C        -27.5830   52.4670   54.2640 C.2    74  ILE74       0.2260
    103  O        -28.5430   51.6940   54.4240 O.2    74  ILE74      -0.2867
    104  CB       -28.5780   53.9740   52.5100 C.3    74  ILE74       0.0252
    105  CG1      -28.2970   54.8330   51.2660 C.3    74  ILE74       0.0019
    106  CG2      -28.9620   54.9110   53.6450 C.3    74  ILE74       0.0019
    107  CD1      -28.4680   54.0960   49.9470 C.3    74  ILE74       0.0001
    108  N        -30.0130   49.4670   53.7460 N.3   156  TYR156     -0.1227
    109  CA       -30.7370   49.5310   52.4690 C.3   156  TYR156      0.1736
    110  C        -29.7030   49.4510   51.3510 C.2   156  TYR156      0.2596
    111  O        -29.2000   50.4590   50.8690 O.2   156  TYR156     -0.2718
    112  CB       -31.6120   50.7800   52.3830 C.3   156  TYR156      0.0548
    113  CG       -32.6530   50.8170   53.4760 C.ar  156  TYR156     -0.0200
    114  CD1      -33.1390   49.6370   54.0370 C.ar  156  TYR156     -0.0009
    115  CD2      -33.1610   52.0290   53.9440 C.ar  156  TYR156     -0.0009
    116  CE1      -34.1080   49.6510   55.0470 C.ar  156  TYR156      0.0417
    117  CE2      -34.1350   52.0660   54.9430 C.ar  156  TYR156      0.0417
    118  CZ       -34.6000   50.8830   55.4880 C.ar  156  TYR156      0.1957
    119  OH       -35.5370   50.9360   56.4980 O.3   156  TYR156     -0.2866
    120  N        -29.3850   48.2180   50.9610 N.am  157  GLY157     -0.1942
    121  CA       -28.4270   47.9040   49.9200 C.3   157  GLY157      0.2014
    122  C        -28.7180   46.5170   49.3800 C.2   157  GLY157      0.2638
    123  O        -29.0360   45.6120   50.1410 O.2   157  GLY157     -0.2714
    124  N        -28.6550   46.3580   48.0600 N.am  158  ILE158     -0.1977
    125  CA       -29.1310   45.1380   47.4240 C.3   158  ILE158      0.1596
    126  C        -28.3520   43.9210   47.9300 C.2   158  ILE158      0.2287
    127  O        -28.9520   42.9120   48.3220 O.2   158  ILE158     -0.2864
    128  CB       -29.0700   45.2910   45.8930 C.3   158  ILE158      0.0276
    129  CG1      -30.2220   46.1970   45.4280 C.3   158  ILE158      0.0022
    130  CG2      -29.1540   43.9390   45.2080 C.3   158  ILE158      0.0022
    131  CD1      -30.1910   46.5090   43.9520 C.3   158  ILE158      0.0001
@<TRIPOS>BOND
     1    91    89    1
     2    83    81   am
     3    88    89    1
     4    88    85    1
     5    71    73   ar
     6    71    69   ar
     7    67    66    2
     8    68    69    1
     9    68    65    1
    10    89    90    1
    11    73    74   ar
    12    69    70   ar
    13    84    85    1
    14    84    78   am
    15    77    76    1
    16    77    80    1
    17    77    78    1
    18    81    80    1
    19    81    82    2
    20    66    76   am
    21    66    65    1
    22    85    86    1
    23    65    64    1
    24    74    75    1
    25    74    72   ar
    26    78    79    2
    27    70    72   ar
    28    64    59   am
    29    86    87    2
    30    21    20    1
    31    62    61    1
    32    22    20    1
    33    59    58    1
    34    59    60    2
    35    99    97    1
    36    55    54    2
    37   131   129    1
    38    58    61    1
    39    58    57    1
    40     6     5    1
    41    20    17    1
    42    56    54   am
    43    61    63    1
    44    54    53    1
    45    51    50    2
    46    97    96    1
    47    57    50   am
    48   130   128    1
    49    17    18    1
    50    17    16    1
    51     5     7    1
    52     5     2    1
    53   129   128    1
    54    50    49    1
    55    19    18    2
    56    31    30    2
    57    27    24    1
    58   128   125    1
    59    96    93    1
    60    96    98    1
    61    26    25    2
    62    92    93    1
    63    53    52    1
    64     4     3    2
    65     3     2    1
    66    25    24    1
    67    16    10   am
    68    38    37    2
    69     2     1    1
    70    52    49    1
    71    30    35   am
    72    30    29    1
    73    45    44    2
    74    32    29    1
    75    32    33    1
    76    36    37    1
    77    36    39    1
    78    36    35    1
    79    49    48    1
    80    93    94    1
    81    24    23    1
    82    41    39    1
    83    37    42   am
    84    39    40    1
    85    14    12    1
    86    29    28    1
    87   125   126    1
    88   125   124    1
    89    10    11    2
    90    10     9    1
    91    44    43    1
    92    33    34    1
    93   126   127    2
    94    12     9    1
    95    12    13    1
    96    42    43    1
    97   124   122   am
    98    94    95    2
    99     9     8    1
   100    43    46    1
   101    28    34    1
   102    13    15    1
   103   122   121    1
   104   122   123    2
   105    46    47    1
   106   121   120    1
   107   107   105    1
   108   111   110    2
   109   120   110   am
   110   105   104    1
   111   110   109    1
   112   100   101    1
   113   112   109    1
   114   112   113    1
   115   109   108    1
   116   104   101    1
   117   104   106    1
   118   101   102    1
   119   113   115   ar
   120   113   114   ar
   121   115   117   ar
   122   114   116   ar
   123   102   103    2
   124   117   118   ar
   125   116   118   ar
   126   118   119    1
