@<TRIPOS>MOLECULE
tmp/5y5sU01.pdb
 89 84 0 0 0
SMALL
GASTEIGER

@<TRIPOS>ATOM
      1  N        -68.6550   -1.2990   69.2170 N.3    14  ASP14      -0.1239
      2  CA       -68.7560   -2.0920   67.9900 C.3    14  ASP14       0.1674
      3  C        -67.7910   -3.2710   68.0410 C.2    14  ASP14       0.2266
      4  O        -66.5780   -3.0570   68.1390 O.2    14  ASP14      -0.2867
      5  CB       -68.4700   -1.2070   66.7750 C.3    14  ASP14       0.1410
      6  CG       -68.4120   -1.9890   65.4600 C.2    14  ASP14       0.3668
      7  OD1      -68.8210   -3.1700   65.4120 O.co2  14  ASP14      -0.2456
      8  OD2      -67.9500   -1.4110   64.4570 O.co2  14  ASP14      -0.2456
      9  N        -66.6830   -5.1080   65.6730 N.3    16  ARG16      -0.1231
     10  CA       -65.7330   -5.0240   64.5640 C.3    16  ARG16       0.1694
     11  C        -64.6070   -4.0500   64.8690 C.2    16  ARG16       0.2591
     12  O        -63.4220   -4.3860   64.7290 O.2    16  ARG16      -0.2718
     13  CB       -66.4420   -4.5990   63.2830 C.3    16  ARG16       0.0321
     14  CG       -67.1730   -5.7030   62.5700 C.3    16  ARG16       0.0489
     15  CD       -67.8730   -5.1550   61.3490 C.3    16  ARG16       0.2205
     16  NE       -68.8120   -4.1010   61.7110 N.pl3  16  ARG16      -0.0865
     17  CZ       -69.4770   -3.3610   60.8330 C.cat  16  ARG16       0.5346
     18  NH1      -69.3070   -3.5590   59.5330 N.pl3  16  ARG16       0.1354
     19  NH2      -70.3100   -2.4230   61.2550 N.pl3  16  ARG16       0.1354
     20  N        -64.9570   -2.8150   65.2460 N.am   17  ARG17      -0.1980
     21  CA       -63.9080   -1.8360   65.5090 C.3    17  ARG17       0.1597
     22  C        -63.0300   -2.2620   66.6750 C.2    17  ARG17       0.2287
     23  O        -61.8310   -1.9830   66.6710 O.2    17  ARG17      -0.2864
     24  CB       -64.4990   -0.4540   65.7800 C.3    17  ARG17       0.0334
     25  CG       -63.4290    0.6200   65.9160 C.3    17  ARG17       0.0492
     26  CD       -64.0250    1.9910   66.1500 C.3    17  ARG17       0.2205
     27  NE       -64.9830    2.3490   65.1080 N.pl3  17  ARG17      -0.0865
     28  CZ       -64.6960    3.1210   64.0650 C.cat  17  ARG17       0.5346
     29  NH1      -63.4770    3.6270   63.9280 N.pl3  17  ARG17       0.1354
     30  NH2      -65.6300    3.3920   63.1630 N.pl3  17  ARG17       0.1354
     31  N        -60.5710   -5.0670   65.3870 N.3    20  VAL20      -0.1231
     32  CA       -59.5570   -4.4420   64.5470 C.3    20  VAL20       0.1692
     33  C        -58.5820   -3.6330   65.3930 C.2    20  VAL20       0.2592
     34  O        -57.3640   -3.6760   65.1730 O.2    20  VAL20      -0.2718
     35  CB       -60.2420   -3.5860   63.4690 C.3    20  VAL20       0.0266
     36  CG1      -59.2350   -2.7010   62.7580 C.3    20  VAL20       0.0020
     37  CG2      -60.9800   -4.4940   62.4860 C.3    20  VAL20       0.0020
     38  N        -59.0950   -2.8970   66.3810 N.am   21  SER21      -0.1952
     39  CA       -58.2260   -2.0820   67.2260 C.3    21  SER21       0.1924
     40  C        -57.2900   -2.9480   68.0630 C.2    21  SER21       0.2314
     41  O        -56.0990   -2.6450   68.1850 O.2    21  SER21      -0.2863
     42  CB       -59.0730   -1.1840   68.1260 C.3    21  SER21       0.2116
     43  OG       -59.8190   -0.2640   67.3510 O.3    21  SER21      -0.2180
     44  N        -56.2650   -6.0000   67.3910 N.3    23  VAL23      -0.1231
     45  CA       -55.2680   -6.5770   66.4940 C.3    23  VAL23       0.1692
     46  C        -54.2030   -5.5470   66.1440 C.2    23  VAL23       0.2592
     47  O        -53.0010   -5.8170   66.2410 O.2    23  VAL23      -0.2718
     48  CB       -55.9390   -7.1430   65.2320 C.3    23  VAL23       0.0266
     49  CG1      -54.8830   -7.4040   64.1520 C.3    23  VAL23       0.0020
     50  CG2      -56.6940   -8.4150   65.5780 C.3    23  VAL23       0.0020
     51  N        -54.6260   -4.3490   65.7320 N.am   24  ALA24      -0.1966
     52  CA       -53.6600   -3.3070   65.3870 C.3    24  ALA24       0.1728
     53  C        -52.7900   -2.9450   66.5840 C.2    24  ALA24       0.2616
     54  O        -51.5590   -2.8650   66.4720 O.2    24  ALA24      -0.2715
     55  CB       -54.3820   -2.0620   64.8550 C.3    24  ALA24       0.0334
     56  N        -53.4200   -2.7210   67.7440 N.am   25  PHE25      -0.1974
     57  CA       -52.6690   -2.3440   68.9370 C.3    25  PHE25       0.1639
     58  C        -51.6670   -3.4210   69.3250 C.2    25  PHE25       0.2290
     59  O        -50.5160   -3.1150   69.6700 O.2    25  PHE25      -0.2864
     60  CB       -53.6160   -2.0850   70.1040 C.3    25  PHE25       0.0560
     61  CG       -52.9190   -1.9790   71.4370 C.ar   25  PHE25      -0.0200
     62  CD1      -52.0000   -0.9660   71.6730 C.ar   25  PHE25      -0.0042
     63  CD2      -53.1800   -2.8860   72.4490 C.ar   25  PHE25      -0.0042
     64  CE1      -51.3660   -0.8570   72.8980 C.ar   25  PHE25      -0.0003
     65  CE2      -52.5460   -2.7830   73.6720 C.ar   25  PHE25      -0.0003
     66  CZ       -51.6390   -1.7570   73.8950 C.ar   25  PHE25      -0.0000
     67  N        -50.1700   -5.7620   67.5420 N.3    27  ILE27      -0.1231
     68  CA       -49.0450   -5.8860   66.6200 C.3    27  ILE27       0.1692
     69  C        -48.0130   -4.7990   66.8980 C.2    27  ILE27       0.2591
     70  O        -46.8100   -5.0670   67.0210 O.2    27  ILE27      -0.2718
     71  CB       -49.5510   -5.8340   65.1660 C.3    27  ILE27       0.0266
     72  CG1      -50.3470   -7.1020   64.8260 C.3    27  ILE27       0.0019
     73  CG2      -48.4060   -5.5970   64.1770 C.3    27  ILE27       0.0020
     74  CD1      -50.9440   -7.0840   63.4390 C.3    27  ILE27       0.0001
     75  N        -48.4740   -3.5560   67.0100 N.am   28  VAL28      -0.1980
     76  CA       -47.5730   -2.4390   67.2750 C.3    28  VAL28       0.1595
     77  C        -46.8690   -2.6280   68.6110 C.2    28  VAL28       0.2287
     78  O        -45.6650   -2.3910   68.7330 O.2    28  VAL28      -0.2864
     79  CB       -48.3580   -1.1110   67.2160 C.3    28  VAL28       0.0276
     80  CG1      -47.5630    0.0440   67.8520 C.3    28  VAL28       0.0022
     81  CG2      -48.6960   -0.7830   65.7740 C.3    28  VAL28       0.0022
     82  N        -44.1520   -5.2000   68.2400 N.3    31  LEU31      -0.1245
     83  CA       -42.9680   -4.6380   67.6020 C.3    31  LEU31       0.1561
     84  C        -42.2020   -3.7460   68.5690 C.2    31  LEU31       0.2260
     85  O        -40.9620   -3.7700   68.6080 O.2    31  LEU31      -0.2867
     86  CB       -43.3720   -3.8600   66.3510 C.3    31  LEU31       0.0270
     87  CG       -43.9900   -4.7140   65.2340 C.3    31  LEU31       0.0019
     88  CD1      -44.7260   -3.8420   64.2200 C.3    31  LEU31       0.0001
     89  CD2      -42.8860   -5.4910   64.5320 C.3    31  LEU31       0.0001
@<TRIPOS>BOND
     1    18    17    1
     2    17    19    1
     3    17    16    2
     4    15    16    1
     5    15    14    1
     6    37    35    1
     7    14    13    1
     8    36    35    1
     9    30    28    1
    10    13    10    1
    11    74    72    1
    12    35    32    1
    13    29    28    1
    14    28    27    2
    15    49    48    1
    16    73    71    1
    17    88    87    1
    18     8     6   ar
    19    89    87    1
    20    32    31    1
    21    32    33    1
    22    10    11    1
    23    10     9    1
    24    12    11    2
    25    72    71    1
    26    55    52    1
    27    11    20   am
    28    27    26    1
    29    71    68    1
    30    34    33    2
    31    48    50    1
    32    48    45    1
    33    87    86    1
    34    20    21    1
    35    52    51    1
    36    52    53    1
    37    33    38   am
    38     7     6   ar
    39     6     5    1
    40    21    24    1
    41    21    22    1
    42    51    46   am
    43    81    79    1
    44    24    25    1
    45    25    26    1
    46    46    47    2
    47    46    45    1
    48    86    83    1
    49    38    39    1
    50    54    53    2
    51    45    44    1
    52    53    56   am
    53    68    69    1
    54    68    67    1
    55    23    22    2
    56     5     2    1
    57    69    75   am
    58    69    70    2
    59    75    76    1
    60    79    76    1
    61    79    80    1
    62    39    40    1
    63    39    42    1
    64    76    77    1
    65    43    42    1
    66    83    82    1
    67    83    84    1
    68    56    57    1
    69     2     3    1
    70     2     1    1
    71     3     4    2
    72    40    41    2
    73    84    85    2
    74    77    78    2
    75    57    58    1
    76    57    60    1
    77    58    59    2
    78    60    61    1
    79    61    62   ar
    80    61    63   ar
    81    62    64   ar
    82    63    65   ar
    83    64    66   ar
    84    65    66   ar
