@<TRIPOS>MOLECULE
tmp/5y5sS05.pdb
 90 85 0 0 0
SMALL
GASTEIGER

@<TRIPOS>ATOM
      1  N        -68.4310  -11.1900   60.3460 N.3    12  ILE12      -0.1231
      2  CA       -68.0990   -9.9730   61.0790 C.3    12  ILE12       0.1692
      3  C        -67.0100   -9.1820   60.3640 C.2    12  ILE12       0.2592
      4  O        -67.1350   -7.9720   60.1530 O.2    12  ILE12      -0.2718
      5  CB       -67.6660  -10.3170   62.5240 C.3    12  ILE12       0.0266
      6  CG1      -68.8150  -10.9400   63.3180 C.3    12  ILE12       0.0019
      7  CG2      -67.1080   -9.1000   63.2460 C.3    12  ILE12       0.0020
      8  CD1      -68.3870  -11.4140   64.6850 C.3    12  ILE12       0.0001
      9  N        -65.9210   -9.8510   60.0020 N.am   13  LEU13      -0.1966
     10  CA       -64.7900   -9.2320   59.3330 C.3    13  LEU13       0.1728
     11  C        -64.7920   -9.6370   57.8640 C.2    13  LEU13       0.2616
     12  O        -64.9180  -10.8250   57.5420 O.2    13  LEU13      -0.2715
     13  CB       -63.4840   -9.6340   60.0230 C.3    13  LEU13       0.0311
     14  CG       -63.4250   -9.2200   61.5030 C.3    13  LEU13       0.0022
     15  CD1      -62.1330   -9.6510   62.1630 C.3    13  LEU13       0.0001
     16  CD2      -63.6060   -7.7190   61.6550 C.3    13  LEU13       0.0001
     17  N        -64.6850   -8.6440   56.9880 N.am   14  ASP14      -0.1971
     18  CA       -64.6890   -8.8180   55.5370 C.3    14  ASP14       0.1709
     19  C        -63.5530   -9.7370   55.0980 C.2    14  ASP14       0.2293
     20  O        -62.3810   -9.4330   55.3730 O.2    14  ASP14      -0.2864
     21  CB       -64.5480   -7.4350   54.8760 C.3    14  ASP14       0.1436
     22  CG       -64.7190   -7.4690   53.3570 C.2    14  ASP14       0.3671
     23  OD1      -64.0280   -8.2510   52.6750 O.co2  14  ASP14      -0.2456
     24  OD2      -65.5530   -6.6970   52.8370 O.co2  14  ASP14      -0.2456
     25  N        -60.7150   -7.7080   52.7820 N.3    17  ARG17      -0.1231
     26  CA       -59.8150   -6.7910   53.4780 C.3    17  ARG17       0.1694
     27  C        -58.8990   -7.5370   54.4450 C.2    17  ARG17       0.2591
     28  O        -57.7540   -7.1210   54.6610 O.2    17  ARG17      -0.2718
     29  CB       -60.6200   -5.7060   54.2010 C.3    17  ARG17       0.0321
     30  CG       -61.2370   -4.6770   53.2460 C.3    17  ARG17       0.0489
     31  CD       -62.1240   -3.6500   53.9500 C.3    17  ARG17       0.2205
     32  NE       -63.3520   -4.2520   54.4770 N.pl3  17  ARG17      -0.0865
     33  CZ       -64.4540   -3.5710   54.7930 C.cat  17  ARG17       0.5346
     34  NH1      -65.5180   -4.2000   55.2740 N.pl3  17  ARG17       0.1354
     35  NH2      -64.4890   -2.2600   54.6390 N.pl3  17  ARG17       0.1354
     36  N        -59.3820   -8.6350   55.0240 N.am   18  VAL18      -0.1980
     37  CA       -58.5620   -9.4110   55.9500 C.3    18  VAL18       0.1595
     38  C        -57.4150  -10.0930   55.2080 C.2    18  VAL18       0.2287
     39  O        -56.2540  -10.0110   55.6270 O.2    18  VAL18      -0.2864
     40  CB       -59.4420  -10.4180   56.7120 C.3    18  VAL18       0.0276
     41  CG1      -58.6230  -11.5850   57.2130 C.3    18  VAL18       0.0022
     42  CG2      -60.1450   -9.7140   57.8680 C.3    18  VAL18       0.0022
     43  N        -54.8360   -7.4510   54.0640 N.3    21  SER21      -0.1202
     44  CA       -54.0720   -6.9360   55.1960 C.3    21  SER21       0.2020
     45  C        -53.0370   -7.9480   55.6640 C.2    21  SER21       0.2618
     46  O        -51.9150   -7.5730   56.0330 O.2    21  SER21      -0.2717
     47  CB       -55.0130   -6.5750   56.3510 C.3    21  SER21       0.2103
     48  OG       -55.9650   -5.5890   55.9680 O.3    21  SER21      -0.2182
     49  N        -53.3990   -9.2330   55.6570 N.am   22  ILE22      -0.1979
     50  CA       -52.4780  -10.2770   56.0880 C.3    22  ILE22       0.1595
     51  C        -51.2510  -10.3030   55.1870 C.2    22  ILE22       0.2287
     52  O        -50.1120  -10.2530   55.6690 O.2    22  ILE22      -0.2864
     53  CB       -53.1830  -11.6450   56.1320 C.3    22  ILE22       0.0276
     54  CG1      -54.1500  -11.7080   57.3120 C.3    22  ILE22       0.0022
     55  CG2      -52.1520  -12.7980   56.2050 C.3    22  ILE22       0.0022
     56  CD1      -55.1460  -12.8780   57.2180 C.3    22  ILE22       0.0001
     57  N        -49.0860   -7.1550   55.6420 N.3    25  PHE25      -0.1241
     58  CA       -48.3640   -7.1690   56.9100 C.3    25  PHE25       0.1605
     59  C        -47.2250   -8.1890   56.8900 C.2    25  PHE25       0.2264
     60  O        -46.1090   -7.8940   57.3280 O.2    25  PHE25      -0.2867
     61  CB       -49.3260   -7.4510   58.0720 C.3    25  PHE25       0.0534
     62  CG       -48.6200   -7.7520   59.3600 C.ar   25  PHE25      -0.0203
     63  CD1      -47.7990   -6.7970   59.9500 C.ar   25  PHE25      -0.0042
     64  CD2      -48.7360   -8.9980   59.9570 C.ar   25  PHE25      -0.0042
     65  CE1      -47.1090   -7.0870   61.1250 C.ar   25  PHE25      -0.0003
     66  CE2      -48.0510   -9.2980   61.1330 C.ar   25  PHE25      -0.0003
     67  CZ       -47.2410   -8.3400   61.7200 C.ar   25  PHE25      -0.0000
     68  N        -44.2010   -6.9920   54.7720 N.3    28  VAL28      -0.1231
     69  CA       -43.4670   -5.9210   55.4440 C.3    28  VAL28       0.1692
     70  C        -42.6930   -6.4590   56.6440 C.2    28  VAL28       0.2591
     71  O        -41.5430   -6.0640   56.9090 O.2    28  VAL28      -0.2718
     72  CB       -44.4550   -4.8170   55.8610 C.3    28  VAL28       0.0266
     73  CG1      -43.8460   -3.9410   56.9180 C.3    28  VAL28       0.0020
     74  CG2      -44.9120   -4.0110   54.6460 C.3    28  VAL28       0.0020
     75  N        -43.3260   -7.3450   57.4100 N.am   29  LEU29      -0.1980
     76  CA       -42.6640   -7.9680   58.5540 C.3    29  LEU29       0.1596
     77  C        -41.4470   -8.7810   58.1150 C.2    29  LEU29       0.2287
     78  O        -40.4230   -8.8000   58.8080 O.2    29  LEU29      -0.2864
     79  CB       -43.6520   -8.8700   59.3040 C.3    29  LEU29       0.0297
     80  CG       -43.1150   -9.6830   60.4900 C.3    29  LEU29       0.0022
     81  CD1      -42.9200   -8.8070   61.7190 C.3    29  LEU29       0.0001
     82  CD2      -44.0050  -10.8880   60.8210 C.3    29  LEU29       0.0001
     83  N        -38.7460   -6.4640   57.3030 N.3    32  LEU32      -0.1245
     84  CA       -38.1860   -5.9370   58.5450 C.3    32  LEU32       0.1561
     85  C        -37.2660   -6.9530   59.2240 C.2    32  LEU32       0.2260
     86  O        -36.1910   -6.5930   59.7050 O.2    32  LEU32      -0.2867
     87  CB       -39.2920   -5.5220   59.5030 C.3    32  LEU32       0.0270
     88  CG       -38.8200   -5.0520   60.8790 C.3    32  LEU32       0.0019
     89  CD1      -37.9140   -3.8190   60.7720 C.3    32  LEU32       0.0001
     90  CD2      -40.0280   -4.7420   61.7560 C.3    32  LEU32       0.0001
@<TRIPOS>BOND
     1    23    22   ar
     2    25    26    1
     3    24    22   ar
     4    30    31    1
     5    30    29    1
     6    22    21    1
     7    26    29    1
     8    26    27    1
     9    31    32    1
    10    43    44    1
    11    27    28    2
    12    27    36   am
    13    32    33    2
    14    35    33    1
    15    74    72    1
    16    68    69    1
    17    33    34    1
    18    21    18    1
    19    36    37    1
    20    19    20    2
    21    19    18    1
    22    51    52    2
    23    51    50    1
    24    44    45    1
    25    44    47    1
    26    38    39    2
    27    38    37    1
    28    69    72    1
    29    69    70    1
    30    18    17    1
    31    57    58    1
    32    49    45   am
    33    49    50    1
    34    45    46    2
    35    72    73    1
    36    37    40    1
    37    48    47    1
    38    50    53    1
    39    53    55    1
    40    53    54    1
    41    70    71    2
    42    70    75   am
    43    40    41    1
    44    40    42    1
    45    59    58    1
    46    59    60    2
    47    58    61    1
    48    17    11   am
    49    56    54    1
    50    83    84    1
    51    75    76    1
    52    12    11    2
    53    11    10    1
    54    61    62    1
    55    77    76    1
    56    77    78    2
    57    84    85    1
    58    84    87    1
    59    76    79    1
    60    85    86    2
    61    79    80    1
    62    10     9    1
    63    10    13    1
    64    62    63   ar
    65    62    64   ar
    66    87    88    1
    67    63    65   ar
    68    64    66   ar
    69     9     3   am
    70    13    14    1
    71     4     3    2
    72     1     2    1
    73     3     2    1
    74    80    82    1
    75    80    81    1
    76    89    88    1
    77    88    90    1
    78     2     5    1
    79    65    67   ar
    80    66    67   ar
    81    14    16    1
    82    14    15    1
    83     5     7    1
    84     5     6    1
    85     6     8    1
