@<TRIPOS>MOLECULE
tmp/5y5sC05.pdb
 86 80 0 0 0
SMALL
GASTEIGER

@<TRIPOS>ATOM
      1  N        -36.2170   18.1900   38.6840 N.3   154  PHE154     -0.1241
      2  CA       -34.9190   18.6990   38.2590 C.3   154  PHE154      0.1605
      3  C        -34.0830   19.1800   39.4490 C.2   154  PHE154      0.2264
      4  O        -32.9270   18.7650   39.6270 O.2   154  PHE154     -0.2867
      5  CB       -35.1400   19.8310   37.2460 C.3   154  PHE154      0.0534
      6  CG       -33.9140   20.6480   36.9650 C.ar  154  PHE154     -0.0203
      7  CD1      -32.8170   20.0860   36.3170 C.ar  154  PHE154     -0.0042
      8  CD2      -33.8480   21.9830   37.3510 C.ar  154  PHE154     -0.0042
      9  CE1      -31.6730   20.8460   36.0630 C.ar  154  PHE154     -0.0003
     10  CE2      -32.7310   22.7490   37.0850 C.ar  154  PHE154     -0.0003
     11  CZ       -31.6190   22.1760   36.4450 C.ar  154  PHE154     -0.0000
     12  N        -21.3480   14.5200   38.9860 N.3   166  MET166     -0.1230
     13  CA       -20.4000   15.4440   38.3650 C.3   166  MET166      0.1702
     14  C        -19.1750   15.6590   39.2400 C.2   166  MET166      0.2592
     15  O        -18.0680   15.8400   38.7310 O.2   166  MET166     -0.2718
     16  CB       -21.0870   16.7870   38.0950 C.3   166  MET166      0.0401
     17  CG       -21.9630   16.7580   36.8920 C.3   166  MET166      0.0596
     18  SD       -22.9230   18.2880   36.7590 S.3   166  MET166     -0.1393
     19  CE       -21.7870   19.3100   35.8360 C.3   166  MET166      0.0692
     20  N        -19.3570   15.6580   40.5560 N.am  167  MET167     -0.1979
     21  CA       -18.2800   15.9160   41.4940 C.3   167  MET167      0.1605
     22  C        -17.5680   14.6330   41.9390 C.2   167  MET167      0.2287
     23  O        -16.6200   14.7120   42.7240 O.2   167  MET167     -0.2864
     24  CB       -18.8200   16.6790   42.7140 C.3   167  MET167      0.0413
     25  CG       -19.3570   18.1230   42.4410 C.3   167  MET167      0.0598
     26  SD       -18.0850   19.2650   41.8100 S.3   167  MET167     -0.1393
     27  CE       -17.0790   19.4820   43.2860 C.3   167  MET167      0.0692
     28  N        -21.0290   13.7590   48.6150 N.3   172  LYS172     -0.1245
     29  CA       -21.3960   15.1450   48.3660 C.3   172  LYS172      0.1561
     30  C        -22.9010   15.3320   48.1830 C.2   172  LYS172      0.2260
     31  O        -23.3440   16.4530   47.8870 O.2   172  LYS172     -0.2867
     32  CB       -20.6390   15.6730   47.1420 C.3   172  LYS172      0.0271
     33  CG       -19.1020   15.5260   47.2890 C.3   172  LYS172      0.0035
     34  CD       -18.3670   15.8710   46.0060 C.3   172  LYS172      0.0206
     35  CE       -16.8610   15.6380   46.1220 C.3   172  LYS172      0.1093
     36  NZ       -16.1920   16.6920   46.9240 N.3   172  LYS172     -0.1314
     37  N        -36.3430   26.0000   39.0590 N.3   277  ILE277     -0.1245
     38  CA       -35.3780   26.0370   37.9600 C.3   277  ILE277      0.1561
     39  C        -34.1140   26.7800   38.3780 C.2   277  ILE277      0.2260
     40  O        -32.9980   26.2770   38.2130 O.2   277  ILE277     -0.2867
     41  CB       -35.9860   26.6790   36.7090 C.3   277  ILE277      0.0252
     42  CG1      -37.1370   25.8350   36.1710 C.3   277  ILE277      0.0019
     43  CG2      -34.9130   26.8440   35.6420 C.3   277  ILE277      0.0019
     44  CD1      -36.6650   24.4850   35.7120 C.3   277  ILE277      0.0001
     45  N        -30.1950   25.3200   38.8590 N.3   281  ILE281     -0.1245
     46  CA       -29.0470   25.8900   38.1390 C.3   281  ILE281      0.1561
     47  C        -27.9890   26.3800   39.1280 C.2   281  ILE281      0.2260
     48  O        -26.7860   26.0960   38.9780 O.2   281  ILE281     -0.2867
     49  CB       -29.5000   27.0270   37.2030 C.3   281  ILE281      0.0252
     50  CG1      -30.2710   26.4720   35.9970 C.3   281  ILE281      0.0019
     51  CG2      -28.2890   27.9030   36.7630 C.3   281  ILE281      0.0019
     52  CD1      -31.0420   27.5480   35.1930 C.3   281  ILE281      0.0001
     53  N        -26.2510   23.4250   40.5710 N.3   284  LEU284     -0.1231
     54  CA       -25.5320   22.7870   39.4720 C.3   284  LEU284      0.1693
     55  C        -24.1990   23.4840   39.1800 C.2   284  LEU284      0.2591
     56  O        -23.2140   22.8280   38.8050 O.2   284  LEU284     -0.2718
     57  CB       -26.4190   22.7850   38.2240 C.3   284  LEU284      0.0284
     58  CG       -25.9900   21.8660   37.0870 C.3   284  LEU284      0.0019
     59  CD1      -25.8420   20.4370   37.5770 C.3   284  LEU284      0.0001
     60  CD2      -26.9950   21.9460   35.9390 C.3   284  LEU284      0.0001
     61  N        -24.1470   24.8130   39.3350 N.am  285  LEU285     -0.1980
     62  CA       -22.9180   25.5670   39.0950 C.3   285  LEU285      0.1596
     63  C        -21.9660   25.5780   40.2830 C.2   285  LEU285      0.2287
     64  O        -20.8240   26.0160   40.1230 O.2   285  LEU285     -0.2864
     65  CB       -23.2380   27.0210   38.7320 C.3   285  LEU285      0.0297
     66  CG       -24.0260   27.2980   37.4600 C.3   285  LEU285      0.0022
     67  CD1      -24.6880   28.6600   37.5470 C.3   285  LEU285      0.0001
     68  CD2      -23.1140   27.2240   36.2570 C.3   285  LEU285      0.0001
     69  N        -19.3570   24.2360   42.8130 N.3   287  GLY287     -0.1210
     70  CA       -18.3520   23.1780   42.8680 C.3   287  GLY287      0.1956
     71  C        -17.8600   22.7510   41.5090 C.2   287  GLY287      0.2613
     72  O        -16.6850   22.4190   41.3350 O.2   287  GLY287     -0.2717
     73  N        -18.7660   22.7390   40.5340 N.am  288  THR288     -0.1938
     74  CA       -18.4320   22.3360   39.1760 C.3   288  THR288      0.2028
     75  C        -17.7860   23.4800   38.3950 C.2   288  THR288      0.2642
     76  O        -16.8510   23.2600   37.6190 O.2   288  THR288     -0.2714
     77  CB       -19.7070   21.8550   38.4740 C.3   288  THR288      0.1808
     78  OG1      -20.6770   22.9160   38.4860 O.3   288  THR288     -0.2208
     79  CG2      -20.3210   20.6500   39.2150 C.3   288  THR288      0.0379
     80  N        -18.2940   24.7010   38.5730 N.am  289  VAL289     -0.1977
     81  CA       -17.8590   25.8790   37.8360 C.3   289  VAL289      0.1596
     82  C        -17.2780   26.9280   38.7740 C.2   289  VAL289      0.2287
     83  O        -16.1780   27.4380   38.5510 O.2   289  VAL289     -0.2864
     84  CB       -19.0210   26.4780   37.0040 C.3   289  VAL289      0.0276
     85  CG1      -18.6650   27.8600   36.4670 C.3   289  VAL289      0.0022
     86  CG2      -19.3930   25.5500   35.8580 C.3   289  VAL289      0.0022
@<TRIPOS>BOND
     1    52    50    1
     2    43    41    1
     3    44    42    1
     4    19    18    1
     5    86    84    1
     6    60    58    1
     7    50    49    1
     8     9     7   ar
     9     9    11   ar
    10    42    41    1
    11    68    66    1
    12     7     6   ar
    13    11    10   ar
    14    85    84    1
    15    41    38    1
    16    18    17    1
    17    51    49    1
    18    17    16    1
    19     6     5    1
    20     6     8   ar
    21    84    81    1
    22    10     8   ar
    23    58    59    1
    24    58    57    1
    25    49    46    1
    26     5     2    1
    27    66    67    1
    28    66    65    1
    29    76    75    2
    30    81    80    1
    31    81    82    1
    32    38    39    1
    33    38    37    1
    34    16    13    1
    35    46    45    1
    36    46    47    1
    37    40    39    2
    38    57    54    1
    39     2     1    1
    40     2     3    1
    41    13    12    1
    42    13    14    1
    43    75    80   am
    44    75    74    1
    45    77    78    1
    46    77    74    1
    47    77    79    1
    48    83    82    2
    49    15    14    2
    50    65    62    1
    51    56    55    2
    52    48    47    2
    53    62    61    1
    54    62    63    1
    55    74    73    1
    56    55    61   am
    57    55    54    1
    58    14    20   am
    59     3     4    2
    60    54    53    1
    61    64    63    2
    62    73    71   am
    63    20    21    1
    64    72    71    2
    65    21    22    1
    66    21    24    1
    67    71    70    1
    68    26    25    1
    69    26    27    1
    70    22    23    2
    71    25    24    1
    72    69    70    1
    73    34    35    1
    74    34    33    1
    75    35    36    1
    76    32    33    1
    77    32    29    1
    78    31    30    2
    79    30    29    1
    80    29    28    1
