@<TRIPOS>MOLECULE
tmp/5y5sB10.pdb
 83 79 0 0 0
SMALL
GASTEIGER

@<TRIPOS>ATOM
      1  N        -58.9790   65.0830   46.5220 N.3    22  PHE22      -0.1241
      2  CA       -58.0460   64.2470   45.7640 C.3    22  PHE22       0.1605
      3  C        -58.7250   63.0530   45.0800 C.2    22  PHE22       0.2264
      4  O        -58.0280   62.1440   44.6190 O.2    22  PHE22      -0.2867
      5  CB       -56.8980   63.7400   46.6520 C.3    22  PHE22       0.0534
      6  CG       -56.1840   64.8220   47.4280 C.ar   22  PHE22      -0.0203
      7  CD1      -55.4960   65.8330   46.7690 C.ar   22  PHE22      -0.0042
      8  CD2      -56.2010   64.8190   48.8130 C.ar   22  PHE22      -0.0042
      9  CE1      -54.8500   66.8290   47.4880 C.ar   22  PHE22      -0.0003
     10  CE2      -55.5600   65.7970   49.5370 C.ar   22  PHE22      -0.0003
     11  CZ       -54.8810   66.8080   48.8760 C.ar   22  PHE22      -0.0000
     12  N        -56.2850   60.8840   48.8170 N.3    33  PHE33      -0.1241
     13  CA       -55.4220   61.4860   49.8300 C.3    33  PHE33       0.1605
     14  C        -54.1690   60.6460   50.0550 C.2    33  PHE33       0.2264
     15  O        -53.0520   61.1790   50.1200 O.2    33  PHE33      -0.2867
     16  CB       -56.2060   61.6540   51.1300 C.3    33  PHE33       0.0534
     17  CG       -55.3870   62.1210   52.3030 C.ar   33  PHE33      -0.0203
     18  CD1      -55.1550   63.4690   52.5170 C.ar   33  PHE33      -0.0042
     19  CD2      -54.8960   61.2100   53.2200 C.ar   33  PHE33      -0.0042
     20  CE1      -54.4280   63.8970   53.6090 C.ar   33  PHE33      -0.0003
     21  CE2      -54.1670   61.6260   54.3110 C.ar   33  PHE33      -0.0003
     22  CZ       -53.9190   62.9610   54.5040 C.ar   33  PHE33      -0.0000
     23  N        -51.6200   60.9390   47.1930 N.3    36  VAL36      -0.1231
     24  CA       -50.7890   62.1370   47.3260 C.3    36  VAL36       0.1692
     25  C        -49.7740   61.9600   48.4450 C.2    36  VAL36       0.2591
     26  O        -48.5770   62.1960   48.2630 O.2    36  VAL36      -0.2718
     27  CB       -51.6620   63.3840   47.5670 C.3    36  VAL36       0.0266
     28  CG1      -50.7730   64.5990   47.7600 C.3    36  VAL36       0.0020
     29  CG2      -52.6330   63.5780   46.4210 C.3    36  VAL36       0.0020
     30  N        -50.2460   61.5570   49.6250 N.am   37  VAL37      -0.1980
     31  CA       -49.3710   61.3870   50.7840 C.3    37  VAL37       0.1595
     32  C        -48.3190   60.3180   50.5010 C.2    37  VAL37       0.2287
     33  O        -47.1310   60.5070   50.7720 O.2    37  VAL37      -0.2864
     34  CB       -50.2120   61.0450   52.0300 C.3    37  VAL37       0.0276
     35  CG1      -49.3200   60.6040   53.1990 C.3    37  VAL37       0.0022
     36  CG2      -51.0970   62.2680   52.4150 C.3    37  VAL37       0.0022
     37  N        -45.5710   61.5620   48.0700 N.3    40  CYS40      -0.1221
     38  CA       -44.5330   62.3880   48.6750 C.3    40  CYS40       0.1808
     39  C        -43.5230   61.5350   49.4450 C.2    40  CYS40       0.2601
     40  O        -42.3070   61.7160   49.2950 O.2    40  CYS40      -0.2717
     41  CB       -45.1660   63.4240   49.5780 C.3    40  CYS40       0.0970
     42  SG       -46.2130   64.6730   48.7020 S.3    40  CYS40      -0.0800
     43  N        -44.0100   60.6140   50.2950 N.am   41  PHE41      -0.1976
     44  CA       -43.1000   59.7240   51.0240 C.3    41  PHE41       0.1639
     45  C        -42.2080   58.9490   50.0660 C.2    41  PHE41       0.2290
     46  O        -41.0130   58.7520   50.3250 O.2    41  PHE41      -0.2864
     47  CB       -43.8880   58.7370   51.8990 C.3    41  PHE41       0.0560
     48  CG       -44.4280   59.3340   53.1700 C.ar   41  PHE41      -0.0200
     49  CD1      -43.6150   60.1070   53.9950 C.ar   41  PHE41      -0.0042
     50  CD2      -45.7520   59.1240   53.5420 C.ar   41  PHE41      -0.0042
     51  CE1      -44.1170   60.6650   55.1690 C.ar   41  PHE41      -0.0003
     52  CE2      -46.2590   59.6800   54.7120 C.ar   41  PHE41      -0.0003
     53  CZ       -45.4390   60.4530   55.5240 C.ar   41  PHE41      -0.0000
     54  N        -39.6390   61.1980   48.0530 N.3    44  LEU44      -0.1245
     55  CA       -38.5910   61.6310   48.9700 C.3    44  LEU44       0.1561
     56  C        -37.6410   60.4780   49.2870 C.2    44  LEU44       0.2260
     57  O        -36.4260   60.6130   49.1480 O.2    44  LEU44      -0.2867
     58  CB       -39.1800   62.1960   50.2610 C.3    44  LEU44       0.0270
     59  CG       -38.1160   62.7620   51.2100 C.3    44  LEU44       0.0019
     60  CD1      -37.3060   63.8710   50.5230 C.3    44  LEU44       0.0001
     61  CD2      -38.7270   63.2850   52.4960 C.3    44  LEU44       0.0001
     62  N        -34.4410   58.5070   58.2910 N.3    96  ILE96      -0.1245
     63  CA       -35.4880   59.2790   57.6150 C.3    96  ILE96       0.1561
     64  C        -36.1000   58.4700   56.4810 C.2    96  ILE96       0.2260
     65  O        -37.3180   58.5080   56.2580 O.2    96  ILE96      -0.2867
     66  CB       -34.9380   60.6260   57.0990 C.3    96  ILE96       0.0252
     67  CG1      -34.5490   61.5450   58.2550 C.3    96  ILE96       0.0019
     68  CG2      -35.9870   61.3460   56.2240 C.3    96  ILE96       0.0019
     69  CD1      -35.6220   61.6390   59.3090 C.3    96  ILE96       0.0001
     70  N        -38.6370   56.0700   57.9480 N.3    99  ILE99      -0.1231
     71  CA       -39.9290   56.6750   58.2200 C.3    99  ILE99       0.1692
     72  C        -40.6810   56.9130   56.9180 C.2    99  ILE99       0.2592
     73  O        -41.8840   56.6490   56.8360 O.2    99  ILE99      -0.2718
     74  CB       -39.7400   57.9550   59.0470 C.3    99  ILE99       0.0266
     75  CG1      -38.9530   57.6010   60.3180 C.3    99  ILE99       0.0019
     76  CG2      -41.0870   58.5940   59.3980 C.3    99  ILE99       0.0020
     77  CD1      -38.2530   58.7940   60.9490 C.3    99  ILE99       0.0001
     78  N        -39.9800   57.3620   55.8650 N.am  100  CYS100     -0.1970
     79  CA       -40.6240   57.5130   54.5560 C.3   100  CYS100      0.1712
     80  C        -41.1860   56.1830   54.0660 C.2   100  CYS100      0.2296
     81  O        -42.3080   56.1250   53.5500 O.2   100  CYS100     -0.2864
     82  CB       -39.6330   58.0600   53.5240 C.3   100  CYS100      0.0983
     83  SG       -39.1810   59.8490   53.6950 S.3   100  CYS100     -0.0798
@<TRIPOS>BOND
     1     4     3    2
     2     3     2    1
     3     2     1    1
     4     2     5    1
     5    29    27    1
     6     5     6    1
     7     7     6   ar
     8     7     9   ar
     9    23    24    1
    10    24    27    1
    11    24    25    1
    12     6     8   ar
    13     9    11   ar
    14    27    28    1
    15    54    55    1
    16    37    38    1
    17    26    25    2
    18    25    30   am
    19    38    39    1
    20    38    41    1
    21    42    41    1
    22     8    10   ar
    23    12    13    1
    24    11    10   ar
    25    55    56    1
    26    55    58    1
    27    57    56    2
    28    40    39    2
    29    39    43   am
    30    30    31    1
    31    13    14    1
    32    13    16    1
    33    14    15    2
    34    45    46    2
    35    45    44    1
    36    58    59    1
    37    43    44    1
    38    32    33    2
    39    32    31    1
    40    60    59    1
    41    31    34    1
    42    44    47    1
    43    16    17    1
    44    59    61    1
    45    47    48    1
    46    34    36    1
    47    34    35    1
    48    17    18   ar
    49    17    19   ar
    50    18    20   ar
    51    48    50   ar
    52    48    49   ar
    53    19    21   ar
    54    82    83    1
    55    82    79    1
    56    50    52   ar
    57    81    80    2
    58    20    22   ar
    59    49    51   ar
    60    80    79    1
    61    21    22   ar
    62    79    78    1
    63    52    53   ar
    64    51    53   ar
    65    78    72   am
    66    68    66    1
    67    65    64    2
    68    64    63    1
    69    73    72    2
    70    72    71    1
    71    66    63    1
    72    66    67    1
    73    63    62    1
    74    70    71    1
    75    71    74    1
    76    67    69    1
    77    74    76    1
    78    74    75    1
    79    75    77    1
