@<TRIPOS>MOLECULE
tmp/5y5sQ05.pdb
 90 85 0 0 0
SMALL
GASTEIGER

@<TRIPOS>ATOM
      1  N        -63.0610  -13.5780   44.9470 N.3    12  ILE12      -0.1231
      2  CA       -62.8410  -12.7180   46.1080 C.3    12  ILE12       0.1692
      3  C        -61.9490  -11.5290   45.7520 C.2    12  ILE12       0.2592
      4  O        -62.3330  -10.3680   45.9400 O.2    12  ILE12      -0.2718
      5  CB       -62.2550  -13.5290   47.2860 C.3    12  ILE12       0.0266
      6  CG1      -63.2250  -14.6170   47.7210 C.3    12  ILE12       0.0019
      7  CG2      -61.9670  -12.6380   48.4590 C.3    12  ILE12       0.0020
      8  CD1      -62.6600  -15.6170   48.7390 C.3    12  ILE12       0.0001
      9  N        -60.7460  -11.8000   45.2410 N.am   13  LEU13      -0.1966
     10  CA       -59.7810  -10.7690   44.8800 C.3    13  LEU13       0.1728
     11  C        -59.8500  -10.4790   43.3850 C.2    13  LEU13       0.2616
     12  O        -59.9330  -11.3990   42.5690 O.2    13  LEU13      -0.2715
     13  CB       -58.3660  -11.2030   45.2630 C.3    13  LEU13       0.0311
     14  CG       -58.2090  -11.7480   46.6840 C.3    13  LEU13       0.0022
     15  CD1      -56.7650  -12.0850   46.9450 C.3    13  LEU13       0.0001
     16  CD2      -58.7190  -10.7500   47.7120 C.3    13  LEU13       0.0001
     17  N        -59.7980   -9.1990   43.0260 N.am   14  ASP14      -0.1971
     18  CA       -59.8820   -8.8160   41.6170 C.3    14  ASP14       0.1709
     19  C        -58.6470   -9.2770   40.8510 C.2    14  ASP14       0.2293
     20  O        -57.5290   -8.8970   41.2180 O.2    14  ASP14      -0.2864
     21  CB       -60.0250   -7.3020   41.4680 C.3    14  ASP14       0.1436
     22  CG       -60.0850   -6.8810   40.0170 C.2    14  ASP14       0.3671
     23  OD1      -61.0660   -7.2540   39.3320 O.co2  14  ASP14      -0.2456
     24  OD2      -59.1450   -6.2130   39.5520 O.co2  14  ASP14      -0.2456
     25  N        -56.1630   -6.3010   39.6640 N.3    17  ARG17      -0.1231
     26  CA       -55.3550   -5.6380   40.6800 C.3    17  ARG17       0.1694
     27  C        -54.2950   -6.5850   41.2480 C.2    17  ARG17       0.2591
     28  O        -53.1780   -6.1560   41.5540 O.2    17  ARG17      -0.2718
     29  CB       -56.2250   -5.0720   41.7980 C.3    17  ARG17       0.0321
     30  CG       -55.3690   -4.3030   42.8080 C.3    17  ARG17       0.0489
     31  CD       -56.1280   -3.2430   43.5750 C.3    17  ARG17       0.2205
     32  NE       -56.7620   -2.2450   42.7200 N.pl3  17  ARG17      -0.0865
     33  CZ       -56.1350   -1.2080   42.1650 C.cat  17  ARG17       0.5346
     34  NH1      -54.8210   -1.0260   42.3450 N.pl3  17  ARG17       0.1354
     35  NH2      -56.8310   -0.3560   41.4160 N.pl3  17  ARG17       0.1354
     36  N        -54.6310   -7.8680   41.4030 N.am   18  VAL18      -0.1980
     37  CA       -53.6530   -8.8500   41.8730 C.3    18  VAL18       0.1595
     38  C        -52.4620   -8.8960   40.9250 C.2    18  VAL18       0.2287
     39  O        -51.3060   -8.7690   41.3470 O.2    18  VAL18      -0.2864
     40  CB       -54.3010  -10.2370   42.0400 C.3    18  VAL18       0.0276
     41  CG1      -53.2260  -11.3160   42.3260 C.3    18  VAL18       0.0022
     42  CG2      -55.3060  -10.2060   43.1720 C.3    18  VAL18       0.0022
     43  N        -50.3770   -5.7280   41.1950 N.3    21  SER21      -0.1202
     44  CA       -49.6370   -5.6290   42.4420 C.3    21  SER21       0.2020
     45  C        -48.4770   -6.6250   42.4880 C.2    21  SER21       0.2618
     46  O        -47.4180   -6.3110   43.0510 O.2    21  SER21      -0.2717
     47  CB       -50.5860   -5.8520   43.6190 C.3    21  SER21       0.2103
     48  OG       -51.7620   -5.0420   43.5100 O.3    21  SER21      -0.2182
     49  N        -48.6440   -7.8080   41.8830 N.am   22  ILE22      -0.1979
     50  CA       -47.5350   -8.7610   41.8090 C.3    22  ILE22       0.1595
     51  C        -46.4140   -8.2110   40.9390 C.2    22  ILE22       0.2287
     52  O        -45.2420   -8.2060   41.3420 O.2    22  ILE22      -0.2864
     53  CB       -48.0270  -10.1280   41.2980 C.3    22  ILE22       0.0276
     54  CG1      -49.0040  -10.7460   42.3020 C.3    22  ILE22       0.0022
     55  CG2      -46.8300  -11.0610   41.0410 C.3    22  ILE22       0.0022
     56  CD1      -49.6320  -12.0460   41.8270 C.3    22  ILE22       0.0001
     57  N        -44.6900   -5.3810   42.9040 N.3    25  PHE25      -0.1241
     58  CA       -43.9340   -5.8810   44.0430 C.3    25  PHE25       0.1605
     59  C        -42.6510   -6.5920   43.5950 C.2    25  PHE25       0.2264
     60  O        -41.6010   -6.4210   44.2070 O.2    25  PHE25      -0.2867
     61  CB       -44.8110   -6.8210   44.8800 C.3    25  PHE25       0.0534
     62  CG       -44.0410   -7.6320   45.8880 C.ar   25  PHE25      -0.0203
     63  CD1      -43.5160   -7.0330   47.0260 C.ar   25  PHE25      -0.0042
     64  CD2      -43.8570   -8.9920   45.7030 C.ar   25  PHE25      -0.0042
     65  CE1      -42.7920   -7.7770   47.9440 C.ar   25  PHE25      -0.0003
     66  CE2      -43.1450   -9.7520   46.6210 C.ar   25  PHE25      -0.0003
     67  CZ       -42.6160   -9.1530   47.7420 C.ar   25  PHE25      -0.0000
     68  N        -39.8360   -4.1200   42.3580 N.3    28  VAL28      -0.1231
     69  CA       -39.1350   -3.4870   43.4770 C.3    28  VAL28       0.1692
     70  C        -38.2590   -4.5050   44.1950 C.2    28  VAL28       0.2591
     71  O        -37.1320   -4.1990   44.5710 O.2    28  VAL28      -0.2718
     72  CB       -40.1240   -2.7960   44.4450 C.3    28  VAL28       0.0266
     73  CG1      -39.3860   -2.1380   45.6400 C.3    28  VAL28       0.0020
     74  CG2      -40.9060   -1.7160   43.7220 C.3    28  VAL28       0.0020
     75  N        -38.7820   -5.7160   44.4330 N.am   29  LEU29      -0.1980
     76  CA       -38.0010   -6.7390   45.1290 C.3    29  LEU29       0.1596
     77  C        -36.7520   -7.1060   44.3400 C.2    29  LEU29       0.2287
     78  O        -35.6620   -7.2410   44.9120 O.2    29  LEU29      -0.2864
     79  CB       -38.8650   -7.9850   45.3820 C.3    29  LEU29       0.0297
     80  CG       -38.2790   -9.0430   46.3200 C.3    29  LEU29       0.0022
     81  CD1      -38.2050   -8.5280   47.7470 C.3    29  LEU29       0.0001
     82  CD2      -39.0760  -10.3390   46.2500 C.3    29  LEU29       0.0001
     83  N        -34.2960   -4.3640   44.7170 N.3    32  LEU32      -0.1245
     84  CA       -33.8030   -4.3010   46.0930 C.3    32  LEU32       0.1561
     85  C        -32.7780   -5.4010   46.3840 C.2    32  LEU32       0.2260
     86  O        -31.7770   -5.1580   47.0660 O.2    32  LEU32      -0.2867
     87  CB       -34.9600   -4.4040   47.0750 C.3    32  LEU32       0.0270
     88  CG       -34.6380   -4.4970   48.5620 C.3    32  LEU32       0.0019
     89  CD1      -33.9260   -3.2370   49.0920 C.3    32  LEU32       0.0001
     90  CD2      -35.9040   -4.8490   49.3510 C.3    32  LEU32       0.0001
@<TRIPOS>BOND
     1    23    22   ar
     2    24    22   ar
     3    25    26    1
     4    22    21    1
     5    26    27    1
     6    26    29    1
     7    19    20    2
     8    19    18    1
     9    38    39    2
    10    38    37    1
    11    51    52    2
    12    51    50    1
    13    55    53    1
    14    43    44    1
    15    27    36   am
    16    27    28    2
    17    53    50    1
    18    53    54    1
    19    36    37    1
    20    35    33    1
    21    21    18    1
    22    18    17    1
    23    29    30    1
    24    50    49    1
    25    56    54    1
    26    37    40    1
    27    49    45   am
    28    40    41    1
    29    40    42    1
    30    33    34    1
    31    33    32    2
    32    68    69    1
    33    44    45    1
    34    44    47    1
    35    45    46    2
    36    12    11    2
    37    32    31    1
    38    30    31    1
    39    57    58    1
    40    17    11   am
    41    11    10    1
    42    69    70    1
    43    69    72    1
    44    48    47    1
    45    59    58    1
    46    59    60    2
    47    74    72    1
    48    58    61    1
    49    70    75   am
    50    70    71    2
    51    77    78    2
    52    77    76    1
    53    75    76    1
    54    72    73    1
    55    83    84    1
    56    61    62    1
    57    10     9    1
    58    10    13    1
    59     1     2    1
    60    76    79    1
    61     9     3   am
    62    13    14    1
    63    79    80    1
    64    64    62   ar
    65    64    66   ar
    66     3     4    2
    67     3     2    1
    68    62    63   ar
    69    84    85    1
    70    84    87    1
    71     2     5    1
    72    82    80    1
    73    80    81    1
    74    85    86    2
    75    66    67   ar
    76    14    15    1
    77    14    16    1
    78    63    65   ar
    79    87    88    1
    80     5     6    1
    81     5     7    1
    82     6     8    1
    83    67    65   ar
    84    88    89    1
    85    88    90    1
