@<TRIPOS>MOLECULE
tmp/5y5sE01.pdb
 95 90 0 0 0
SMALL
GASTEIGER

@<TRIPOS>ATOM
      1  N        -49.9370   63.5030   14.5380 N.3     9  ILE9       -0.1231
      2  CA       -49.4980   62.1240   14.7480 C.3     9  ILE9        0.1692
      3  C        -49.3270   61.8190   16.2380 C.2     9  ILE9        0.2592
      4  O        -49.9790   60.9230   16.7760 O.2     9  ILE9       -0.2718
      5  CB       -48.1980   61.8300   13.9650 C.3     9  ILE9        0.0266
      6  CG1      -48.3890   62.1120   12.4720 C.3     9  ILE9        0.0019
      7  CG2      -47.7580   60.3910   14.1820 C.3     9  ILE9        0.0020
      8  CD1      -47.1590   61.8180   11.6410 C.3     9  ILE9        0.0001
      9  N        -48.4520   62.5570   16.9180 N.am   10  LEU10      -0.1966
     10  CA       -48.2120   62.3700   18.3430 C.3    10  LEU10       0.1728
     11  C        -49.1020   63.3110   19.1500 C.2    10  LEU10       0.2616
     12  O        -49.1540   64.5120   18.8710 O.2    10  LEU10      -0.2715
     13  CB       -46.7400   62.6210   18.6720 C.3    10  LEU10       0.0311
     14  CG       -45.7230   61.7220   17.9660 C.3    10  LEU10       0.0022
     15  CD1      -44.3000   62.1410   18.3090 C.3    10  LEU10       0.0001
     16  CD2      -45.9570   60.2610   18.3340 C.3    10  LEU10       0.0001
     17  N        -49.7880   62.7630   20.1520 N.am   11  ASP11      -0.1971
     18  CA       -50.7280   63.5370   20.9570 C.3    11  ASP11       0.1709
     19  C        -50.0090   64.6480   21.7110 C.2    11  ASP11       0.2293
     20  O        -49.1420   64.3550   22.5480 O.2    11  ASP11      -0.2864
     21  CB       -51.4710   62.6480   21.9520 C.3    11  ASP11       0.1436
     22  CG       -52.4940   63.4250   22.7720 C.2    11  ASP11       0.3671
     23  OD1      -53.3390   64.1140   22.1590 O.co2  11  ASP11      -0.2456
     24  OD2      -52.4560   63.3560   24.0200 O.co2  11  ASP11      -0.2456
     25  N        -49.7980   64.3340   25.7930 N.3    14  ARG14      -0.1231
     26  CA       -48.9200   63.2940   26.3140 C.3    14  ARG14       0.1694
     27  C        -47.4580   63.6040   26.0400 C.2    14  ARG14       0.2591
     28  O        -46.5950   63.3020   26.8720 O.2    14  ARG14      -0.2718
     29  CB       -49.3070   61.9440   25.7220 C.3    14  ARG14       0.0321
     30  CG       -50.6350   61.4470   26.2350 C.3    14  ARG14       0.0489
     31  CD       -50.9440   60.0520   25.7500 C.3    14  ARG14       0.2205
     32  NE       -52.2780   59.6510   26.1780 N.pl3  14  ARG14      -0.0865
     33  CZ       -53.3960   60.0600   25.5880 C.cat  14  ARG14       0.5346
     34  NH1      -54.5750   59.6560   26.0380 N.pl3  14  ARG14       0.1354
     35  NH2      -53.3330   60.8780   24.5450 N.pl3  14  ARG14       0.1354
     36  N        -47.1600   64.2100   24.8910 N.am   15  VAL15      -0.1980
     37  CA       -45.7960   64.6440   24.6210 C.3    15  VAL15       0.1595
     38  C        -45.3620   65.6860   25.6460 C.2    15  VAL15       0.2287
     39  O        -44.2660   65.6110   26.2140 O.2    15  VAL15      -0.2864
     40  CB       -45.6850   65.1710   23.1810 C.3    15  VAL15       0.0276
     41  CG1      -44.3190   65.7630   22.9470 C.3    15  VAL15       0.0022
     42  CG2      -45.9580   64.0280   22.2020 C.3    15  VAL15       0.0022
     43  N        -44.9520   64.0940   29.0830 N.3    18  SER18      -0.1202
     44  CA       -43.7440   63.2800   29.0470 C.3    18  SER18       0.2020
     45  C        -42.4910   64.1430   29.1510 C.2    18  SER18       0.2618
     46  O        -41.5530   63.8010   29.8810 O.2    18  SER18      -0.2717
     47  CB       -43.7240   62.4420   27.7700 C.3    18  SER18       0.2103
     48  OG       -44.8220   61.5500   27.7580 O.3    18  SER18      -0.2182
     49  N        -42.4610   65.2730   28.4400 N.am   19  ILE19      -0.1979
     50  CA       -41.2710   66.1150   28.4510 C.3    19  ILE19       0.1595
     51  C        -41.0270   66.6740   29.8450 C.2    19  ILE19       0.2287
     52  O        -39.8950   66.6630   30.3400 O.2    19  ILE19      -0.2864
     53  CB       -41.4030   67.2280   27.3970 C.3    19  ILE19       0.0276
     54  CG1      -41.3100   66.6380   25.9900 C.3    19  ILE19       0.0022
     55  CG2      -40.3610   68.3260   27.6040 C.3    19  ILE19       0.0022
     56  CD1      -41.8310   67.5990   24.9190 C.3    19  ILE19       0.0001
     57  N        -42.0240   65.5000   32.8440 N.3    21  ALA21      -0.1231
     58  CA       -41.5740   64.4580   33.7600 C.3    21  ALA21       0.1694
     59  C        -40.1460   64.0420   33.4420 C.2    21  ALA21       0.2592
     60  O        -39.3080   63.9100   34.3440 O.2    21  ALA21      -0.2718
     61  CB       -42.5130   63.2480   33.7040 C.3    21  ALA21       0.0304
     62  N        -39.8460   63.8340   32.1590 N.am   22  PHE22      -0.1976
     63  CA       -38.5010   63.4050   31.7900 C.3    22  PHE22       0.1639
     64  C        -37.4660   64.4440   32.1980 C.2    22  PHE22       0.2290
     65  O        -36.4410   64.1050   32.7990 O.2    22  PHE22      -0.2864
     66  CB       -38.4150   63.1210   30.2880 C.3    22  PHE22       0.0560
     67  CG       -37.0150   62.8360   29.8130 C.ar   22  PHE22      -0.0200
     68  CD1      -36.3390   61.7110   30.2560 C.ar   22  PHE22      -0.0042
     69  CD2      -36.3690   63.7020   28.9450 C.ar   22  PHE22      -0.0042
     70  CE1      -35.0500   61.4380   29.8350 C.ar   22  PHE22      -0.0003
     71  CE2      -35.0720   63.4380   28.5190 C.ar   22  PHE22      -0.0003
     72  CZ       -34.4150   62.3030   28.9660 C.ar   22  PHE22      -0.0000
     73  N        -36.7710   64.5620   35.9800 N.3    25  VAL25      -0.1231
     74  CA       -35.9890   63.4070   36.4170 C.3    25  VAL25       0.1692
     75  C        -34.5400   63.5520   35.9650 C.2    25  VAL25       0.2591
     76  O        -33.5970   63.3220   36.7350 O.2    25  VAL25      -0.2718
     77  CB       -36.6140   62.0970   35.9010 C.3    25  VAL25       0.0266
     78  CG1      -35.7530   60.9080   36.3290 C.3    25  VAL25       0.0020
     79  CG2      -38.0210   61.9220   36.4470 C.3    25  VAL25       0.0020
     80  N        -34.3470   63.9270   34.6990 N.am   26  LEU26      -0.1980
     81  CA       -33.0040   64.1210   34.1800 C.3    26  LEU26       0.1596
     82  C        -32.2670   65.1940   34.9720 C.2    26  LEU26       0.2287
     83  O        -31.0940   65.0230   35.3180 O.2    26  LEU26      -0.2864
     84  CB       -33.0750   64.4900   32.6990 C.3    26  LEU26       0.0297
     85  CG       -31.7520   64.6570   31.9550 C.3    26  LEU26       0.0022
     86  CD1      -31.0350   63.3030   31.8150 C.3    26  LEU26       0.0001
     87  CD2      -31.9920   65.3380   30.5990 C.3    26  LEU26       0.0001
     88  N        -31.2160   63.7340   38.1470 N.3    29  LEU29      -0.1245
     89  CA       -30.1490   62.7650   37.9230 C.3    29  LEU29       0.1561
     90  C        -28.8100   63.4620   37.6970 C.2    29  LEU29       0.2260
     91  O        -27.7980   63.0760   38.2910 O.2    29  LEU29      -0.2867
     92  CB       -30.4970   61.8710   36.7340 C.3    29  LEU29       0.0270
     93  CG       -29.4810   60.8330   36.2500 C.3    29  LEU29       0.0019
     94  CD1      -29.1610   59.7840   37.3280 C.3    29  LEU29       0.0001
     95  CD2      -30.0180   60.1710   34.9820 C.3    29  LEU29       0.0001
@<TRIPOS>BOND
     1     8     6    1
     2     6     5    1
     3     5     7    1
     4     5     2    1
     5     1     2    1
     6     2     3    1
     7     3     4    2
     8     3     9   am
     9     9    10    1
    10    14    15    1
    11    14    16    1
    12    14    13    1
    13    10    13    1
    14    10    11    1
    15    12    11    2
    16    11    17   am
    17    17    18    1
    18    18    19    1
    19    18    21    1
    20    19    20    2
    21    21    22    1
    22    23    22   ar
    23    42    40    1
    24    22    24   ar
    25    41    40    1
    26    40    37    1
    27    35    33    1
    28    37    36    1
    29    37    38    1
    30    36    27   am
    31    56    54    1
    32    33    34    1
    33    33    32    2
    34    38    39    2
    35    29    30    1
    36    29    26    1
    37    31    32    1
    38    31    30    1
    39    25    26    1
    40    54    53    1
    41    27    26    1
    42    27    28    2
    43    53    55    1
    44    53    50    1
    45    48    47    1
    46    47    44    1
    47    49    50    1
    48    49    45   am
    49    50    51    1
    50    71    69   ar
    51    71    72   ar
    52    69    67   ar
    53    72    70   ar
    54    44    43    1
    55    44    45    1
    56    45    46    2
    57    67    68   ar
    58    67    66    1
    59    70    68   ar
    60    51    52    2
    61    66    63    1
    62    87    85    1
    63    63    62    1
    64    63    64    1
    65    86    85    1
    66    85    84    1
    67    62    59   am
    68    64    65    2
    69    84    81    1
    70    57    58    1
    71    59    58    1
    72    59    60    2
    73    61    58    1
    74    81    80    1
    75    81    82    1
    76    80    75   am
    77    82    83    2
    78    95    93    1
    79    77    78    1
    80    77    74    1
    81    77    79    1
    82    75    74    1
    83    75    76    2
    84    73    74    1
    85    93    92    1
    86    93    94    1
    87    92    89    1
    88    90    89    1
    89    90    91    2
    90    89    88    1
