@<TRIPOS>MOLECULE
tmp/5y5sC08.pdb
 109 105 0 0 0
SMALL
GASTEIGER

@<TRIPOS>ATOM
      1  N        -50.8770    0.6470   37.8330 N.3    54  LEU54      -0.1231
      2  CA       -49.5270    0.1020   37.9360 C.3    54  LEU54       0.1693
      3  C        -48.5040    1.1840   38.2600 C.2    54  LEU54       0.2592
      4  O        -47.5860    0.9640   39.0620 O.2    54  LEU54      -0.2718
      5  CB       -49.1590   -0.5870   36.6300 C.3    54  LEU54       0.0284
      6  CG       -47.7250   -1.1070   36.5850 C.3    54  LEU54       0.0019
      7  CD1      -47.5840   -2.1820   37.6410 C.3    54  LEU54       0.0001
      8  CD2      -47.3930   -1.6100   35.1990 C.3    54  LEU54       0.0001
      9  N        -48.6190    2.3430   37.6170 N.am   55  THR55      -0.1953
     10  CA       -47.6420    3.3980   37.8510 C.3    55  THR55       0.1897
     11  C        -47.6050    3.7770   39.3270 C.2    55  THR55       0.2313
     12  O        -46.5320    3.7970   39.9540 O.2    55  THR55      -0.2863
     13  CB       -47.9760    4.6150   36.9810 C.3    55  THR55       0.1794
     14  OG1      -48.1130    4.1970   35.6130 O.3    55  THR55      -0.2208
     15  CG2      -46.8790    5.6430   37.0630 C.3    55  THR55       0.0378
     16  N        -46.4230    0.8790   41.7800 N.3    58  LEU58      -0.1245
     17  CA       -44.9640    0.8220   41.7590 C.3    58  LEU58       0.1561
     18  C        -44.3660    2.0330   42.4680 C.2    58  LEU58       0.2260
     19  O        -43.4040    1.9010   43.2340 O.2    58  LEU58      -0.2867
     20  CB       -44.4700    0.7250   40.3110 C.3    58  LEU58       0.0270
     21  CG       -43.0500    0.2410   40.0190 C.3    58  LEU58       0.0019
     22  CD1      -42.7880   -1.0710   40.7050 C.3    58  LEU58       0.0001
     23  CD2      -42.8310    0.1050   38.5180 C.3    58  LEU58       0.0001
     24  N        -41.8800    1.5470   45.7830 N.3    62  PHE62      -0.1241
     25  CA       -40.5270    2.1030   45.8730 C.3    62  PHE62       0.1605
     26  C        -40.4200    3.0950   47.0270 C.2    62  PHE62       0.2264
     27  O        -39.4150    3.1140   47.7570 O.2    62  PHE62      -0.2867
     28  CB       -40.1370    2.8180   44.5800 C.3    62  PHE62       0.0534
     29  CG       -39.6350    1.9140   43.4890 C.ar   62  PHE62      -0.0203
     30  CD1      -38.4580    1.1770   43.6490 C.ar   62  PHE62      -0.0042
     31  CD2      -40.3050    1.8570   42.2750 C.ar   62  PHE62      -0.0042
     32  CE1      -37.9820    0.3570   42.6200 C.ar   62  PHE62      -0.0003
     33  CE2      -39.8550    1.0820   41.2460 C.ar   62  PHE62      -0.0003
     34  CZ       -38.6670    0.3080   41.4120 C.ar   62  PHE62      -0.0000
     35  N        -36.7670    6.6620   41.9930 N.3   123  LEU123     -0.1245
     36  CA       -37.7160    5.9360   41.1320 C.3   123  LEU123      0.1561
     37  C        -39.1550    6.1830   41.5670 C.2   123  LEU123      0.2260
     38  O        -40.0510    6.3140   40.7270 O.2   123  LEU123     -0.2867
     39  CB       -37.4110    4.4240   41.1300 C.3   123  LEU123      0.0270
     40  CG       -36.0360    4.0510   40.5630 C.3   123  LEU123      0.0019
     41  CD1      -35.7350    2.5490   40.7810 C.3   123  LEU123      0.0001
     42  CD2      -35.9270    4.3850   39.0830 C.3   123  LEU123      0.0001
     43  N        -40.0510    9.6600   40.1600 N.3   126  LEU126     -0.1231
     44  CA       -40.2140    9.5980   38.7100 C.3   126  LEU126      0.1693
     45  C        -41.5060    8.8990   38.3250 C.2   126  LEU126      0.2591
     46  O        -42.1670    9.3020   37.3640 O.2   126  LEU126     -0.2718
     47  CB       -39.0240    8.8830   38.0610 C.3   126  LEU126      0.0284
     48  CG       -37.7110    9.6570   38.0480 C.3   126  LEU126      0.0019
     49  CD1      -36.5620    8.7990   37.4710 C.3   126  LEU126      0.0001
     50  CD2      -37.8860   10.9270   37.2580 C.3   126  LEU126      0.0001
     51  N        -41.8720    7.8310   39.0440 N.am  127  LEU127     -0.1980
     52  CA       -43.1400    7.1820   38.7480 C.3   127  LEU127      0.1596
     53  C        -44.3100    8.0540   39.1740 C.2   127  LEU127      0.2287
     54  O        -45.3350    8.0640   38.4940 O.2   127  LEU127     -0.2864
     55  CB       -43.2100    5.8010   39.4100 C.3   127  LEU127      0.0297
     56  CG       -42.3860    4.7600   38.6350 C.3   127  LEU127      0.0022
     57  CD1      -42.0090    3.5520   39.5190 C.3   127  LEU127      0.0001
     58  CD2      -43.0910    4.3140   37.3550 C.3   127  LEU127      0.0001
     59  N        -44.3290   11.2000   38.9020 N.3   129  TRP129     -0.1227
     60  CA       -44.4360   12.1350   37.7900 C.3   129  TRP129      0.1737
     61  C        -45.2920   11.5540   36.6750 C.2   129  TRP129      0.2595
     62  O        -46.1470   12.2520   36.1100 O.2   129  TRP129     -0.2718
     63  CB       -43.0410   12.5000   37.2580 C.3   129  TRP129      0.0564
     64  CG       -43.1210   13.4560   36.1110 C.ar  129  TRP129      0.0003
     65  CD1      -43.1510   14.8280   36.1830 C.ar  129  TRP129      0.0946
     66  CD2      -43.2710   13.1240   34.7260 C.ar  129  TRP129      0.0152
     67  NE1      -43.2880   15.3620   34.9260 N.ar  129  TRP129     -0.2442
     68  CE2      -43.3650   14.3400   34.0140 C.ar  129  TRP129      0.0810
     69  CE3      -43.3460   11.9160   34.0160 C.ar  129  TRP129      0.0012
     70  CZ2      -43.5240   14.3850   32.6260 C.ar  129  TRP129      0.0191
     71  CZ3      -43.4920   11.9630   32.6300 C.ar  129  TRP129      0.0001
     72  CH2      -43.5830   13.1920   31.9530 C.ar  129  TRP129      0.0015
     73  N        -45.0280   10.2890   36.3090 N.am  130  VAL130     -0.1980
     74  CA       -45.8090    9.5970   35.2860 C.3   130  VAL130      0.1595
     75  C        -47.2720    9.5350   35.7020 C.2   130  VAL130      0.2287
     76  O        -48.1660    9.7410   34.8840 O.2   130  VAL130     -0.2864
     77  CB       -45.2560    8.1800   35.0230 C.3   130  VAL130      0.0276
     78  CG1      -46.1890    7.4300   34.0560 C.3   130  VAL130      0.0022
     79  CG2      -43.8230    8.2220   34.4570 C.3   130  VAL130      0.0022
     80  N        -48.8970   12.7580   35.0910 N.3   133  TYR133     -0.1227
     81  CA       -49.0770   12.8690   33.6510 C.3   133  TYR133      0.1736
     82  C        -50.2840   12.0510   33.1890 C.2   133  TYR133      0.2595
     83  O        -51.1590   12.5630   32.4640 O.2   133  TYR133     -0.2718
     84  CB       -47.7700   12.4420   32.9480 C.3   133  TYR133      0.0548
     85  CG       -47.7970   12.6330   31.4510 C.ar  133  TYR133     -0.0200
     86  CD1      -48.4590   11.7200   30.6290 C.ar  133  TYR133     -0.0009
     87  CD2      -47.1900   13.7280   30.8550 C.ar  133  TYR133     -0.0009
     88  CE1      -48.5180   11.8980   29.2640 C.ar  133  TYR133      0.0417
     89  CE2      -47.2390   13.9070   29.4800 C.ar  133  TYR133      0.0417
     90  CZ       -47.9060   12.9880   28.6960 C.ar  133  TYR133      0.1957
     91  OH       -47.9620   13.1520   27.3360 O.3   133  TYR133     -0.2866
     92  N        -50.3670   10.7780   33.6230 N.am  134  LYS134     -0.1980
     93  CA       -51.4640    9.9030   33.1890 C.3   134  LYS134      0.1596
     94  C        -52.8190   10.3870   33.6930 C.2   134  LYS134      0.2287
     95  O        -53.8310   10.2250   33.0110 O.2   134  LYS134     -0.2864
     96  CB       -51.2270    8.4610   33.6620 C.3   134  LYS134      0.0298
     97  CG       -50.1010    7.7260   32.9290 C.3   134  LYS134      0.0038
     98  CD       -49.6740    6.4450   33.6860 C.3   134  LYS134      0.0206
     99  CE       -48.9470    5.4870   32.7580 C.3   134  LYS134      0.1093
    100  NZ       -49.8450    4.9640   31.7020 N.3   134  LYS134     -0.1314
    101  N        -54.0080   13.0340   31.4240 N.3   137  GLU137     -0.1245
    102  CA       -54.3520   12.4580   30.1280 C.3   137  GLU137      0.1567
    103  C        -55.7270   11.7930   30.1470 C.2   137  GLU137      0.2260
    104  O        -56.5210   11.9670   29.2150 O.2   137  GLU137     -0.2867
    105  CB       -53.2670   11.4550   29.7220 C.3   137  GLU137      0.0388
    106  CG       -53.6140   10.6120   28.5090 C.3   137  GLU137      0.1160
    107  CD       -53.0380   11.1810   27.2330 C.2   137  GLU137      0.3649
    108  OE1      -52.3450   12.2190   27.3080 O.co2 137  GLU137     -0.2457
    109  OE2      -53.2730   10.5880   26.1580 O.co2 137  GLU137     -0.2457
@<TRIPOS>BOND
     1   109   107   ar
     2   107   108   ar
     3   107   106    1
     4    91    90    1
     5   106   105    1
     6    90    88   ar
     7    90    89   ar
     8   104   103    2
     9    88    86   ar
    10    89    87   ar
    11   105   102    1
    12   102   103    1
    13   102   101    1
    14    86    85   ar
    15    87    85   ar
    16    85    84    1
    17   100    99    1
    18    72    70   ar
    19    72    71   ar
    20    83    82    2
    21    70    68   ar
    22    71    69   ar
    23    99    98    1
    24    97    96    1
    25    97    98    1
    26    84    81    1
    27    95    94    2
    28    82    92   am
    29    82    81    1
    30    93    92    1
    31    93    96    1
    32    93    94    1
    33    81    80    1
    34    68    66   ar
    35    68    67   ar
    36    69    66   ar
    37    78    77    1
    38    79    77    1
    39    66    64   ar
    40    76    75    2
    41    67    65   ar
    42    77    74    1
    43     8     6    1
    44    74    75    1
    45    74    73    1
    46    14    13    1
    47    62    61    2
    48    64    65   ar
    49    64    63    1
    50    73    61   am
    51     6     5    1
    52     6     7    1
    53     5     2    1
    54    61    60    1
    55    13    15    1
    56    13    10    1
    57    50    48    1
    58    63    60    1
    59    58    56    1
    60    46    45    2
    61    49    48    1
    62     9    10    1
    63     9     3   am
    64    60    59    1
    65     1     2    1
    66    10    11    1
    67     2     3    1
    68    48    47    1
    69    47    44    1
    70     3     4    2
    71    45    44    1
    72    45    51   am
    73    54    53    2
    74    23    21    1
    75    56    55    1
    76    56    57    1
    77    44    43    1
    78    52    51    1
    79    52    53    1
    80    52    55    1
    81    42    40    1
    82    11    12    2
    83    21    20    1
    84    21    22    1
    85    20    17    1
    86    40    41    1
    87    40    39    1
    88    38    37    2
    89    39    36    1
    90    36    37    1
    91    36    35    1
    92    33    34   ar
    93    33    31   ar
    94    34    32   ar
    95    17    16    1
    96    17    18    1
    97    31    29   ar
    98    18    19    2
    99    32    30   ar
   100    29    30   ar
   101    29    28    1
   102    28    25    1
   103    24    25    1
   104    25    26    1
   105    26    27    2
