@<TRIPOS>MOLECULE
tmp/5y5sO00.pdb
 150 146 0 0 0
SMALL
GASTEIGER

@<TRIPOS>ATOM
      1  N        -52.8590  -17.9730   26.7850 N.3     5  LEU5       -0.1245
      2  CA       -52.1780  -16.7920   27.2970 C.3     5  LEU5        0.1561
      3  C        -52.5360  -15.5500   26.4840 C.2     5  LEU5        0.2260
      4  O        -52.5130  -14.4330   27.0150 O.2     5  LEU5       -0.2867
      5  CB       -50.6660  -17.0220   27.3100 C.3     5  LEU5        0.0270
      6  CG       -49.8690  -15.9290   28.0310 C.3     5  LEU5        0.0019
      7  CD1      -50.3640  -15.7460   29.4660 C.3     5  LEU5        0.0001
      8  CD2      -48.3730  -16.2250   28.0010 C.3     5  LEU5        0.0001
      9  N        -54.7110  -12.6380   27.7920 N.3     8  ILE8       -0.1231
     10  CA       -54.2660  -11.5470   28.6520 C.3     8  ILE8        0.1692
     11  C        -54.6670  -10.2010   28.0570 C.2     8  ILE8        0.2592
     12  O        -54.9170   -9.2420   28.7920 O.2     8  ILE8       -0.2718
     13  CB       -52.7450  -11.6470   28.8920 C.3     8  ILE8        0.0266
     14  CG1      -52.3050  -10.7590   30.0570 C.3     8  ILE8        0.0019
     15  CG2      -51.9690  -11.2550   27.6500 C.3     8  ILE8        0.0020
     16  CD1      -52.9860  -11.0680   31.3780 C.3     8  ILE8        0.0001
     17  N        -54.7790  -10.1150   26.7290 N.am    9  TRP9       -0.1976
     18  CA       -55.0950   -8.8550   26.0680 C.3     9  TRP9        0.1640
     19  C        -56.5930   -8.5740   26.0330 C.2     9  TRP9        0.2290
     20  O        -57.0080   -7.5340   25.5070 O.2     9  TRP9       -0.2864
     21  CB       -54.4940   -8.8570   24.6580 C.3     9  TRP9        0.0576
     22  CG       -53.0480   -9.2990   24.6730 C.ar    9  TRP9        0.0006
     23  CD1      -52.5330  -10.4340   24.1190 C.ar    9  TRP9        0.0946
     24  CD2      -51.9470   -8.6330   25.3190 C.ar    9  TRP9        0.0152
     25  NE1      -51.1800  -10.5070   24.3580 N.ar    9  TRP9       -0.2442
     26  CE2      -50.7950   -9.4130   25.0910 C.ar    9  TRP9        0.0810
     27  CE3      -51.8250   -7.4460   26.0490 C.ar    9  TRP9        0.0012
     28  CZ2      -49.5300   -9.0520   25.5770 C.ar    9  TRP9        0.0191
     29  CZ3      -50.5790   -7.0860   26.5330 C.ar    9  TRP9        0.0001
     30  CH2      -49.4390   -7.8910   26.2980 C.ar    9  TRP9        0.0015
     31  N        -56.0130   -6.7460   29.9210 N.3    12  LEU12      -0.1245
     32  CA       -55.0180   -5.6820   30.0580 C.3    12  LEU12       0.1561
     33  C        -54.9040   -4.9430   28.7320 C.2    12  LEU12       0.2260
     34  O        -54.6300   -5.5590   27.6950 O.2    12  LEU12      -0.2867
     35  CB       -53.6540   -6.2420   30.4620 C.3    12  LEU12       0.0270
     36  CG       -53.5780   -6.9580   31.8110 C.3    12  LEU12       0.0019
     37  CD1      -52.1710   -7.4870   32.0870 C.3    12  LEU12       0.0001
     38  CD2      -54.0050   -6.0090   32.9000 C.3    12  LEU12       0.0001
     39  N        -52.2890   -1.2860   24.3350 N.3    15  ARG15      -0.1231
     40  CA       -51.5010   -0.0790   24.1440 C.3    15  ARG15       0.1694
     41  C        -50.8310    0.4010   25.4280 C.2    15  ARG15       0.2592
     42  O        -49.6910    0.8450   25.4020 O.2    15  ARG15      -0.2718
     43  CB       -52.3060    1.0310   23.4750 C.3    15  ARG15       0.0321
     44  CG       -53.5580    1.4540   24.2060 C.3    15  ARG15       0.0489
     45  CD       -54.2000    2.5940   23.4410 C.3    15  ARG15       0.2205
     46  NE       -55.4450    3.0490   24.0370 N.pl3  15  ARG15      -0.0865
     47  CZ       -56.1160    4.1070   23.6050 C.cat  15  ARG15       0.5346
     48  NH1      -55.6500    4.8060   22.5810 N.pl3  15  ARG15       0.1354
     49  NH2      -57.2460    4.4680   24.1960 N.pl3  15  ARG15       0.1354
     50  N        -51.5390    0.3250   26.5460 N.am   16  ARG16      -0.1966
     51  CA       -50.9560    0.7480   27.8090 C.3    16  ARG16       0.1729
     52  C        -49.7680   -0.1190   28.1940 C.2    16  ARG16       0.2616
     53  O        -48.7480    0.3890   28.6400 O.2    16  ARG16      -0.2715
     54  CB       -51.9900    0.7510   28.9340 C.3    16  ARG16       0.0348
     55  CG       -52.8440    2.0020   28.9790 C.3    16  ARG16       0.0492
     56  CD       -53.7620    2.0030   30.1850 C.3    16  ARG16       0.2205
     57  NE       -53.3170    2.9100   31.2360 N.pl3  16  ARG16      -0.0865
     58  CZ       -53.6380    4.1970   31.2860 C.cat  16  ARG16       0.5346
     59  NH1      -54.3950    4.7270   30.3410 N.pl3  16  ARG16       0.1354
     60  NH2      -53.2020    4.9540   32.2770 N.pl3  16  ARG16       0.1354
     61  N        -49.8920   -1.4270   28.0040 N.am   17  VAL17      -0.1977
     62  CA       -48.7960   -2.3290   28.3500 C.3    17  VAL17       0.1596
     63  C        -47.5840   -2.0550   27.4680 C.2    17  VAL17       0.2287
     64  O        -46.4490   -1.9610   27.9510 O.2    17  VAL17      -0.2864
     65  CB       -49.2490   -3.7960   28.2470 C.3    17  VAL17       0.0276
     66  CG1      -48.0350   -4.7220   28.2830 C.3    17  VAL17       0.0022
     67  CG2      -50.1810   -4.1240   29.3870 C.3    17  VAL17       0.0022
     68  N        -46.7060    0.6940   25.8830 N.3    19  VAL19      -0.1231
     69  CA       -46.0480    1.9460   26.2310 C.3    19  VAL19       0.1692
     70  C        -45.3040    1.8030   27.5510 C.2    19  VAL19       0.2593
     71  O        -44.1640    2.2650   27.6900 O.2    19  VAL19      -0.2718
     72  CB       -47.0690    3.0970   26.2740 C.3    19  VAL19       0.0266
     73  CG1      -46.3930    4.3730   26.6950 C.3    19  VAL19       0.0020
     74  CG2      -47.7300    3.2660   24.9020 C.3    19  VAL19       0.0020
     75  N        -45.9280    1.1510   28.5360 N.am   20  SER20      -0.1938
     76  CA       -45.2640    0.9690   29.8220 C.3    20  SER20       0.2055
     77  C        -44.0390    0.0610   29.7100 C.2    20  SER20       0.2643
     78  O        -43.0870    0.2140   30.4840 O.2    20  SER20      -0.2714
     79  CB       -46.2470    0.4150   30.8520 C.3    20  SER20       0.2130
     80  OG       -47.1980    1.4080   31.2170 O.3    20  SER20      -0.2179
     81  N        -44.0320   -0.8820   28.7620 N.am   21  ILE21      -0.1963
     82  CA       -42.8460   -1.7190   28.6010 C.3    21  ILE21       0.1727
     83  C        -41.7020   -0.9090   28.0060 C.2    21  ILE21       0.2616
     84  O        -40.5480   -1.0180   28.4460 O.2    21  ILE21      -0.2715
     85  CB       -43.1680   -2.9640   27.7490 C.3    21  ILE21       0.0290
     86  CG1      -44.0390   -3.9390   28.5380 C.3    21  ILE21       0.0022
     87  CG2      -41.8910   -3.6660   27.3160 C.3    21  ILE21       0.0023
     88  CD1      -44.4000   -5.1610   27.7660 C.3    21  ILE21       0.0001
     89  N        -42.0040   -0.0690   27.0090 N.am   22  VAL22      -0.1963
     90  CA       -40.9590    0.7050   26.3470 C.3    22  VAL22       0.1727
     91  C        -40.2960    1.6640   27.3240 C.2    22  VAL22       0.2616
     92  O        -39.0640    1.7710   27.3720 O.2    22  VAL22      -0.2715
     93  CB       -41.5290    1.4470   25.1290 C.3    22  VAL22       0.0290
     94  CG1      -40.4730    2.3790   24.5670 C.3    22  VAL22       0.0023
     95  CG2      -42.0010    0.4440   24.0680 C.3    22  VAL22       0.0023
     96  N        -41.0960    2.3700   28.1250 N.am   23  ALA23      -0.1963
     97  CA       -40.5210    3.3130   29.0770 C.3    23  ALA23       0.1728
     98  C        -39.7650    2.5890   30.1840 C.2    23  ALA23       0.2616
     99  O        -38.6830    3.0330   30.5930 O.2    23  ALA23      -0.2715
    100  CB       -41.6060    4.2080   29.6750 C.3    23  ALA23       0.0334
    101  N        -40.3300    1.4940   30.7020 N.am   24  PHE24      -0.1974
    102  CA       -39.6070    0.6950   31.6880 C.3    24  PHE24       0.1639
    103  C        -38.2540    0.2590   31.1410 C.2    24  PHE24       0.2290
    104  O        -37.2330    0.4000   31.8150 O.2    24  PHE24      -0.2864
    105  CB       -40.4310   -0.5260   32.1080 C.3    24  PHE24       0.0560
    106  CG       -39.6480   -1.5350   32.9170 C.ar   24  PHE24      -0.0200
    107  CD1      -39.2780   -1.2550   34.2240 C.ar   24  PHE24      -0.0042
    108  CD2      -39.2750   -2.7610   32.3620 C.ar   24  PHE24      -0.0042
    109  CE1      -38.5440   -2.1820   34.9750 C.ar   24  PHE24      -0.0003
    110  CE2      -38.5430   -3.6910   33.1020 C.ar   24  PHE24      -0.0003
    111  CZ       -38.1770   -3.4000   34.4080 C.ar   24  PHE24      -0.0000
    112  N        -36.4290    1.5600   28.6860 N.3    26  ILE26      -0.1231
    113  CA       -35.4810    2.6510   28.4500 C.3    26  ILE26       0.1692
    114  C        -34.8470    3.1120   29.7600 C.2    26  ILE26       0.2592
    115  O        -33.6280    3.3320   29.8360 O.2    26  ILE26      -0.2718
    116  CB       -36.1610    3.8130   27.7040 C.3    26  ILE26       0.0266
    117  CG1      -36.4870    3.3990   26.2690 C.3    26  ILE26       0.0019
    118  CG2      -35.2460    5.0260   27.6800 C.3    26  ILE26       0.0020
    119  CD1      -37.0700    4.5140   25.4400 C.3    26  ILE26       0.0001
    120  N        -35.6510    3.2550   30.8150 N.am   27  VAL27      -0.1966
    121  CA       -35.0940    3.6290   32.1160 C.3    27  VAL27       0.1727
    122  C        -34.2080    2.5090   32.6650 C.2    27  VAL27       0.2616
    123  O        -33.1620    2.7680   33.2780 O.2    27  VAL27      -0.2715
    124  CB       -36.2150    3.9990   33.1030 C.3    27  VAL27       0.0290
    125  CG1      -35.6290    4.2220   34.4890 C.3    27  VAL27       0.0023
    126  CG2      -36.9700    5.2520   32.6250 C.3    27  VAL27       0.0023
    127  N        -34.6130    1.2490   32.4740 N.am   28  LEU28      -0.1977
    128  CA       -33.7650    0.1500   32.9290 C.3    28  LEU28       0.1596
    129  C        -32.3950    0.2030   32.2530 C.2    28  LEU28       0.2287
    130  O        -31.3610    0.0360   32.9080 O.2    28  LEU28      -0.2864
    131  CB       -34.4540   -1.1950   32.6750 C.3    28  LEU28       0.0297
    132  CG       -33.6400   -2.3910   33.2100 C.3    28  LEU28       0.0022
    133  CD1      -33.4540   -2.2890   34.7150 C.3    28  LEU28       0.0001
    134  CD2      -34.2970   -3.7000   32.8740 C.3    28  LEU28       0.0001
    135  N        -30.8180    2.8750   30.9990 N.3    30  LEU30      -0.1231
    136  CA       -30.0240    3.9580   31.5730 C.3    30  LEU30       0.1693
    137  C        -29.4670    3.5660   32.9370 C.2    30  LEU30       0.2591
    138  O        -28.2880    3.8140   33.2330 O.2    30  LEU30      -0.2718
    139  CB       -30.8650    5.2330   31.6770 C.3    30  LEU30       0.0284
    140  CG       -31.3030    5.8780   30.3610 C.3    30  LEU30       0.0019
    141  CD1      -32.3200    6.9660   30.6580 C.3    30  LEU30       0.0001
    142  CD2      -30.1080    6.4580   29.6300 C.3    30  LEU30       0.0001
    143  N        -30.2990    2.9310   33.7690 N.am   31  LEU31      -0.1980
    144  CA       -29.8770    2.5010   35.1000 C.3    31  LEU31       0.1596
    145  C        -28.7060    1.5260   35.0370 C.2    31  LEU31       0.2287
    146  O        -27.7350    1.6570   35.7930 O.2    31  LEU31      -0.2864
    147  CB       -31.0600    1.8650   35.8320 C.3    31  LEU31       0.0297
    148  CG       -30.8740    1.2700   37.2310 C.3    31  LEU31       0.0022
    149  CD1      -30.3160    2.3080   38.1970 C.3    31  LEU31       0.0001
    150  CD2      -32.1970    0.7400   37.7430 C.3    31  LEU31       0.0001
@<TRIPOS>BOND
     1    48    47    1
     2    45    46    1
     3    45    44    1
     4    43    40    1
     5    43    44    1
     6    47    46    2
     7    47    49    1
     8    95    93    1
     9    23    25   ar
    10    23    22   ar
    11    40    39    1
    12    40    41    1
    13    25    26   ar
    14    94    93    1
    15    21    22    1
    16    21    18    1
    17    22    24   ar
    18    74    72    1
    19    26    24   ar
    20    26    28   ar
    21    93    90    1
    22    24    27   ar
    23    42    41    2
    24    41    50   am
    25   119   117    1
    26    20    19    2
    27    28    30   ar
    28    68    69    1
    29    19    18    1
    30    27    29   ar
    31    18    17    1
    32    69    72    1
    33    69    70    1
    34   117   116    1
    35    72    73    1
    36    30    29   ar
    37    90    89    1
    38    90    91    1
    39     3     4    2
    40     3     2    1
    41    50    51    1
    42    17    11   am
    43     1     2    1
    44    89    83   am
    45     2     5    1
    46     5     6    1
    47    87    85    1
    48    91    92    2
    49    91    96   am
    50    63    64    2
    51    63    62    1
    52    70    71    2
    53    70    75   am
    54    15    13    1
    55   118   116    1
    56    34    33    2
    57   116   113    1
    58    85    86    1
    59    85    82    1
    60    88    86    1
    61     9    10    1
    62    51    52    1
    63    51    54    1
    64     8     6    1
    65    61    52   am
    66    61    62    1
    67    83    84    2
    68    83    82    1
    69     6     7    1
    70    11    10    1
    71    11    12    2
    72    96    97    1
    73    52    53    2
    74    65    66    1
    75    65    62    1
    76    65    67    1
    77   113   112    1
    78   113   114    1
    79    75    76    1
    80    82    81    1
    81    10    13    1
    82    33    32    1
    83    81    77   am
    84    13    14    1
    85    54    55    1
    86    55    56    1
    87    97   100    1
    88    97    98    1
    89   142   140    1
    90    77    76    1
    91    77    78    2
    92   114   115    2
    93   114   120   am
    94    76    79    1
    95    31    32    1
    96    14    16    1
    97    32    35    1
    98    98    99    2
    99    98   101   am
   100    56    57    1
   101    59    58    1
   102   140   141    1
   103   140   139    1
   104    35    36    1
   105   101   102    1
   106   120   121    1
   107    79    80    1
   108   135   136    1
   109   103   102    1
   110   103   104    2
   111    57    58    2
   112    58    60    1
   113   136   139    1
   114   136   137    1
   115   102   105    1
   116    36    37    1
   117    36    38    1
   118   105   106    1
   119   121   122    1
   120   121   124    1
   121   129   130    2
   122   129   128    1
   123   108   106   ar
   124   108   110   ar
   125   127   122   am
   126   127   128    1
   127   126   124    1
   128   122   123    2
   129   131   128    1
   130   131   132    1
   131   134   132    1
   132   106   107   ar
   133   137   138    2
   134   137   143   am
   135   110   111   ar
   136   124   125    1
   137   132   133    1
   138   143   144    1
   139   107   109   ar
   140   111   109   ar
   141   145   144    1
   142   145   146    2
   143   144   147    1
   144   147   148    1
   145   148   150    1
   146   148   149    1
