@<TRIPOS>MOLECULE
tmp/5y5sC10.pdb
 105 101 0 0 0
SMALL
GASTEIGER

@<TRIPOS>ATOM
      1  N        -61.5390    3.0280   40.2390 N.3    29  ARG29      -0.1231
      2  CA       -61.0230    3.7090   41.4180 C.3    29  ARG29       0.1694
      3  C        -61.2870    2.8670   42.6670 C.2    29  ARG29       0.2592
      4  O        -62.1590    1.9990   42.6800 O.2    29  ARG29      -0.2718
      5  CB       -61.6860    5.0960   41.5580 C.3    29  ARG29       0.0321
      6  CG       -61.4230    6.0230   40.3690 C.3    29  ARG29       0.0489
      7  CD       -62.0670    7.4000   40.5390 C.3    29  ARG29       0.2205
      8  NE       -61.5850    8.3170   39.5150 N.pl3  29  ARG29      -0.0865
      9  CZ       -62.2680    8.6600   38.4240 C.cat  29  ARG29       0.5346
     10  NH1      -63.4860    8.1810   38.2090 N.pl3  29  ARG29       0.1354
     11  NH2      -61.7230    9.5080   37.5540 N.pl3  29  ARG29       0.1354
     12  N        -60.5590    3.1530   43.7420 N.am   30  ILE30      -0.1966
     13  CA       -60.7200    2.3840   44.9680 C.3    30  ILE30       0.1727
     14  C        -60.9640    3.3070   46.1500 C.2    30  ILE30       0.2617
     15  O        -60.5350    4.4660   46.1670 O.2    30  ILE30      -0.2715
     16  CB       -59.5170    1.4500   45.2490 C.3    30  ILE30       0.0290
     17  CG1      -58.2140    2.2270   45.4110 C.3    30  ILE30       0.0022
     18  CG2      -59.3940    0.4130   44.1350 C.3    30  ILE30       0.0023
     19  CD1      -56.9850    1.3080   45.5880 C.3    30  ILE30       0.0001
     20  N        -61.6840    2.7860   47.1300 N.am   31  GLY31      -0.1940
     21  CA       -62.0270    3.4880   48.3530 C.3    31  GLY31       0.2014
     22  C        -63.5010    3.8480   48.3710 C.2    31  GLY31       0.2638
     23  O        -64.1020    4.1680   47.3370 O.2    31  GLY31      -0.2714
     24  N        -64.0990    3.7720   49.5580 N.am   32  ARG32      -0.1977
     25  CA       -65.4440    4.2530   49.7790 C.3    32  ARG32       0.1597
     26  C        -65.3370    5.6420   50.3840 C.2    32  ARG32       0.2287
     27  O        -64.7470    5.7830   51.4710 O.2    32  ARG32      -0.2864
     28  CB       -66.2060    3.3220   50.7140 C.3    32  ARG32       0.0334
     29  CG       -67.6540    3.7330   50.9520 C.3    32  ARG32       0.0492
     30  CD       -68.2370    3.0300   52.1800 C.3    32  ARG32       0.2205
     31  NE       -67.9780    3.7710   53.4150 N.pl3  32  ARG32      -0.0865
     32  CZ       -68.2980    3.3410   54.6330 C.cat  32  ARG32       0.5346
     33  NH1      -68.8830    2.1610   54.7910 N.pl3  32  ARG32       0.1354
     34  NH2      -68.0270    4.0870   55.6970 N.pl3  32  ARG32       0.1354
     35  N        -59.7590    7.2050   45.2940 N.3    50  ILE50      -0.1245
     36  CA       -58.4250    7.4400   44.7500 C.3    50  ILE50       0.1561
     37  C        -58.2030    6.5070   43.5590 C.2    50  ILE50       0.2260
     38  O        -58.7980    5.4240   43.4720 O.2    50  ILE50      -0.2867
     39  CB       -57.3310    7.2610   45.8400 C.3    50  ILE50       0.0252
     40  CG1      -56.0180    7.9150   45.4000 C.3    50  ILE50       0.0019
     41  CG2      -57.1420    5.7480   46.2060 C.3    50  ILE50       0.0019
     42  CD1      -55.0040    8.2030   46.5370 C.3    50  ILE50       0.0001
     43  N        -55.4770    4.1250   41.4500 N.3    52  LEU52      -0.1245
     44  CA       -54.2460    3.3850   41.7190 C.3    52  LEU52       0.1561
     45  C        -54.1010    2.2920   40.6620 C.2    52  LEU52       0.2260
     46  O        -54.7110    1.2210   40.7760 O.2    52  LEU52      -0.2867
     47  CB       -54.2480    2.7990   43.1210 C.3    52  LEU52       0.0270
     48  CG       -52.9000    2.1340   43.4300 C.3    52  LEU52       0.0019
     49  CD1      -51.8090    3.2040   43.4640 C.3    52  LEU52       0.0001
     50  CD2      -52.9320    1.3290   44.7310 C.3    52  LEU52       0.0001
     51  N        -48.9200    2.1550   41.9830 N.3    57  THR57      -0.1218
     52  CA       -48.5940    1.0450   42.8640 C.3    57  THR57       0.1862
     53  C        -47.0860    0.8720   42.9400 C.2    57  THR57       0.2287
     54  O        -46.5160    0.7560   44.0300 O.2    57  THR57      -0.2866
     55  CB       -49.2710   -0.2440   42.3660 C.3    57  THR57       0.1770
     56  OG1      -50.6970   -0.0710   42.3660 O.3    57  THR57      -0.2211
     57  CG2      -48.8890   -1.4530   43.2540 C.3    57  THR57       0.0375
     58  N        -45.5890    3.8540   44.9480 N.3    60  ILE60      -0.1231
     59  CA       -45.7840    3.7350   46.3900 C.3    60  ILE60       0.1692
     60  C        -44.8920    2.6380   46.9830 C.2    60  ILE60       0.2592
     61  O        -44.3560    2.7830   48.0880 O.2    60  ILE60      -0.2718
     62  CB       -47.2680    3.4820   46.6610 C.3    60  ILE60       0.0266
     63  CG1      -48.0670    4.7990   46.4140 C.3    60  ILE60       0.0019
     64  CG2      -47.4940    2.9410   48.0740 C.3    60  ILE60       0.0020
     65  CD1      -49.5860    4.6140   46.3950 C.3    60  ILE60       0.0001
     66  N        -44.7500    1.5170   46.2790 N.am   61  PHE61      -0.1976
     67  CA       -43.8500    0.4600   46.7600 C.3    61  PHE61       0.1639
     68  C        -42.4040    0.9560   46.8590 C.2    61  PHE61       0.2290
     69  O        -41.7240    0.7630   47.8850 O.2    61  PHE61      -0.2864
     70  CB       -43.9510   -0.7650   45.8390 C.3    61  PHE61       0.0560
     71  CG       -45.2400   -1.5400   45.9680 C.ar   61  PHE61      -0.0200
     72  CD1      -46.2400   -1.1330   46.8390 C.ar   61  PHE61      -0.0042
     73  CD2      -45.4360   -2.7050   45.2250 C.ar   61  PHE61      -0.0042
     74  CE1      -47.4250   -1.8540   46.9530 C.ar   61  PHE61      -0.0003
     75  CE2      -46.5950   -3.4540   45.3410 C.ar   61  PHE61      -0.0003
     76  CZ       -47.6080   -3.0220   46.2000 C.ar   61  PHE61      -0.0000
     77  N        -42.2410    3.5110   49.8630 N.3    64  LEU64      -0.1231
     78  CA       -42.2900    2.9460   51.2090 C.3    64  LEU64       0.1693
     79  C        -40.9880    2.2470   51.5640 C.2    64  LEU64       0.2591
     80  O        -40.5240    2.3520   52.7080 O.2    64  LEU64      -0.2718
     81  CB       -43.4470    1.9670   51.3420 C.3    64  LEU64       0.0284
     82  CG       -44.8560    2.5610   51.2990 C.3    64  LEU64       0.0019
     83  CD1      -45.8460    1.4260   51.3130 C.3    64  LEU64       0.0001
     84  CD2      -45.0750    3.4660   52.4960 C.3    64  LEU64       0.0001
     85  N        -40.3930    1.5220   50.6040 N.am   65  VAL65      -0.1980
     86  CA       -39.0720    0.9290   50.8330 C.3    65  VAL65       0.1595
     87  C        -38.0660    2.0110   51.2100 C.2    65  VAL65       0.2287
     88  O        -37.3080    1.8710   52.1770 O.2    65  VAL65      -0.2864
     89  CB       -38.5940    0.1350   49.6010 C.3    65  VAL65       0.0276
     90  CG1      -37.1300   -0.3620   49.8300 C.3    65  VAL65       0.0022
     91  CG2      -39.4820   -1.1230   49.3540 C.3    65  VAL65       0.0022
     92  N        -44.1690    8.8140   40.2710 N.3   128  TRP128     -0.1241
     93  CA       -45.2270    9.7520   40.6400 C.3   128  TRP128      0.1605
     94  C        -45.4190   10.8030   39.5570 C.2   128  TRP128      0.2264
     95  O        -46.5420   11.2670   39.3200 O.2   128  TRP128     -0.2867
     96  CB       -44.9250   10.4330   41.9810 C.3   128  TRP128      0.0550
     97  CG       -46.1840   10.9600   42.6170 C.ar  128  TRP128      0.0003
     98  CD1      -46.6640   12.2570   42.5700 C.ar  128  TRP128      0.0946
     99  CD2      -47.1480   10.2060   43.3700 C.ar  128  TRP128      0.0152
    100  NE1      -47.8370   12.3470   43.2720 N.ar  128  TRP128     -0.2442
    101  CE2      -48.1690   11.1050   43.7610 C.ar  128  TRP128      0.0810
    102  CE3      -47.2470    8.8620   43.7560 C.ar  128  TRP128      0.0012
    103  CZ2      -49.2770   10.7000   44.5230 C.ar  128  TRP128      0.0191
    104  CZ3      -48.3550    8.4580   44.5170 C.ar  128  TRP128      0.0001
    105  CH2      -49.3600    9.3830   44.8820 C.ar  128  TRP128      0.0015
@<TRIPOS>BOND
     1    11     9    1
     2    10     9    1
     3     9     8    2
     4    95    94    2
     5     8     7    1
     6    94    93    1
     7     1     2    1
     8    92    93    1
     9     6     7    1
    10     6     5    1
    11    93    96    1
    12    45    46    2
    13    45    44    1
    14     2     5    1
    15     2     3    1
    16    43    44    1
    17    44    47    1
    18    96    97    1
    19    51    52    1
    20    56    55    1
    21    55    52    1
    22    55    57    1
    23    98    97   ar
    24    98   100   ar
    25    97    99   ar
    26     3     4    2
    27     3    12   am
    28    52    53    1
    29    53    54    2
    30    47    48    1
    31   100   101   ar
    32    99   102   ar
    33    99   101   ar
    34    48    49    1
    35    48    50    1
    36    38    37    2
    37    37    36    1
    38    12    13    1
    39   102   104   ar
    40   101   103   ar
    41    18    16    1
    42   104   105   ar
    43   103   105   ar
    44    36    35    1
    45    36    39    1
    46    58    59    1
    47    13    16    1
    48    13    14    1
    49    73    75   ar
    50    73    71   ar
    51    16    17    1
    52    75    76   ar
    53    40    39    1
    54    40    42    1
    55    17    19    1
    56    70    71    1
    57    70    67    1
    58    39    41    1
    59    71    72   ar
    60    14    15    2
    61    14    20   am
    62    76    74   ar
    63    66    67    1
    64    66    60   am
    65    59    62    1
    66    59    60    1
    67    65    63    1
    68    63    62    1
    69    62    64    1
    70    67    68    1
    71    72    74   ar
    72    68    69    2
    73    60    61    2
    74    20    21    1
    75    23    22    2
    76    21    22    1
    77    22    24   am
    78    91    89    1
    79    24    25    1
    80    89    90    1
    81    89    86    1
    82    25    26    1
    83    25    28    1
    84    77    78    1
    85    26    27    2
    86    85    86    1
    87    85    79   am
    88    28    29    1
    89    86    87    1
    90    29    30    1
    91    78    81    1
    92    78    79    1
    93    87    88    2
    94    82    83    1
    95    82    81    1
    96    82    84    1
    97    79    80    2
    98    30    31    1
    99    31    32    2
   100    32    33    1
   101    32    34    1
