@<TRIPOS>MOLECULE
tmp/5y5sB16.pdb
 157 151 0 0 0
SMALL
GASTEIGER

@<TRIPOS>ATOM
      1  N        -61.6290   57.4560   52.6330 N.3    16  LEU16      -0.1231
      2  CA       -61.4830   57.5230   54.0840 C.3    16  LEU16       0.1693
      3  C        -61.1250   58.9270   54.5500 C.2    16  LEU16       0.2591
      4  O        -61.6440   59.4000   55.5690 O.2    16  LEU16      -0.2718
      5  CB       -60.3900   56.5610   54.5630 C.3    16  LEU16       0.0284
      6  CG       -60.5890   55.0420   54.4050 C.3    16  LEU16       0.0019
      7  CD1      -59.2660   54.3240   54.6930 C.3    16  LEU16       0.0001
      8  CD2      -61.6850   54.5720   55.3440 C.3    16  LEU16       0.0001
      9  N        -60.2020   59.5700   53.8380 N.am   17  ILE17      -0.1980
     10  CA       -59.8040   60.9590   54.0580 C.3    17  ILE17       0.1595
     11  C        -59.7550   61.6380   52.6950 C.2    17  ILE17       0.2287
     12  O        -59.3320   61.0280   51.7070 O.2    17  ILE17      -0.2864
     13  CB       -58.4210   61.0710   54.7490 C.3    17  ILE17       0.0276
     14  CG1      -58.3280   60.1970   56.0050 C.3    17  ILE17       0.0022
     15  CG2      -58.1300   62.5140   55.1250 C.3    17  ILE17       0.0022
     16  CD1      -59.0950   60.7730   57.1850 C.3    17  ILE17       0.0001
     17  N        -56.2850   60.8840   48.8170 N.3    33  PHE33      -0.1227
     18  CA       -55.4220   61.4860   49.8300 C.3    33  PHE33       0.1736
     19  C        -54.1690   60.6460   50.0550 C.2    33  PHE33       0.2595
     20  O        -53.0520   61.1790   50.1200 O.2    33  PHE33      -0.2718
     21  CB       -56.2060   61.6540   51.1300 C.3    33  PHE33       0.0547
     22  CG       -55.3870   62.1210   52.3030 C.ar   33  PHE33      -0.0202
     23  CD1      -55.1550   63.4690   52.5170 C.ar   33  PHE33      -0.0042
     24  CD2      -54.8960   61.2100   53.2200 C.ar   33  PHE33      -0.0042
     25  CE1      -54.4280   63.8970   53.6090 C.ar   33  PHE33      -0.0003
     26  CE2      -54.1670   61.6260   54.3110 C.ar   33  PHE33      -0.0003
     27  CZ       -53.9190   62.9610   54.5040 C.ar   33  PHE33      -0.0000
     28  N        -54.3250   59.3230   50.1390 N.am   34  PHE34      -0.1976
     29  CA       -53.1710   58.4700   50.4220 C.3    34  PHE34       0.1639
     30  C        -52.3130   58.2340   49.1870 C.2    34  PHE34       0.2290
     31  O        -51.1590   57.8210   49.3170 O.2    34  PHE34      -0.2864
     32  CB       -53.6450   57.1460   51.0460 C.3    34  PHE34       0.0560
     33  CG       -54.3730   57.3460   52.3510 C.ar   34  PHE34      -0.0200
     34  CD1      -53.6670   57.6240   53.5110 C.ar   34  PHE34      -0.0042
     35  CD2      -55.7630   57.3550   52.4010 C.ar   34  PHE34      -0.0042
     36  CE1      -54.3230   57.8530   54.7030 C.ar   34  PHE34      -0.0003
     37  CE2      -56.4280   57.5800   53.5940 C.ar   34  PHE34      -0.0003
     38  CZ       -55.7060   57.8330   54.7490 C.ar   34  PHE34      -0.0000
     39  N        -47.8260   52.2120   54.4210 N.3   106  ILE106     -0.1245
     40  CA       -49.1120   52.3070   55.0900 C.3   106  ILE106      0.1561
     41  C        -50.0820   53.1300   54.2480 C.2   106  ILE106      0.2260
     42  O        -51.2670   52.8060   54.1680 O.2   106  ILE106     -0.2867
     43  CB       -48.9320   52.8850   56.5040 C.3   106  ILE106      0.0252
     44  CG1      -48.1720   51.8790   57.3880 C.3   106  ILE106      0.0019
     45  CG2      -50.2830   53.2760   57.1120 C.3   106  ILE106      0.0019
     46  CD1      -47.5560   52.5030   58.6360 C.3   106  ILE106      0.0001
     47  N        -51.4870   50.9080   51.6500 N.3   109  ALA109     -0.1231
     48  CA       -52.5320   50.0060   52.1300 C.3   109  ALA109      0.1694
     49  C        -53.8740   50.7210   52.2960 C.2   109  ALA109      0.2591
     50  O        -54.9190   50.1590   51.9470 O.2   109  ALA109     -0.2718
     51  CB       -52.1160   49.3550   53.4480 C.3   109  ALA109      0.0304
     52  N        -53.8680   51.9450   52.8510 N.am  110  LEU110     -0.1980
     53  CA       -55.1050   52.7240   53.0020 C.3   110  LEU110      0.1596
     54  C        -55.6790   53.1500   51.6560 C.2   110  LEU110      0.2287
     55  O        -56.9070   53.1630   51.4820 O.2   110  LEU110     -0.2864
     56  CB       -54.8450   53.9390   53.8900 C.3   110  LEU110      0.0297
     57  CG       -54.4810   53.5760   55.3310 C.3   110  LEU110      0.0022
     58  CD1      -53.9700   54.7610   56.1170 C.3   110  LEU110      0.0001
     59  CD2      -55.6800   52.9590   56.0200 C.3   110  LEU110      0.0001
     60  N        -57.6210   50.2620   50.6550 N.3   113  VAL113     -0.1245
     61  CA       -58.9250   50.2590   51.3270 C.3   113  VAL113      0.1561
     62  C        -59.9210   51.1840   50.6150 C.2   113  VAL113      0.2260
     63  O        -61.0860   50.8100   50.4060 O.2   113  VAL113     -0.2867
     64  CB       -58.7570   50.6290   52.8160 C.3   113  VAL113      0.0252
     65  CG1      -60.0960   50.7550   53.5240 C.3   113  VAL113      0.0019
     66  CG2      -57.8480   49.5670   53.5400 C.3   113  VAL113      0.0019
     67  N        -63.5500   50.1160   48.8380 N.3   117  ARG117     -0.1245
     68  CA       -64.8210   50.7890   49.0970 C.3   117  ARG117      0.1563
     69  C        -65.4940   51.2330   47.8000 C.2   117  ARG117      0.2260
     70  O        -66.7150   51.0890   47.6460 O.2   117  ARG117     -0.2867
     71  CB       -64.5930   51.9690   50.0490 C.3   117  ARG117      0.0307
     72  CG       -64.2430   51.5140   51.4940 C.3   117  ARG117      0.0489
     73  CD       -63.4930   52.5560   52.3420 C.3   117  ARG117      0.2205
     74  NE       -64.0990   53.8980   52.4070 N.pl3 117  ARG117     -0.0865
     75  CZ       -65.0670   54.2550   53.2500 C.cat 117  ARG117      0.5346
     76  NH1      -65.5960   53.3640   54.0870 N.pl3 117  ARG117      0.1354
     77  NH2      -65.5170   55.5050   53.2440 N.pl3 117  ARG117      0.1354
     78  N        -62.0820   43.2380   51.9330 N.3   123  PHE123     -0.1241
     79  CA       -60.8600   43.9420   52.3000 C.3   123  PHE123      0.1605
     80  C        -59.6640   42.9980   52.5000 C.2   123  PHE123      0.2264
     81  O        -58.6800   43.3710   53.1600 O.2   123  PHE123     -0.2867
     82  CB       -61.1160   44.7730   53.5530 C.3   123  PHE123      0.0534
     83  CG       -62.1780   45.8550   53.3490 C.ar  123  PHE123     -0.0203
     84  CD1      -61.8520   47.0220   52.6810 C.ar  123  PHE123     -0.0042
     85  CD2      -63.4790   45.6820   53.7960 C.ar  123  PHE123     -0.0042
     86  CE1      -62.8230   48.0450   52.4760 C.ar  123  PHE123     -0.0003
     87  CE2      -64.4610   46.6850   53.5910 C.ar  123  PHE123     -0.0003
     88  CZ       -64.1210   47.8570   52.9330 C.ar  123  PHE123     -0.0000
     89  N        -55.7850   44.5100   51.3190 N.3   126  PRO126     -0.2102
     90  CA       -55.0910   45.3750   52.2940 C.3   126  PRO126      0.1504
     91  C        -54.8560   44.6860   53.6360 C.2   126  PRO126      0.2575
     92  O        -53.8360   44.9540   54.2910 O.2   126  PRO126     -0.2718
     93  CB       -56.0140   46.6060   52.4220 C.3   126  PRO126      0.0282
     94  CG       -57.3750   46.1670   51.9120 C.3   126  PRO126      0.0208
     95  CD       -57.0850   45.0780   50.8880 C.3   126  PRO126      0.0893
     96  N        -55.7750   43.8180   54.0730 N.am  127  PHE127     -0.1977
     97  CA       -55.5420   43.0270   55.2800 C.3   127  PHE127      0.1639
     98  C        -54.2970   42.1590   55.1240 C.2   127  PHE127      0.2290
     99  O        -53.4430   42.1100   56.0140 O.2   127  PHE127     -0.2864
    100  CB       -56.7620   42.1630   55.5910 C.3   127  PHE127      0.0560
    101  CG       -56.5860   41.2620   56.7960 C.ar  127  PHE127     -0.0200
    102  CD1      -56.8710   41.7300   58.0720 C.ar  127  PHE127     -0.0042
    103  CD2      -56.1420   39.9520   56.6490 C.ar  127  PHE127     -0.0042
    104  CE1      -56.7020   40.9080   59.1830 C.ar  127  PHE127     -0.0003
    105  CE2      -55.9720   39.1250   57.7590 C.ar  127  PHE127     -0.0003
    106  CZ       -56.2660   39.6000   59.0240 C.ar  127  PHE127     -0.0000
    107  N        -51.0540   44.1060   55.0290 N.3   130  SER130     -0.1217
    108  CA       -50.6720   44.4770   56.3850 C.3   130  SER130      0.1889
    109  C        -49.7190   43.4770   57.0140 C.2   130  SER130      0.2288
    110  O        -48.9140   43.8670   57.8650 O.2   130  SER130     -0.2866
    111  CB       -51.9090   44.6080   57.2670 C.3   130  SER130      0.2089
    112  OG       -52.7240   45.6770   56.8180 O.3   130  SER130     -0.2183
    113  N        -46.2600   44.4960   55.8110 N.3   133  ILE133     -0.1231
    114  CA       -45.8850   45.7150   56.5170 C.3   133  ILE133      0.1692
    115  C        -45.5040   45.3990   57.9550 C.2   133  ILE133      0.2592
    116  O        -44.5090   45.9210   58.4790 O.2   133  ILE133     -0.2718
    117  CB       -47.0260   46.7610   56.4700 C.3   133  ILE133      0.0266
    118  CG1      -47.3780   47.1310   55.0220 C.3   133  ILE133      0.0019
    119  CG2      -46.5890   48.0080   57.2340 C.3   133  ILE133      0.0020
    120  CD1      -48.5610   48.2290   54.8720 C.3   133  ILE133      0.0001
    121  N        -46.3090   44.5640   58.6200 N.am  134  GLY134     -0.1957
    122  CA       -45.9960   44.1730   59.9870 C.3   134  GLY134      0.1869
    123  C        -44.6200   43.5360   60.1090 C.2   134  GLY134      0.2309
    124  O        -43.8800   43.8140   61.0570 O.2   134  GLY134     -0.2863
    125  N        -42.0710   46.2450   59.8170 N.3   137  LEU137     -0.1231
    126  CA       -42.0130   47.0280   61.0550 C.3   137  LEU137      0.1693
    127  C        -41.4100   46.2430   62.2250 C.2   137  LEU137      0.2591
    128  O        -40.8260   46.8540   63.1310 O.2   137  LEU137     -0.2718
    129  CB       -43.4030   47.5370   61.4320 C.3   137  LEU137      0.0284
    130  CG       -43.9980   48.5480   60.4420 C.3   137  LEU137      0.0019
    131  CD1      -45.4490   48.9060   60.8190 C.3   137  LEU137      0.0001
    132  CD2      -43.1250   49.8290   60.3630 C.3   137  LEU137      0.0001
    133  N        -41.5580   44.9130   62.2530 N.am  138  VAL138     -0.1980
    134  CA       -40.8260   44.1320   63.2560 C.3   138  VAL138      0.1595
    135  C        -39.3290   44.3190   63.0560 C.2   138  VAL138      0.2287
    136  O        -38.5760   44.5330   64.0170 O.2   138  VAL138     -0.2864
    137  CB       -41.2400   42.6480   63.2100 C.3   138  VAL138      0.0276
    138  CG1      -40.1460   41.7170   63.9190 C.3   138  VAL138      0.0022
    139  CG2      -42.6020   42.4560   63.8550 C.3   138  VAL138      0.0022
    140  N        -38.6790   48.4460   63.5460 N.3   141  PHE141     -0.1227
    141  CA       -39.2380   49.1480   64.6960 C.3   141  PHE141      0.1736
    142  C        -39.3840   48.2790   65.9480 C.2   141  PHE141      0.2595
    143  O        -38.8160   48.6280   66.9850 O.2   141  PHE141     -0.2718
    144  CB       -40.5960   49.7830   64.3270 C.3   141  PHE141      0.0547
    145  CG       -41.3490   50.3050   65.5000 C.ar  141  PHE141     -0.0202
    146  CD1      -40.8670   51.3670   66.2310 C.ar  141  PHE141     -0.0042
    147  CD2      -42.5630   49.7450   65.8640 C.ar  141  PHE141     -0.0042
    148  CE1      -41.5670   51.8600   67.3120 C.ar  141  PHE141     -0.0003
    149  CE2      -43.2690   50.2330   66.9390 C.ar  141  PHE141     -0.0003
    150  CZ       -42.7720   51.3030   67.6630 C.ar  141  PHE141     -0.0000
    151  N        -40.1540   47.1830   65.9080 N.am  142  VAL142     -0.1980
    152  CA       -40.4030   46.4460   67.1500 C.3   142  VAL142      0.1595
    153  C        -39.1100   45.8160   67.6840 C.2   142  VAL142      0.2287
    154  O        -38.7720   45.9730   68.8620 O.2   142  VAL142     -0.2864
    155  CB       -41.4890   45.3730   66.9720 C.3   142  VAL142      0.0276
    156  CG1      -41.8040   44.7560   68.3360 C.3   142  VAL142      0.0022
    157  CG2      -42.7710   45.9460   66.3400 C.3   142  VAL142      0.0022
@<TRIPOS>BOND
     1    70    69    2
     2    69    68    1
     3    17    18    1
     4    67    68    1
     5    68    71    1
     6    30    31    2
     7    30    29    1
     8    18    19    1
     9    18    21    1
    10    71    72    1
    11    19    20    2
    12    19    28   am
    13    28    29    1
    14    63    62    2
    15    29    32    1
    16    62    61    1
    17    60    61    1
    18    95    89    1
    19    95    94    1
    20    32    33    1
    21    21    22    1
    22    89    90    1
    23    61    64    1
    24    55    54    2
    25    72    73    1
    26    47    48    1
    27    54    53    1
    28    12    11    2
    29    94    93    1
    30    78    79    1
    31    50    49    2
    32    48    49    1
    33    48    51    1
    34    90    93    1
    35    90    91    1
    36    49    52   am
    37    79    80    1
    38    79    82    1
    39    22    23   ar
    40    22    24   ar
    41    73    74    1
    42    33    35   ar
    43    33    34   ar
    44    35    37   ar
    45    74    75    2
    46    86    84   ar
    47    86    88   ar
    48    80    81    2
    49    23    25   ar
    50     1     2    1
    51    84    83   ar
    52    11    10    1
    53    64    65    1
    54    64    66    1
    55    52    53    1
    56    88    87   ar
    57    53    56    1
    58    24    26   ar
    59    77    75    1
    60    75    76    1
    61    83    82    1
    62    83    85   ar
    63    34    36   ar
    64    87    85   ar
    65    37    38   ar
    66    25    27   ar
    67    91    96   am
    68    91    92    2
    69     9    10    1
    70     9     3   am
    71    56    57    1
    72    10    13    1
    73    96    97    1
    74     2     3    1
    75     2     5    1
    76    42    41    2
    77    41    40    1
    78    26    27   ar
    79     6     5    1
    80     6     7    1
    81     6     8    1
    82    39    40    1
    83     3     4    2
    84    36    38   ar
    85    13    15    1
    86    13    14    1
    87   120   118    1
    88   118   117    1
    89   107   108    1
    90    40    43    1
    91    98    97    1
    92    98    99    2
    93    97   100    1
    94    57    59    1
    95    57    58    1
    96   100   101    1
    97   113   114    1
    98    14    16    1
    99   108   109    1
   100   108   111    1
   101   117   114    1
   102   117   119    1
   103    43    45    1
   104    43    44    1
   105   114   115    1
   106   103   101   ar
   107   103   105   ar
   108   101   102   ar
   109   112   111    1
   110   109   110    2
   111    44    46    1
   112   105   106   ar
   113   115   116    2
   114   115   121   am
   115   102   104   ar
   116   121   122    1
   117   106   104   ar
   118   125   126    1
   119   122   123    1
   120   123   124    2
   121   132   130    1
   122   130   131    1
   123   130   129    1
   124   126   129    1
   125   126   127    1
   126   127   133   am
   127   127   128    2
   128   133   134    1
   129   135   134    1
   130   135   136    2
   131   137   134    1
   132   137   139    1
   133   137   138    1
   134   140   141    1
   135   144   141    1
   136   144   145    1
   137   141   142    1
   138   145   147   ar
   139   145   146   ar
   140   147   149   ar
   141   151   142   am
   142   151   152    1
   143   142   143    2
   144   146   148   ar
   145   157   155    1
   146   149   150   ar
   147   155   152    1
   148   155   156    1
   149   152   153    1
   150   148   150   ar
   151   153   154    2
