@<TRIPOS>MOLECULE
tmp/5y5tA00.pdb
 148 139 0 0 0
SMALL
GASTEIGER

@<TRIPOS>ATOM
      1  N         17.6740    8.6400    3.0790 N.3    13  LYS13      -0.1245
      2  CA        18.5160    7.4980    3.4650 C.3    13  LYS13       0.1561
      3  C         17.6680    6.3450    4.0120 C.2    13  LYS13       0.2260
      4  O         16.5210    6.5500    4.4260 O.2    13  LYS13      -0.2867
      5  CB        19.5810    7.9080    4.4990 C.3    13  LYS13       0.0271
      6  CG        19.0570    8.2670    5.8900 C.3    13  LYS13       0.0035
      7  CD        20.1410    8.1730    6.9590 C.3    13  LYS13       0.0206
      8  CE        19.5460    8.1970    8.3630 C.3    13  LYS13       0.1093
      9  NZ        20.5410    7.8330    9.4120 N.3    13  LYS13      -0.1314
     10  N         17.5920    2.5550    6.5360 N.3    15  LEU15      -0.1231
     11  CA        18.1570    1.8410    7.6860 C.3    15  LEU15       0.1693
     12  C         18.7310    0.4780    7.3060 C.2    15  LEU15       0.2592
     13  O         19.6350   -0.0100    7.9840 O.2    15  LEU15      -0.2718
     14  CB        17.0990    1.6430    8.7830 C.3    15  LEU15       0.0284
     15  CG        16.5410    2.9050    9.4430 C.3    15  LEU15       0.0019
     16  CD1       15.3040    2.5780   10.2650 C.3    15  LEU15       0.0001
     17  CD2       17.6000    3.5870   10.2960 C.3    15  LEU15       0.0001
     18  N         18.1960   -0.1430    6.2520 N.am   16  GLY16      -0.1957
     19  CA        18.6670   -1.4600    5.7980 C.3    16  GLY16       0.1869
     20  C         17.8060   -2.0710    4.7040 C.2    16  GLY16       0.2309
     21  O         17.0240   -1.3760    4.0480 O.2    16  GLY16      -0.2863
     22  N         13.9940   -0.8100    4.6960 N.3    18  VAL18      -0.1245
     23  CA        13.4280   -0.1290    5.8730 C.3    18  VAL18       0.1561
     24  C         13.9910    1.2860    5.9500 C.2    18  VAL18       0.2260
     25  O         15.2140    1.4510    5.9190 O.2    18  VAL18      -0.2867
     26  CB        13.7490   -0.8950    7.1710 C.3    18  VAL18       0.0252
     27  CG1       13.0910   -0.2310    8.3880 C.3    18  VAL18       0.0019
     28  CG2       13.3090   -2.3520    7.0390 C.3    18  VAL18       0.0019
     29  N          9.1960    3.7040   11.5250 N.3    33  ALA33      -0.1245
     30  CA        10.0190    2.8740   10.6730 C.3    33  ALA33       0.1562
     31  C          9.0980    2.3030    9.6360 C.2    33  ALA33       0.2260
     32  O          8.0170    1.7850    9.9780 O.2    33  ALA33      -0.2867
     33  CB        10.6370    1.7590   11.4760 C.3    33  ALA33       0.0290
     34  N          6.9540   -4.9010   18.7730 N.3    61  VAL61      -0.1245
     35  CA         6.8370   -3.7800   17.8380 C.3    61  VAL61       0.1561
     36  C          5.3920   -3.6100   17.3420 C.2    61  VAL61       0.2260
     37  O          4.7720   -4.5460   16.8390 O.2    61  VAL61      -0.2867
     38  CB         7.7600   -3.9450   16.6130 C.3    61  VAL61       0.0252
     39  CG1        7.4850   -2.8800   15.5740 C.3    61  VAL61       0.0019
     40  CG2        9.2090   -3.8570   17.0560 C.3    61  VAL61       0.0019
     41  N          5.5000    1.2070   10.9740 N.3    76  MET76      -0.1230
     42  CA         5.6310    0.6850   12.3400 C.3    76  MET76       0.1702
     43  C          6.2710    1.7250   13.2590 C.2    76  MET76       0.2592
     44  O          6.9280    2.6790   12.7860 O.2    76  MET76      -0.2718
     45  CB         6.4870   -0.5720   12.3120 C.3    76  MET76       0.0401
     46  CG         5.8790   -1.7050   11.4800 C.3    76  MET76       0.0596
     47  SD         7.0830   -2.9850   11.1700 S.3    76  MET76      -0.1393
     48  CE         7.9870   -2.2560    9.8070 C.3    76  MET76       0.0692
     49  N          6.1090    1.5320   14.5770 N.am   77  GLU77      -0.1966
     50  CA         6.8280    2.3660   15.5310 C.3    77  GLU77       0.1733
     51  C          8.3230    2.1870   15.3800 C.2    77  GLU77       0.2616
     52  O          8.7880    1.1120   15.0000 O.2    77  GLU77      -0.2715
     53  CB         6.4100    2.0800   16.9750 C.3    77  GLU77       0.0429
     54  CG         6.8530    0.7480   17.5190 C.3    77  GLU77       0.1163
     55  CD         6.3520    0.4960   18.9350 C.2    77  GLU77       0.3649
     56  OE1        6.1480    1.4710   19.6960 O.co2  77  GLU77      -0.2457
     57  OE2        6.1400   -0.6800   19.2750 O.co2  77  GLU77      -0.2457
     58  N          9.0590    3.2530   15.6900 N.am   78  MET78      -0.1963
     59  CA        10.5080    3.3160   15.6060 C.3    78  MET78       0.1736
     60  C         11.1720    2.8700   16.9180 C.2    78  MET78       0.2616
     61  O         10.8130    3.3510   17.9850 O.2    78  MET78      -0.2715
     62  CB        10.9240    4.7630   15.2750 C.3    78  MET78       0.0427
     63  CG        12.4250    5.0040   15.1290 C.3    78  MET78       0.0599
     64  SD        13.2220    4.0420   13.8210 S.3    78  MET78      -0.1393
     65  CE        12.6680    4.8480   12.3620 C.3    78  MET78       0.0692
     66  N         12.1050    1.9190   16.8310 N.am   79  ALA79      -0.1963
     67  CA        13.0170    1.5670   17.9230 C.3    79  ALA79       0.1728
     68  C         14.4050    2.1220   17.5690 C.2    79  ALA79       0.2616
     69  O         15.1570    1.5120   16.8190 O.2    79  ALA79      -0.2715
     70  CB        13.0780    0.0530   18.1140 C.3    79  ALA79       0.0334
     71  N         14.7390    3.2750   18.1410 N.am   80  GLU80      -0.1963
     72  CA        15.8710    4.0920   17.6860 C.3    80  GLU80       0.1733
     73  C         17.2470    3.4440   17.8640 C.2    80  GLU80       0.2616
     74  O         18.1430    3.6610   17.0470 O.2    80  GLU80      -0.2715
     75  CB        15.8700    5.4420   18.4240 C.3    80  GLU80       0.0429
     76  CG        14.6450    6.3130   18.1740 C.3    80  GLU80       0.1163
     77  CD        14.6730    7.0770   16.8620 C.2    80  GLU80       0.3649
     78  OE1       13.6780    7.7730   16.5730 O.co2  80  GLU80      -0.2457
     79  OE2       15.6630    6.9900   16.1280 O.co2  80  GLU80      -0.2457
     80  N         17.4160    2.6690   18.9250 N.am   81  LEU81      -0.1963
     81  CA        18.7170    2.0590   19.2420 C.3    81  LEU81       0.1728
     82  C         19.0360    0.8320   18.3870 C.2    81  LEU81       0.2617
     83  O         20.1780    0.3930   18.3780 O.2    81  LEU81      -0.2715
     84  CB        18.8440    1.7300   20.7460 C.3    81  LEU81       0.0311
     85  CG        19.3310    2.8710   21.6620 C.3    81  LEU81       0.0022
     86  CD1       18.5460    4.1340   21.4120 C.3    81  LEU81       0.0001
     87  CD2       19.2720    2.4780   23.1360 C.3    81  LEU81       0.0001
     88  N         18.0460    0.2950   17.6700 N.am   82  GLY82      -0.1941
     89  CA        18.2720   -0.7420   16.6770 C.3    82  GLY82       0.1998
     90  C         18.4480   -2.1420   17.2480 C.2    82  GLY82       0.2480
     91  O         18.1650   -2.3860   18.4330 O.2    82  GLY82      -0.2729
     92  N         18.9020   -3.0760   16.4090 N.am   83  PRO83      -0.2726
     93  CA        19.0090   -4.5070   16.8020 C.3    83  PRO83       0.1402
     94  C         19.8910   -4.7700   18.0460 C.2    83  PRO83       0.2269
     95  O         20.9400   -4.1240   18.2210 O.2    83  PRO83      -0.2865
     96  CB        19.6020   -5.1670   15.5610 C.3    83  PRO83       0.0296
     97  CG        19.3180   -4.2430   14.4430 C.3    83  PRO83       0.0237
     98  CD        19.3400   -2.8650   15.0120 C.3    83  PRO83       0.0939
     99  N         23.7490   -5.9330   17.5110 N.3    86  LYS86      -0.1245
    100  CA        24.5720   -4.7770   17.1200 C.3    86  LYS86       0.1561
    101  C         24.8120   -3.8250   18.2980 C.2    86  LYS86       0.2260
    102  O         25.9460   -3.3960   18.5350 O.2    86  LYS86      -0.2867
    103  CB        23.9380   -4.0430   15.9460 C.3    86  LYS86       0.0271
    104  CG        23.7580   -4.9200   14.7180 C.3    86  LYS86       0.0035
    105  CD        23.2140   -4.1590   13.5160 C.3    86  LYS86       0.0206
    106  CE        23.0610   -5.0750   12.3010 C.3    86  LYS86       0.1093
    107  NZ        22.1020   -4.5500   11.2880 N.3    86  LYS86      -0.1314
    108  N         19.0820  -10.3180   16.4110 N.3   126  ARG126     -0.1231
    109  CA        18.8640   -9.3500   15.3330 C.3   126  ARG126      0.1694
    110  C         17.4230   -8.8250   15.2200 C.2   126  ARG126      0.2592
    111  O         17.1850   -7.7620   14.6320 O.2   126  ARG126     -0.2718
    112  CB        19.2530   -9.9520   13.9830 C.3   126  ARG126      0.0321
    113  CG        18.4420  -11.1620   13.5960 C.3   126  ARG126      0.0489
    114  CD        18.7270  -11.6020   12.1780 C.3   126  ARG126      0.2205
    115  NE        18.0330  -12.8460   11.8940 N.pl3 126  ARG126     -0.0865
    116  CZ        18.3830  -14.0430   12.3560 C.cat 126  ARG126      0.5346
    117  NH1       19.4580  -14.2060   13.1240 N.pl3 126  ARG126      0.1354
    118  NH2       17.6600  -15.1020   12.0270 N.pl3 126  ARG126      0.1354
    119  N         16.4730   -9.5940   15.7510 N.am  127  ASN127     -0.1974
    120  CA        15.0570   -9.2680   15.7050 C.3   127  ASN127      0.1688
    121  C         14.5140   -8.8820   17.0760 C.2   127  ASN127      0.2292
    122  O         13.3330   -9.0660   17.3670 O.2   127  ASN127     -0.2864
    123  CB        14.3130  -10.4780   15.1370 C.3   127  ASN127      0.1181
    124  CG        14.6000  -10.6830   13.6660 C.2   127  ASN127      0.2629
    125  OD1       14.9490   -9.7340   12.9660 O.2   127  ASN127     -0.2716
    126  ND2       14.4760  -11.9040   13.1950 N.am  127  ASN127     -0.0877
    127  N         14.6680   -5.2940   18.9730 N.3   129  LEU129     -0.1245
    128  CA        15.0030   -3.8910   18.7890 C.3   129  LEU129      0.1561
    129  C         14.9260   -3.1530   20.1140 C.2   129  LEU129      0.2260
    130  O         14.0270   -3.3920   20.9100 O.2   129  LEU129     -0.2867
    131  CB        14.0610   -3.2440   17.7750 C.3   129  LEU129      0.0270
    132  CG        14.0710   -3.8230   16.3570 C.3   129  LEU129      0.0019
    133  CD1       12.9630   -3.2090   15.5080 C.3   129  LEU129      0.0001
    134  CD2       15.4160   -3.6080   15.6980 C.3   129  LEU129      0.0001
    135  N         10.6950   -7.9130   17.0090 N.3   139  SER139     -0.1202
    136  CA        10.3540   -7.4480   15.6780 C.3   139  SER139      0.2020
    137  C         10.3280   -8.5950   14.7030 C.2   139  SER139      0.2618
    138  O         10.5680   -9.7460   15.0760 O.2   139  SER139     -0.2717
    139  CB        11.3570   -6.3760   15.2190 C.3   139  SER139      0.2103
    140  OG        12.6370   -6.9230   14.9230 O.3   139  SER139     -0.2182
    141  N         10.0330   -8.2580   13.4440 N.am  140  ASP140     -0.1973
    142  CA        10.2160   -9.1320   12.3130 C.3   140  ASP140      0.1709
    143  C          9.3230  -10.3580   12.3310 C.2   140  ASP140      0.2293
    144  O          9.7800  -11.4700   12.5060 O.2   140  ASP140     -0.2864
    145  CB        11.6960   -9.4710   12.1290 C.3   140  ASP140      0.1436
    146  CG        12.4700   -8.2930   11.5870 C.2   140  ASP140      0.3671
    147  OD1       12.7960   -7.3830   12.3800 O.co2 140  ASP140     -0.2456
    148  OD2       12.6950   -8.2640   10.3500 O.co2 140  ASP140     -0.2456
@<TRIPOS>BOND
     1     1     2    1
     2     2     3    1
     3     2     5    1
     4     3     4    2
     5    21    20    2
     6     5     6    1
     7    22    23    1
     8    20    19    1
     9    19    18    1
    10    23    24    1
    11    23    26    1
    12     6     7    1
    13    25    24    2
    14    18    12   am
    15    10    11    1
    16     7     8    1
    17    28    26    1
    18    26    27    1
    19    12    11    1
    20    12    13    2
    21    11    14    1
    22     8     9    1
    23    14    15    1
    24    15    16    1
    25    15    17    1
    26    31    32    2
    27    31    30    1
    28    48    47    1
    29   148   146   ar
    30    30    33    1
    31    30    29    1
    32    41    42    1
    33    47    46    1
    34   107   106    1
    35    46    45    1
    36   146   145    1
    37   146   147   ar
    38   115   114    1
    39   115   116    2
    40   118   116    1
    41   145   142    1
    42   114   113    1
    43   106   105    1
    44    45    42    1
    45   142   143    1
    46   142   141    1
    47   143   144    2
    48    42    43    1
    49   116   117    1
    50    65    64    1
    51    44    43    2
    52   125   124    2
    53   126   124   am
    54    43    49   am
    55   141   137   am
    56   105   104    1
    57   113   112    1
    58   124   123    1
    59    64    63    1
    60   112   109    1
    61    97    98    1
    62    97    96    1
    63    49    50    1
    64   111   110    2
    65   137   138    2
    66   137   136    1
    67   104   103    1
    68   140   139    1
    69    52    51    2
    70    98    92    1
    71    63    62    1
    72   123   120    1
    73   139   136    1
    74   110   109    1
    75   110   119   am
    76    62    59    1
    77   109   108    1
    78    51    50    1
    79    51    58   am
    80   133   132    1
    81    50    53    1
    82    96    93    1
    83    39    38    1
    84    59    58    1
    85    59    60    1
    86   136   135    1
    87   134   132    1
    88   120   119    1
    89   120   121    1
    90   103   100    1
    91    79    77   ar
    92   132   131    1
    93    92    93    1
    94    92    90   am
    95    78    77   ar
    96    38    40    1
    97    38    35    1
    98    89    90    1
    99    89    88    1
   100    93    94    1
   101    69    68    2
   102    66    60   am
   103    66    67    1
   104    37    36    2
   105    77    76    1
   106    60    61    2
   107    53    54    1
   108    74    73    2
   109   121   122    2
   110   100    99    1
   111   100   101    1
   112    90    91    2
   113    36    35    1
   114    54    55    1
   115    68    67    1
   116    68    71   am
   117    88    82   am
   118    72    73    1
   119    72    71    1
   120    72    75    1
   121   131   128    1
   122    35    34    1
   123    73    80   am
   124    67    70    1
   125    94    95    2
   126    76    75    1
   127   101   102    2
   128    83    82    2
   129    82    81    1
   130   128   127    1
   131   128   129    1
   132    80    81    1
   133    55    57   ar
   134    55    56   ar
   135    81    84    1
   136   129   130    2
   137    84    85    1
   138    86    85    1
   139    85    87    1
