@<TRIPOS>MOLECULE
tmp/5y5uB00.pdb
 158 149 0 0 0
SMALL
GASTEIGER

@<TRIPOS>ATOM
      1  N          0.6770    4.2940  -44.4860 N.3    15  LEU15      -0.1231
      2  CA         1.1610    3.0040  -44.9730 C.3    15  LEU15       0.1693
      3  C          1.5780    3.0120  -46.4280 C.2    15  LEU15       0.2593
      4  O          2.2610    2.0890  -46.8570 O.2    15  LEU15      -0.2718
      5  CB         0.0970    1.9240  -44.7570 C.3    15  LEU15       0.0284
      6  CG        -0.1840    1.6520  -43.2820 C.3    15  LEU15       0.0019
      7  CD1       -1.2710    0.6020  -43.1420 C.3    15  LEU15       0.0001
      8  CD2        1.0880    1.2170  -42.5620 C.3    15  LEU15       0.0001
      9  N          1.1670    4.0290  -47.1850 N.am   16  GLY16      -0.1942
     10  CA         1.4400    4.0800  -48.6180 C.3    16  GLY16       0.2014
     11  C          0.3110    4.6580  -49.4520 C.2    16  GLY16       0.2640
     12  O         -0.8130    4.8440  -48.9800 O.2    16  GLY16      -0.2714
     13  N          0.6290    4.9050  -50.7150 N.am   17  SER17      -0.1935
     14  CA        -0.2550    5.5910  -51.6400 C.3    17  SER17       0.2055
     15  C         -0.6270    4.6280  -52.7560 C.2    17  SER17       0.2643
     16  O          0.2590    4.0970  -53.4250 O.2    17  SER17      -0.2714
     17  CB         0.4620    6.8220  -52.2020 C.3    17  SER17       0.2130
     18  OG        -0.4620    7.8250  -52.5840 O.3    17  SER17      -0.2179
     19  N         -1.9270    4.3880  -52.9410 N.am   18  GLY18      -0.1954
     20  CA        -2.4230    3.5080  -54.0110 C.3    18  GLY18       0.1869
     21  C         -2.6750    4.2660  -55.3060 C.2    18  GLY18       0.2309
     22  O         -2.0840    5.3270  -55.5350 O.2    18  GLY18      -0.2863
     23  N         -3.3520    5.6150  -47.7700 N.3    23  VAL23      -0.1245
     24  CA        -3.8440    4.6400  -46.7930 C.3    23  VAL23       0.1561
     25  C         -3.1310    4.7860  -45.4360 C.2    23  VAL23       0.2260
     26  O         -1.8970    4.8550  -45.3790 O.2    23  VAL23      -0.2867
     27  CB        -3.7310    3.1970  -47.3440 C.3    23  VAL23       0.0252
     28  CG1       -4.0220    2.1610  -46.2590 C.3    23  VAL23       0.0019
     29  CG2       -4.6750    3.0230  -48.5260 C.3    23  VAL23       0.0019
     30  N         -7.5210   -0.4240  -42.1650 N.3    38  ALA38      -0.1245
     31  CA        -6.7630    0.4260  -43.0730 C.3    38  ALA38       0.1562
     32  C         -7.7500    1.3600  -43.7920 C.2    38  ALA38       0.2260
     33  O         -8.7510    0.9100  -44.3510 O.2    38  ALA38      -0.2867
     34  CB        -5.9730   -0.4110  -44.0580 C.3    38  ALA38       0.0290
     35  N         -8.4780    4.4280  -46.5160 N.3    40  LYS40      -0.1245
     36  CA        -8.0560    5.1550  -47.7000 C.3    40  LYS40       0.1561
     37  C         -8.6430    6.5550  -47.6140 C.2    40  LYS40       0.2260
     38  O         -9.8480    6.7250  -47.4610 O.2    40  LYS40      -0.2867
     39  CB        -8.5320    4.4350  -48.9670 C.3    40  LYS40       0.0271
     40  CG        -7.9250    4.9220  -50.2870 C.3    40  LYS40       0.0035
     41  CD        -7.7000    3.7570  -51.2530 C.3    40  LYS40       0.0206
     42  CE        -7.2470    4.2410  -52.6130 C.3    40  LYS40       0.1093
     43  NZ        -7.1820    3.1860  -53.6580 N.3    40  LYS40      -0.1314
     44  N        -10.0070   -8.1430  -50.2290 N.3    67  VAL67      -0.1245
     45  CA       -10.0510   -7.2690  -49.1020 C.3    67  VAL67       0.1561
     46  C        -11.4480   -6.7290  -48.9680 C.2    67  VAL67       0.2260
     47  O        -12.0410   -6.3410  -49.9140 O.2    67  VAL67      -0.2867
     48  CB        -9.1310   -6.0690  -49.2550 C.3    67  VAL67       0.0252
     49  CG1       -9.3140   -5.1150  -48.1240 C.3    67  VAL67       0.0019
     50  CG2       -7.6820   -6.4750  -49.3500 C.3    67  VAL67       0.0019
     51  N        -11.2360   -0.0920  -44.7650 N.3    82  MET82      -0.1230
     52  CA       -11.0820   -1.5050  -45.0920 C.3    82  MET82       0.1702
     53  C        -10.4690   -2.2720  -43.9410 C.2    82  MET82       0.2592
     54  O         -9.8150   -1.6890  -43.0750 O.2    82  MET82      -0.2718
     55  CB       -10.2030   -1.6550  -46.3270 C.3    82  MET82       0.0401
     56  CG       -10.8520   -1.0940  -47.5900 C.3    82  MET82       0.0596
     57  SD        -9.6600   -0.7630  -48.8980 S.3    82  MET82      -0.1393
     58  CE        -8.8170    0.6820  -48.2520 C.3    82  MET82       0.0692
     59  N        -10.6740   -3.5880  -43.9340 N.am   83  GLU83      -0.1966
     60  CA        -9.9520   -4.4410  -42.9870 C.3    83  GLU83       0.1733
     61  C         -8.4580   -4.3160  -43.2550 C.2    83  GLU83       0.2616
     62  O         -8.0350   -4.0420  -44.3810 O.2    83  GLU83      -0.2715
     63  CB       -10.3840   -5.9050  -43.0790 C.3    83  GLU83       0.0429
     64  CG        -9.7160   -6.6880  -44.1900 C.3    83  GLU83       0.1163
     65  CD       -10.4320   -7.9680  -44.4960 C.2    83  GLU83       0.3649
     66  OE1      -10.9840   -8.5770  -43.5500 O.co2  83  GLU83      -0.2457
     67  OE2      -10.4470   -8.3550  -45.6830 O.co2  83  GLU83      -0.2457
     68  N         -7.6870   -4.5360  -42.2040 N.am   84  MET84      -0.1963
     69  CA        -6.2330   -4.4580  -42.2190 C.3    84  MET84       0.1736
     70  C         -5.6350   -5.8310  -42.5620 C.2    84  MET84       0.2616
     71  O         -6.0200   -6.8480  -41.9830 O.2    84  MET84      -0.2715
     72  CB        -5.7690   -3.9940  -40.8260 C.3    84  MET84       0.0427
     73  CG        -4.2850   -4.0850  -40.5320 C.3    84  MET84       0.0599
     74  SD        -3.3240   -3.0020  -41.5940 S.3    84  MET84      -0.1393
     75  CE        -3.2320   -1.5610  -40.5560 C.3    84  MET84       0.0692
     76  N         -4.7020   -5.8430  -43.5100 N.am   85  ALA85      -0.1963
     77  CA        -3.8740   -7.0060  -43.8280 C.3    85  ALA85       0.1728
     78  C         -2.4850   -6.6830  -43.2980 C.2    85  ALA85       0.2616
     79  O         -1.7160   -5.9960  -43.9630 O.2    85  ALA85      -0.2715
     80  CB        -3.8430   -7.2400  -45.3350 C.3    85  ALA85       0.0334
     81  N         -2.1710   -7.1860  -42.1080 N.am   86  GLU86      -0.1963
     82  CA        -1.0610   -6.6540  -41.2890 C.3    86  GLU86       0.1733
     83  C          0.3370   -6.7870  -41.9220 C.2    86  GLU86       0.2616
     84  O          1.1630   -5.8720  -41.8150 O.2    86  GLU86      -0.2715
     85  CB        -1.0660   -7.3090  -39.8960 C.3    86  GLU86       0.0429
     86  CG        -0.5120   -6.4230  -38.7850 C.3    86  GLU86       0.1163
     87  CD        -1.5610   -5.5820  -38.0690 C.2    86  GLU86       0.3649
     88  OE1       -2.7240   -6.0020  -37.8870 O.co2  86  GLU86      -0.2457
     89  OE2       -1.2060   -4.4730  -37.6610 O.co2  86  GLU86      -0.2457
     90  N          0.5950   -7.9140  -42.5800 N.am   87  LEU87      -0.1963
     91  CA         1.8970   -8.1560  -43.2230 C.3    87  LEU87       0.1728
     92  C          2.1680   -7.2640  -44.4370 C.2    87  LEU87       0.2617
     93  O          3.3230   -7.0370  -44.7760 O.2    87  LEU87      -0.2715
     94  CB         2.0520   -9.6390  -43.6050 C.3    87  LEU87       0.0311
     95  CG         2.0970  -10.6250  -42.4330 C.3    87  LEU87       0.0022
     96  CD1        2.1170  -12.0610  -42.9230 C.3    87  LEU87       0.0001
     97  CD2        3.2940  -10.3580  -41.5340 C.3    87  LEU87       0.0001
     98  N          1.1180   -6.7650  -45.0860 N.am   88  GLY88      -0.1941
     99  CA         1.2740   -5.7980  -46.1750 C.3    88  GLY88       0.1998
    100  C          1.4670   -6.4140  -47.5580 C.2    88  GLY88       0.2480
    101  O          1.1640   -7.5980  -47.7550 O.2    88  GLY88      -0.2729
    102  N          1.9530   -5.6090  -48.5300 N.am   89  PRO89      -0.2726
    103  CA         2.0500   -6.0420  -49.9290 C.3    89  PRO89       0.1402
    104  C          2.9420   -7.2720  -50.1530 C.2    89  PRO89       0.2269
    105  O          3.9760   -7.4190  -49.4870 O.2    89  PRO89      -0.2865
    106  CB         2.6260   -4.7980  -50.6420 C.3    89  PRO89       0.0296
    107  CG         2.2890   -3.6490  -49.7530 C.3    89  PRO89       0.0237
    108  CD         2.4650   -4.2330  -48.3810 C.3    89  PRO89       0.0939
    109  N          6.8510   -6.4230  -51.3330 N.3    92  LYS92      -0.1245
    110  CA         7.7560   -5.9330  -50.2920 C.3    92  LYS92       0.1561
    111  C          7.9230   -6.9780  -49.1830 C.2    92  LYS92       0.2260
    112  O          8.9720   -7.0220  -48.5380 O.2    92  LYS92      -0.2867
    113  CB         7.2560   -4.5940  -49.7340 C.3    92  LYS92       0.0271
    114  CG         8.1050   -3.9570  -48.6350 C.3    92  LYS92       0.0035
    115  CD         9.5110   -3.5600  -49.0780 C.3    92  LYS92       0.0206
    116  CE        10.2500   -2.8770  -47.9270 C.3    92  LYS92       0.1093
    117  NZ        11.6520   -2.4200  -48.1710 N.3    92  LYS92      -0.1314
    118  N          2.1330   -5.9580  -55.6630 N.3   132  ARG132     -0.1231
    119  CA         1.8740   -4.8580  -54.7230 C.3   132  ARG132      0.1694
    120  C          0.4040   -4.7560  -54.2490 C.2   132  ARG132      0.2592
    121  O          0.1470   -4.2760  -53.1580 O.2   132  ARG132     -0.2718
    122  CB         2.3440   -3.5070  -55.3180 C.3   132  ARG132      0.0321
    123  CG         1.6260   -3.1090  -56.6000 C.3   132  ARG132      0.0489
    124  CD         1.9840   -1.7280  -57.1460 C.3   132  ARG132      0.2205
    125  NE         1.2770   -1.4910  -58.4180 N.pl3 132  ARG132     -0.0865
    126  CZ         1.6110   -2.0050  -59.6040 C.cat 132  ARG132      0.5346
    127  NH1        2.6630   -2.7930  -59.7330 N.pl3 132  ARG132      0.1354
    128  NH2        0.8830   -1.7300  -60.6890 N.pl3 132  ARG132      0.1354
    129  N         -0.5500   -5.1930  -55.0610 N.am  133  ASN133     -0.1974
    130  CA        -1.9530   -5.2340  -54.6420 C.3   133  ASN133      0.1688
    131  C         -2.4250   -6.6110  -54.1730 C.2   133  ASN133      0.2292
    132  O         -3.6270   -6.8640  -54.1180 O.2   133  ASN133     -0.2864
    133  CB        -2.8470   -4.7450  -55.7730 C.3   133  ASN133      0.1181
    134  CG        -2.5560   -3.3130  -56.1690 C.2   133  ASN133      0.2629
    135  OD1       -2.1280   -2.5100  -55.3440 O.2   133  ASN133     -0.2716
    136  ND2       -2.7920   -2.9840  -57.4430 N.am  133  ASN133     -0.0877
    137  N         -2.2270   -8.4970  -50.6800 N.3   135  LEU135     -0.1245
    138  CA        -1.9170   -8.0920  -49.3150 C.3   135  LEU135      0.1561
    139  C         -2.0060   -9.2840  -48.3870 C.2   135  LEU135      0.2260
    140  O         -2.9550  -10.0690  -48.4620 O.2   135  LEU135     -0.2867
    141  CB        -2.8540   -6.9850  -48.8510 C.3   135  LEU135      0.0270
    142  CG        -2.7780   -5.6900  -49.6550 C.3   135  LEU135      0.0019
    143  CD1       -3.8250   -4.7240  -49.1460 C.3   135  LEU135      0.0001
    144  CD2       -1.3920   -5.0690  -49.5870 C.3   135  LEU135      0.0001
    145  N         -6.2850   -6.5240  -53.4870 N.3   145  SER145     -0.1202
    146  CA        -6.6000   -5.1950  -53.0710 C.3   145  SER145      0.2020
    147  C         -6.5370   -4.1800  -54.2070 C.2   145  SER145      0.2618
    148  O         -6.1550   -4.4860  -55.2670 O.2   145  SER145     -0.2717
    149  CB        -5.6650   -4.7780  -51.9380 C.3   145  SER145      0.2103
    150  OG        -4.4190   -4.3810  -52.4090 O.3   145  SER145     -0.2182
    151  N         -6.9680   -2.9780  -53.9030 N.am  146  ASP146     -0.1973
    152  CA        -7.0020   -1.7920  -54.7940 C.3   146  ASP146      0.1709
    153  C         -7.7640   -1.6920  -56.1030 C.2   146  ASP146      0.2293
    154  O         -7.2100   -1.4950  -57.1290 O.2   146  ASP146     -0.2864
    155  CB        -5.6140   -1.3170  -55.1650 C.3   146  ASP146      0.1436
    156  CG        -5.5980    0.1100  -55.6380 C.2   146  ASP146      0.3671
    157  OD1       -4.5720    0.7350  -55.6290 O.co2 146  ASP146     -0.2456
    158  OD2       -6.6100    0.6190  -56.0380 O.co2 146  ASP146     -0.2456
@<TRIPOS>BOND
     1   128   126    1
     2   127   126    1
     3   126   125    2
     4   125   124    1
     5   136   134   am
     6   124   123    1
     7   154   153    2
     8   123   122    1
     9   134   133    1
    10   134   135    2
    11   153   152    1
    12   158   156   ar
    13   133   130    1
    14   118   119    1
    15   156   157   ar
    16   156   155    1
    17    22    21    2
    18   122   119    1
    19    21    20    1
    20   148   147    2
    21   155   152    1
    22   129   130    1
    23   129   120   am
    24   152   151    1
    25   119   120    1
    26   130   131    1
    27   120   121    2
    28   147   151   am
    29   147   146    1
    30   131   132    2
    31    20    19    1
    32    43    42    1
    33   145   146    1
    34    16    15    2
    35   146   149    1
    36    19    15   am
    37    15    14    1
    38    42    41    1
    39    18    17    1
    40   150   149    1
    41    17    14    1
    42    14    13    1
    43   109   110    1
    44    41    40    1
    45    13    11   am
    46   137   138    1
    47   106   103    1
    48   106   107    1
    49   110   113    1
    50   110   111    1
    51    40    39    1
    52    44    45    1
    53   104   103    1
    54   104   105    2
    55   103   102    1
    56    47    46    2
    57   107   108    1
    58   113   114    1
    59   142   144    1
    60   142   143    1
    61   142   141    1
    62    11    12    2
    63    11    10    1
    64    50    48    1
    65   138   141    1
    66   138   139    1
    67    48    45    1
    68    48    49    1
    69   111   112    2
    70    45    46    1
    71   115   114    1
    72   115   116    1
    73    39    36    1
    74    57    58    1
    75    57    56    1
    76    10     9    1
    77   102   108    1
    78   102   100   am
    79    29    27    1
    80   140   139    2
    81   117   116    1
    82    23    24    1
    83   101   100    2
    84    36    37    1
    85    36    35    1
    86    37    38    2
    87    56    55    1
    88   100    99    1
    89    27    24    1
    90    27    28    1
    91     9     3   am
    92     4     3    2
    93    24    25    1
    94     3     2    1
    95    55    52    1
    96    99    98    1
    97    67    65   ar
    98    25    26    2
    99    80    77    1
   100    52    51    1
   101    52    53    1
   102    98    92   am
   103     2     5    1
   104     2     1    1
   105    93    92    2
   106     5     6    1
   107    65    64    1
   108    65    66   ar
   109    92    91    1
   110    62    61    2
   111    33    32    2
   112    64    63    1
   113    34    31    1
   114    79    78    2
   115    53    59   am
   116    53    54    2
   117    59    60    1
   118    77    76    1
   119    77    78    1
   120    32    31    1
   121    94    91    1
   122    94    95    1
   123    76    70   am
   124    78    81   am
   125     6     7    1
   126     6     8    1
   127    61    60    1
   128    61    68   am
   129    91    90    1
   130    63    60    1
   131    31    30    1
   132    96    95    1
   133    90    83   am
   134    70    69    1
   135    70    71    2
   136    95    97    1
   137    69    68    1
   138    69    72    1
   139    81    82    1
   140    83    84    2
   141    83    82    1
   142    74    75    1
   143    74    73    1
   144    82    85    1
   145    72    73    1
   146    85    86    1
   147    86    87    1
   148    87    88   ar
   149    87    89   ar
