@<TRIPOS>MOLECULE
tmp/5y5uA00.pdb
 149 141 0 0 0
SMALL
GASTEIGER

@<TRIPOS>ATOM
      1  N         -1.9840  -11.3790    2.5220 N.3    14  LEU14      -0.1231
      2  CA        -2.4420  -10.2400    1.7300 C.3    14  LEU14       0.1693
      3  C         -2.8210  -10.6210    0.3040 C.2    14  LEU14       0.2593
      4  O         -3.4450   -9.8250   -0.3940 O.2    14  LEU14      -0.2718
      5  CB        -1.3600   -9.1630    1.6760 C.3    14  LEU14       0.0284
      6  CG        -0.8540   -8.6250    3.0160 C.3    14  LEU14       0.0019
      7  CD1        0.2230   -7.5800    2.7830 C.3    14  LEU14       0.0001
      8  CD2       -1.9890   -8.0550    3.8500 C.3    14  LEU14       0.0001
      9  N         -2.4310  -11.8180   -0.1330 N.am   15  GLY15      -0.1942
     10  CA        -2.6310  -12.2580   -1.5130 C.3    15  GLY15       0.2014
     11  C         -1.4740  -13.1250   -1.9680 C.2    15  GLY15       0.2640
     12  O         -0.5500  -13.4000   -1.1950 O.2    15  GLY15      -0.2714
     13  N         -1.5210  -13.5360   -3.2320 N.am   16  SER16      -0.1935
     14  CA        -0.5400  -14.4660   -3.7930 C.3    16  SER16       0.2055
     15  C          0.1320  -13.8920   -5.0340 C.2    16  SER16       0.2643
     16  O         -0.5030  -13.2060   -5.8280 O.2    16  SER16      -0.2714
     17  CB        -1.2160  -15.7970   -4.1380 C.3    16  SER16       0.2130
     18  OG        -0.2520  -16.8090   -4.3940 O.3    16  SER16      -0.2179
     19  N          1.4250  -14.1790   -5.1740 N.am   17  GLY17      -0.1954
     20  CA         2.2120  -13.8520   -6.3640 C.3    17  GLY17       0.1869
     21  C          2.7090  -15.1460   -6.9750 C.2    17  GLY17       0.2309
     22  O          2.2980  -16.2300   -6.5510 O.2    17  GLY17      -0.2863
     23  N          1.9630  -13.5510    0.0470 N.3    22  VAL22      -0.1245
     24  CA         2.5060  -12.3470    0.6480 C.3    22  VAL22       0.1561
     25  C          1.8020  -12.0820    1.9760 C.2    22  VAL22       0.2260
     26  O          0.5710  -12.1370    2.0510 O.2    22  VAL22      -0.2867
     27  CB         2.3930  -11.1490   -0.3140 C.3    22  VAL22       0.0252
     28  CG1        2.8770   -9.8670    0.3560 C.3    22  VAL22       0.0019
     29  CG2        3.2070  -11.4370   -1.5660 C.3    22  VAL22       0.0019
     30  N          6.4640   -6.2460    3.6480 N.3    37  ALA37      -0.1245
     31  CA         5.6760   -7.2970    2.9980 C.3    37  ALA37       0.1562
     32  C          6.6130   -8.4500    2.6830 C.2    37  ALA37       0.2260
     33  O          7.7070   -8.2280    2.1650 O.2    37  ALA37      -0.2867
     34  CB         5.0220   -6.7750    1.7270 C.3    37  ALA37       0.0290
     35  N          9.4810   -1.7630   -6.5450 N.3    65  VAL65      -0.1245
     36  CA         9.5010   -2.2690   -5.1680 C.3    65  VAL65       0.1561
     37  C         10.9070   -2.6910   -4.7980 C.2    65  VAL65       0.2260
     38  O         11.5000   -3.5090   -5.4990 O.2    65  VAL65      -0.2867
     39  CB         8.5460   -3.4770   -5.0100 C.3    65  VAL65       0.0252
     40  CG1        8.6250   -4.1110   -3.6300 C.3    65  VAL65       0.0019
     41  CG2        7.1260   -3.0410   -5.2890 C.3    65  VAL65       0.0019
     42  N         10.3010   -7.5480    1.4680 N.3    80  MET80      -0.1230
     43  CA        10.2040   -6.3240    0.6720 C.3    80  MET80       0.1702
     44  C          9.5950   -5.1850    1.4530 C.2    80  MET80       0.2592
     45  O          8.8960   -5.4090    2.4310 O.2    80  MET80      -0.2718
     46  CB         9.3350   -6.5960   -0.5460 C.3    80  MET80       0.0401
     47  CG         9.9800   -7.4910   -1.5800 C.3    80  MET80       0.0596
     48  SD         8.7370   -8.1100   -2.7220 S.3    80  MET80      -0.1393
     49  CE         8.2160   -9.6240   -1.9360 C.3    80  MET80       0.0692
     50  N          9.7910   -3.9720    0.9800 N.am   81  GLU81      -0.1966
     51  CA         9.0970   -2.8270    1.5330 C.3    81  GLU81       0.1733
     52  C          7.5830   -2.9920    1.3700 C.2    81  GLU81       0.2616
     53  O          7.1300   -3.6150    0.4750 O.2    81  GLU81      -0.2715
     54  CB         9.5200   -1.5010    0.8840 C.3    81  GLU81       0.0429
     55  CG         8.8280   -1.2410   -0.4380 C.3    81  GLU81       0.1163
     56  CD         9.3120   -0.0190   -1.1610 C.2    81  GLU81       0.3649
     57  OE1        9.1190    1.0710   -0.6340 O.co2  81  GLU81      -0.2457
     58  OE2        9.8530   -0.1500   -2.2630 O.co2  81  GLU81      -0.2457
     59  N          6.8370   -2.3630    2.2400 N.am   82  MET82      -0.1963
     60  CA         5.3930   -2.4460    2.2700 C.3    82  MET82       0.1736
     61  C          4.8120   -1.2800    1.5140 C.2    82  MET82       0.2616
     62  O          5.0520   -0.1680    1.8570 O.2    82  MET82      -0.2715
     63  CB         4.9210   -2.3960    3.7190 C.3    82  MET82       0.0427
     64  CG         3.4380   -2.3360    3.9880 C.3    82  MET82       0.0599
     65  SD         2.5250   -3.7990    3.6510 S.3    82  MET82      -0.1393
     66  CE         1.8900   -3.2650    2.1480 C.3    82  MET82       0.0692
     67  N          4.0750   -1.5500    0.4610 N.am   83  ALA83      -0.1963
     68  CA         3.2290   -0.5600   -0.1730 C.3    83  ALA83       0.1728
     69  C          1.8280   -0.6090    0.4160 C.2    83  ALA83       0.2616
     70  O          1.0430   -1.4380    0.0490 O.2    83  ALA83      -0.2715
     71  CB         3.1890   -0.8190   -1.6400 C.3    83  ALA83       0.0334
     72  N          1.5230    0.3150    1.3060 N.am   84  GLU84      -0.1963
     73  CA         0.3360    0.1720    2.1810 C.3    84  GLU84       0.1733
     74  C         -0.9940    0.0810    1.4050 C.2    84  GLU84       0.2616
     75  O         -1.8440   -0.7140    1.7710 O.2    84  GLU84      -0.2715
     76  CB         0.2440    1.2770    3.2650 C.3    84  GLU84       0.0429
     77  CG         1.3350    1.2810    4.3550 C.3    84  GLU84       0.1163
     78  CD         1.2420    0.1560    5.3940 C.2    84  GLU84       0.3649
     79  OE1        0.1820   -0.4910    5.5300 O.co2  84  GLU84      -0.2457
     80  OE2        2.2550   -0.0740    6.0950 O.co2  84  GLU84      -0.2457
     81  N         -1.1640    0.8620    0.3370 N.am   85  LEU85      -0.1963
     82  CA        -2.4420    0.8740   -0.4170 C.3    85  LEU85       0.1728
     83  C         -2.7210   -0.3530   -1.2750 C.2    85  LEU85       0.2617
     84  O         -3.8320   -0.5100   -1.7760 O.2    85  LEU85      -0.2715
     85  CB        -2.5660    2.1360   -1.2820 C.3    85  LEU85       0.0311
     86  CG        -2.8380    3.4290   -0.5180 C.3    85  LEU85       0.0022
     87  CD1       -2.9850    4.5750   -1.4980 C.3    85  LEU85       0.0001
     88  CD2       -4.0810    3.3060    0.3500 C.3    85  LEU85       0.0001
     89  N         -1.7210   -1.2020   -1.4690 N.am   86  GLY86      -0.1941
     90  CA        -1.9320   -2.4550   -2.1530 C.3    86  GLY86       0.1998
     91  C         -2.0020   -2.3200   -3.6590 C.2    86  GLY86       0.2480
     92  O         -1.7090   -1.2580   -4.2170 O.2    86  GLY86      -0.2729
     93  N         -2.4190   -3.3990   -4.3280 N.am   87  PRO87      -0.2726
     94  CA        -2.4240   -3.4530   -5.7840 C.3    87  PRO87       0.1402
     95  C         -3.3650   -2.4500   -6.4760 C.2    87  PRO87       0.2269
     96  O         -4.4840   -2.2160   -6.0030 O.2    87  PRO87      -0.2865
     97  CB        -2.8350   -4.8950   -6.0840 C.3    87  PRO87       0.0296
     98  CG        -3.5080   -5.3780   -4.8670 C.3    87  PRO87       0.0237
     99  CD        -2.8620   -4.6660   -3.7260 C.3    87  PRO87       0.0939
    100  N         -7.2010   -3.4600   -7.4060 N.3    90  LYS90      -0.1245
    101  CA        -8.0730   -3.4320   -6.2160 C.3    90  LYS90       0.1561
    102  C         -8.3460   -2.0360   -5.7130 C.2    90  LYS90       0.2260
    103  O         -9.4790   -1.7030   -5.3790 O.2    90  LYS90      -0.2867
    104  CB        -7.4810   -4.2520   -5.0540 C.3    90  LYS90       0.0271
    105  CG        -7.6970   -5.7580   -5.1240 C.3    90  LYS90       0.0035
    106  CD        -9.0530   -6.0990   -5.7270 C.3    90  LYS90       0.0206
    107  CE        -9.4280   -7.5580   -5.6060 C.3    90  LYS90       0.1093
    108  NZ        -8.5270   -8.3890   -6.4560 N.3    90  LYS90      -0.1314
    109  N         -2.4510   -5.8750  -11.2200 N.3   130  ARG130     -0.1231
    110  CA        -2.2720   -6.5660   -9.9320 C.3   130  ARG130      0.1694
    111  C         -0.8450   -6.4590   -9.3690 C.2   130  ARG130      0.2592
    112  O         -0.6650   -6.4260   -8.1570 O.2   130  ARG130     -0.2718
    113  CB        -2.7050   -8.0430  -10.0180 C.3   130  ARG130      0.0321
    114  CG        -1.7630   -8.8920  -10.8410 C.3   130  ARG130      0.0489
    115  CD        -2.1840  -10.3440  -10.9780 C.3   130  ARG130      0.2205
    116  NE        -1.3570  -10.9860  -12.0070 N.pl3 130  ARG130     -0.0865
    117  CZ        -1.6040  -10.9950  -13.3190 C.cat 130  ARG130      0.5346
    118  NH1       -2.6810  -10.4100  -13.8400 N.pl3 130  ARG130      0.1354
    119  NH2       -0.7580  -11.6090  -14.1350 N.pl3 130  ARG130      0.1354
    120  N          0.1690   -6.4120  -10.2280 N.am  131  ASN131     -0.1974
    121  CA         1.5470   -6.2310   -9.7670 C.3   131  ASN131      0.1688
    122  C          2.0650   -4.7900   -9.8420 C.2   131  ASN131      0.2292
    123  O          3.2760   -4.5900   -9.8980 O.2   131  ASN131     -0.2864
    124  CB         2.4940   -7.1390  -10.5400 C.3   131  ASN131      0.1181
    125  CG         2.0840   -8.5990  -10.4770 C.2   131  ASN131      0.2629
    126  OD1        1.6960   -9.0960   -9.4220 O.2   131  ASN131     -0.2716
    127  ND2        2.1530   -9.2870  -11.6120 N.am  131  ASN131     -0.0877
    128  N          1.9810   -1.7560   -7.2760 N.3   133  LEU133     -0.1245
    129  CA         1.6220   -1.5040   -5.8830 C.3   133  LEU133      0.1561
    130  C          1.6440   -0.0260   -5.5510 C.2   133  LEU133      0.2260
    131  O          2.5460    0.7020   -5.9710 O.2   133  LEU133     -0.2867
    132  CB         2.5450   -2.2780   -4.9510 C.3   133  LEU133      0.0270
    133  CG         2.4830   -3.7970   -5.1490 C.3   133  LEU133      0.0019
    134  CD1        3.5640   -4.4790   -4.3260 C.3   133  LEU133      0.0001
    135  CD2        1.1290   -4.3570   -4.7640 C.3   133  LEU133      0.0001
    136  N          6.1210   -4.5080   -8.9900 N.3   143  SER143     -0.1202
    137  CA         6.5170   -5.6370   -8.1910 C.3   143  SER143      0.2020
    138  C          6.3560   -6.9450   -8.9140 C.2   143  SER143      0.2618
    139  O          5.8660   -6.9820  -10.0010 O.2   143  SER143     -0.2717
    140  CB         5.7780   -5.6830   -6.8510 C.3   143  SER143      0.2103
    141  OG         4.4660   -6.0680   -6.9720 O.3   143  SER143     -0.2182
    142  N          6.8310   -7.9890   -8.2500 N.am  144  ASP144     -0.1973
    143  CA         6.7490   -9.3700   -8.6450 C.3   144  ASP144      0.1709
    144  C          7.5760   -9.6380   -9.8860 C.2   144  ASP144      0.2293
    145  O          7.0960   -9.5640  -11.0100 O.2   144  ASP144     -0.2864
    146  CB         5.3240   -9.8790   -8.7900 C.3   144  ASP144      0.1436
    147  CG         5.2680  -11.4010   -8.7640 C.2   144  ASP144      0.3671
    148  OD1        4.2270  -11.9680   -8.3950 O.co2 144  ASP144     -0.2456
    149  OD2        6.2880  -12.0370   -9.1080 O.co2 144  ASP144     -0.2456
@<TRIPOS>BOND
     1   119   117    1
     2   118   117    1
     3   117   116    2
     4   116   115    1
     5   127   125   am
     6   109   110    1
     7   145   144    2
     8   115   114    1
     9   114   113    1
    10   124   125    1
    11   124   121    1
    12   125   126    2
    13   120   121    1
    14   120   111   am
    15   113   110    1
    16   139   138    2
    17   110   111    1
    18   123   122    2
    19   144   143    1
    20   122   121    1
    21   111   112    2
    22   149   147   ar
    23   136   137    1
    24   138   142   am
    25   138   137    1
    26   146   147    1
    27   146   143    1
    28   147   148   ar
    29   143   142    1
    30   137   140    1
    31   100   101    1
    32   128   129    1
    33    21    22    2
    34    21    20    1
    35   141   140    1
    36    35    36    1
    37    95    96    2
    38    95    94    1
    39   108   107    1
    40    20    19    1
    41   101   102    1
    42   101   104    1
    43    97    94    1
    44    97    98    1
    45   131   130    2
    46   129   130    1
    47   129   132    1
    48    16    15    2
    49    94    93    1
    50   106   107    1
    51   106   105    1
    52   102   103    2
    53    38    37    2
    54    41    39    1
    55    19    15   am
    56    36    39    1
    57    36    37    1
    58   133   132    1
    59   133   135    1
    60   133   134    1
    61   105   104    1
    62    15    14    1
    63    39    40    1
    64    98    99    1
    65    18    17    1
    66    93    99    1
    67    93    91   am
    68    92    91    2
    69    17    14    1
    70    14    13    1
    71    91    90    1
    72    13    11   am
    73    48    49    1
    74    48    47    1
    75    58    56   ar
    76    90    89    1
    77    11    10    1
    78    11    12    2
    79    84    83    2
    80    71    68    1
    81    47    46    1
    82    29    27    1
    83    10     9    1
    84    87    86    1
    85    89    83   am
    86    85    86    1
    87    85    82    1
    88    83    82    1
    89    56    57   ar
    90    56    55    1
    91    46    43    1
    92    86    88    1
    93    55    54    1
    94    82    81    1
    95     4     3    2
    96    27    28    1
    97    27    24    1
    98    68    69    1
    99    68    67    1
   100     9     3   am
   101    23    24    1
   102    70    69    2
   103     3     2    1
   104    81    74   am
   105    69    72   am
   106    67    61   am
   107    53    52    2
   108    24    25    1
   109    43    44    1
   110    43    42    1
   111    54    51    1
   112    50    44   am
   113    50    51    1
   114    72    73    1
   115    52    51    1
   116    52    59   am
   117    74    75    2
   118    74    73    1
   119    44    45    2
   120    61    62    2
   121    61    60    1
   122     5     2    1
   123     5     6    1
   124    34    31    1
   125     2     1    1
   126    25    26    2
   127    66    65    1
   128    33    32    2
   129    73    76    1
   130    59    60    1
   131    60    63    1
   132    32    31    1
   133     7     6    1
   134    31    30    1
   135     6     8    1
   136    76    77    1
   137    65    64    1
   138    63    64    1
   139    77    78    1
   140    78    79   ar
   141    78    80   ar
