@<TRIPOS>MOLECULE
tmp/5y5yA00.pdb
 129 128 0 0 0
SMALL
GASTEIGER

@<TRIPOS>ATOM
      1  N        179.7810  179.9250  231.8000 N.3   230  PHE230     -0.1227
      2  CA       181.1080  180.4000  232.0590 C.3   230  PHE230      0.1736
      3  C        181.7770  180.7950  230.7900 C.2   230  PHE230      0.2596
      4  O        181.8260  180.0570  229.8200 O.2   230  PHE230     -0.2718
      5  CB       181.9610  179.4070  232.8780 C.3   230  PHE230      0.0547
      6  CG       182.5620  178.4040  232.0110 C.ar  230  PHE230     -0.0202
      7  CD1      183.8830  178.5680  231.6420 C.ar  230  PHE230     -0.0042
      8  CD2      181.7610  177.4500  231.3780 C.ar  230  PHE230     -0.0042
      9  CE1      184.4420  177.6830  230.7290 C.ar  230  PHE230     -0.0003
     10  CE2      182.3120  176.5730  230.4500 C.ar  230  PHE230     -0.0003
     11  CZ       183.6720  176.6620  230.1630 C.ar  230  PHE230     -0.0000
     12  N        182.2860  182.0150  230.7500 N.am  231  GLY231     -0.1942
     13  CA       182.8770  182.4930  229.5670 C.3   231  GLY231      0.2014
     14  C        181.7290  182.9280  228.7910 C.2   231  GLY231      0.2640
     15  O        181.2090  182.1590  228.0100 O.2   231  GLY231     -0.2714
     16  N        181.2970  184.1540  229.0180 N.am  232  SER232     -0.1935
     17  CA       180.1690  184.6190  228.3490 C.3   232  SER232      0.2055
     18  C        180.1160  186.0630  228.5470 C.2   232  SER232      0.2644
     19  O        179.2160  186.6910  228.0260 O.2   232  SER232     -0.2714
     20  CB       178.8740  184.0950  228.9520 C.3   232  SER232      0.2130
     21  OG       178.7380  182.7040  228.7360 O.3   232  SER232     -0.2179
     22  N        181.0700  186.6760  229.2490 N.am  233  GLY233     -0.1939
     23  CA       181.0570  188.1110  229.3710 C.3   233  GLY233      0.2014
     24  C        180.3120  188.5880  230.5150 C.2   233  GLY233      0.2639
     25  O        180.0010  189.7660  230.6110 O.2   233  GLY233     -0.2714
     26  N        179.9210  187.6660  231.3800 N.am  234  LYS234     -0.1963
     27  CA       179.0900  187.9410  232.4890 C.3   234  LYS234      0.1728
     28  C        179.6090  189.0080  233.3080 C.2   234  LYS234      0.2617
     29  O        178.8440  189.8210  233.7870 O.2   234  LYS234     -0.2715
     30  CB       178.9360  186.7600  233.4100 C.3   234  LYS234      0.0311
     31  CG       177.8270  186.8970  234.4380 C.3   234  LYS234      0.0038
     32  CD       177.9040  185.7790  235.4860 C.3   234  LYS234      0.0206
     33  CE       177.8300  184.3550  234.9020 C.3   234  LYS234      0.1093
     34  NZ       179.1430  183.8440  234.4210 N.3   234  LYS234     -0.1314
     35  N        180.9160  189.0440  233.4880 N.am  235  THR235     -0.1937
     36  CA       181.4800  190.0620  234.2770 C.3   235  THR235      0.2028
     37  C        181.6460  191.2840  233.4870 C.2   235  THR235      0.2642
     38  O        181.5770  192.3760  234.0270 O.2   235  THR235     -0.2714
     39  CB       182.7700  189.6040  234.8410 C.3   235  THR235      0.1808
     40  OG1      183.2840  190.5390  235.7630 O.3   235  THR235     -0.2208
     41  CG2      183.7710  189.3210  233.7330 C.3   235  THR235      0.0379
     42  N        182.0250  191.1700  232.2220 N.am  236  VAL236     -0.1977
     43  CA       182.4030  192.3740  231.5920 C.3   236  VAL236      0.1596
     44  C        181.2910  193.2520  231.2870 C.2   236  VAL236      0.2287
     45  O        181.4380  194.4570  231.3660 O.2   236  VAL236     -0.2864
     46  CB       183.0360  192.0450  230.2990 C.3   236  VAL236      0.0276
     47  CG1      183.6120  193.3090  229.6410 C.3   236  VAL236      0.0022
     48  CG2      184.1550  191.0420  230.6070 C.3   236  VAL236      0.0022
     49  N        184.0300  186.3720  243.0580 N.3   257  GLU257     -0.1231
     50  CA       184.6340  186.7230  241.8130 C.3   257  GLU257      0.1699
     51  C        186.0330  186.9440  242.1550 C.2   257  GLU257      0.2592
     52  O        186.3410  187.4490  243.2180 O.2   257  GLU257     -0.2718
     53  CB       184.1220  188.0390  241.2500 C.3   257  GLU257      0.0402
     54  CG       182.7680  187.8790  240.5870 C.3   257  GLU257      0.1161
     55  CD       183.0300  187.1660  239.2830 C.2   257  GLU257      0.3649
     56  OE1      182.7940  185.9340  239.2320 O.co2 257  GLU257     -0.2457
     57  OE2      183.4870  187.8380  238.3250 O.co2 257  GLU257     -0.2457
     58  N        186.9230  186.4640  241.3030 N.am  258  ARG258     -0.1980
     59  CA       188.3160  186.5210  241.5270 C.3   258  ARG258      0.1597
     60  C        188.9100  187.8670  241.5600 C.2   258  ARG258      0.2287
     61  O        188.5670  188.7600  240.7990 O.2   258  ARG258     -0.2864
     62  CB       189.0640  185.7060  240.4980 C.3   258  ARG258      0.0334
     63  CG       188.3290  184.4020  240.2230 C.3   258  ARG258      0.0492
     64  CD       188.6780  183.7840  238.8940 C.3   258  ARG258      0.2205
     65  NE       188.7780  184.7350  237.7500 N.pl3 258  ARG258     -0.0865
     66  CZ       187.8970  185.7070  237.3700 C.cat 258  ARG258      0.5346
     67  NH1      186.8100  186.0600  238.0960 N.pl3 258  ARG258      0.1354
     68  NH2      188.1660  186.3720  236.2110 N.pl3 258  ARG258      0.1354
     69  N        189.8670  190.2000  238.6010 N.3   261  GLU261     -0.1245
     70  CA       188.9280  191.0450  237.9960 C.3   261  GLU261      0.1567
     71  C        188.5760  192.1560  238.8960 C.2   261  GLU261      0.2260
     72  O        187.8950  193.0890  238.4930 O.2   261  GLU261     -0.2867
     73  CB       187.7230  190.1930  237.6820 C.3   261  GLU261      0.0388
     74  CG       186.9400  190.6810  236.4690 C.3   261  GLU261      0.1160
     75  CD       186.2540  189.4470  235.9010 C.2   261  GLU261      0.3649
     76  OE1      186.6970  188.9930  234.8120 O.co2 261  GLU261     -0.2457
     77  OE2      185.3270  188.9150  236.5690 O.co2 261  GLU261     -0.2457
     78  N        180.3800  190.4560  221.4020 N.3   419  PHE419     -0.1228
     79  CA       180.0350  190.7100  222.7590 C.3   419  PHE419      0.1721
     80  C        179.1210  191.8130  222.5310 C.2   419  PHE419      0.2437
     81  O        179.2250  192.4940  221.5290 O.2   419  PHE419     -0.2733
     82  CB       181.0600  191.3320  223.6940 C.3   419  PHE419      0.0547
     83  CG       182.1200  190.3820  223.6420 C.ar  419  PHE419     -0.0202
     84  CD1      183.1560  190.5710  222.7480 C.ar  419  PHE419     -0.0042
     85  CD2      181.9830  189.1860  224.3170 C.ar  419  PHE419     -0.0042
     86  CE1      184.0680  189.5480  222.5290 C.ar  419  PHE419     -0.0003
     87  CE2      182.9050  188.1650  224.1180 C.ar  419  PHE419     -0.0003
     88  CZ       183.9460  188.3430  223.2150 C.ar  419  PHE419     -0.0000
     89  N        178.2410  192.1200  223.3780 N.am  420  PRO420     -0.2729
     90  CA       177.9670  191.4250  224.5640 C.3   420  PRO420      0.1401
     91  C        176.7350  190.9180  224.0330 C.2   420  PRO420      0.2269
     92  O        175.6560  191.4100  224.2750 O.2   420  PRO420     -0.2865
     93  CB       177.8100  192.5030  225.6170 C.3   420  PRO420      0.0296
     94  CG       177.3830  193.7550  224.8610 C.3   420  PRO420      0.0237
     95  CD       177.9300  193.5330  223.4690 C.3   420  PRO420      0.0939
     96  N        179.6060  195.8830  220.4980 N.3   497  GLN497     -0.1231
     97  CA       180.4990  196.9380  220.8210 C.3   497  GLN497      0.1698
     98  C        181.6220  196.2420  221.4150 C.2   497  GLN497      0.2592
     99  O        181.9220  195.1310  221.0100 O.2   497  GLN497     -0.2718
    100  CB       179.8120  197.9110  221.7460 C.3   497  GLN497      0.0381
    101  CG       178.8330  198.6600  220.8500 C.3   497  GLN497      0.0905
    102  CD       177.8830  199.5170  221.6430 C.2   497  GLN497      0.2608
    103  OE1      177.6880  200.6870  221.3210 O.2   497  GLN497     -0.2717
    104  NE2      177.2620  198.9080  222.6910 N.am  497  GLN497     -0.0878
    105  N        182.3300  196.8730  222.3360 N.am  498  ASN498     -0.1960
    106  CA       183.4660  196.2580  222.9100 C.3   498  ASN498      0.1819
    107  C        183.5030  196.8590  224.2230 C.2   498  ASN498      0.2621
    108  O        182.6550  197.6400  224.6220 O.2   498  ASN498     -0.2715
    109  CB       184.8200  196.5540  222.2470 C.3   498  ASN498      0.1195
    110  CG       184.8970  195.7420  220.9760 C.2   498  ASN498      0.2630
    111  OD1      184.2590  196.0710  219.9740 O.2   498  ASN498     -0.2716
    112  ND2      185.7010  194.6430  221.0240 N.am  498  ASN498     -0.0877
    113  N        184.5460  196.5130  224.9250 N.am  499  ALA499     -0.1963
    114  CA       184.7850  197.0280  226.1980 C.3   499  ALA499      0.1728
    115  C        186.2460  197.1460  226.1800 C.2   499  ALA499      0.2616
    116  O        186.8870  197.0860  227.2150 O.2   499  ALA499     -0.2715
    117  CB       184.3650  196.0470  227.2760 C.3   499  ALA499      0.0334
    118  N        186.8480  197.2690  224.9910 N.am  500  TYR500     -0.1974
    119  CA       188.2570  197.3360  224.9300 C.3   500  TYR500      0.1639
    120  C        188.6340  198.1810  223.8000 C.2   500  TYR500      0.2290
    121  O        189.7080  198.7620  223.8550 O.2   500  TYR500     -0.2864
    122  CB       188.8830  195.9660  224.6990 C.3   500  TYR500      0.0560
    123  CG       188.7310  195.1830  225.9570 C.ar  500  TYR500     -0.0198
    124  CD1      187.6720  194.2880  226.1330 C.ar  500  TYR500     -0.0009
    125  CD2      189.6210  195.3860  227.0100 C.ar  500  TYR500     -0.0009
    126  CE1      187.5430  193.5600  227.3170 C.ar  500  TYR500      0.0417
    127  CE2      189.4920  194.6640  228.1980 C.ar  500  TYR500      0.0417
    128  CZ       188.4730  193.7300  228.3400 C.ar  500  TYR500      0.1957
    129  OH       188.4050  192.9530  229.5070 O.3   500  TYR500     -0.2866
@<TRIPOS>BOND
     1   111   110    2
     2    96    97    1
     3    97    98    1
     4    97   100    1
     5   101   102    1
     6   101   100    1
     7   110   112   am
     8   110   109    1
     9    99    98    2
    10   103   102    2
    11    78    79    1
    12    98   105   am
    13    81    80    2
    14   102   104   am
    15   109   106    1
    16   105   106    1
    17    86    84   ar
    18    86    88   ar
    19    80    79    1
    20    80    89   am
    21    84    83   ar
    22    79    82    1
    23   106   107    1
    24    88    87   ar
    25    89    95    1
    26    89    90    1
    27    95    94    1
    28    83    82    1
    29    83    85   ar
    30   120   121    2
    31   120   119    1
    32    91    92    2
    33    91    90    1
    34    87    85   ar
    35   107   108    2
    36   107   113   am
    37    90    93    1
    38   122   119    1
    39   122   123    1
    40    94    93    1
    41   113   114    1
    42   119   118    1
    43   118   115   am
    44   123   124   ar
    45   123   125   ar
    46   124   126   ar
    47   115   114    1
    48   115   116    2
    49   114   117    1
    50   125   127   ar
    51   126   128   ar
    52    15    14    2
    53    19    18    2
    54   127   128   ar
    55   128   129    1
    56    17    18    1
    57    17    20    1
    58    17    16    1
    59    18    22   am
    60    21    20    1
    61    14    16   am
    62    14    13    1
    63    22    23    1
    64    23    24    1
    65    13    12    1
    66    47    46    1
    67     4     3    2
    68    11    10   ar
    69    11     9   ar
    70    46    48    1
    71    46    43    1
    72    10     8   ar
    73    24    25    2
    74    24    26   am
    75     9     7   ar
    76    12     3   am
    77     3     2    1
    78    44    45    2
    79    44    43    1
    80     8     6   ar
    81    26    27    1
    82    43    42    1
    83     7     6   ar
    84     1     2    1
    85     6     5    1
    86     2     5    1
    87    42    37   am
    88    27    28    1
    89    27    30    1
    90    28    35   am
    91    28    29    2
    92    30    31    1
    93    37    38    2
    94    37    36    1
    95    35    36    1
    96    41    39    1
    97    36    39    1
    98    34    33    1
    99    31    32    1
   100    76    75   ar
   101    39    40    1
   102    33    32    1
   103    75    74    1
   104    75    77   ar
   105    68    66    1
   106    74    73    1
   107    66    65    2
   108    66    67    1
   109    73    70    1
   110    65    64    1
   111    70    69    1
   112    70    71    1
   113    57    55   ar
   114    72    71    2
   115    64    63    1
   116    56    55   ar
   117    55    54    1
   118    63    62    1
   119    62    59    1
   120    54    53    1
   121    61    60    2
   122    53    50    1
   123    58    59    1
   124    58    51   am
   125    59    60    1
   126    50    51    1
   127    50    49    1
   128    51    52    2
