@<TRIPOS>MOLECULE
tmp/5y64B01.pdb
 135 129 0 0 0
SMALL
GASTEIGER

@<TRIPOS>ATOM
      1  N          8.9720  -12.4790  -19.0200 N.3    18  ASN18      -0.1225
      2  CA        10.4340  -12.5050  -18.9750 C.3    18  ASN18       0.1785
      3  C         11.0460  -13.5560  -19.8950 C.2    18  ASN18       0.2597
      4  O         11.9940  -14.2450  -19.5190 O.2    18  ASN18      -0.2718
      5  CB        10.9520  -12.6740  -17.5520 C.3    18  ASN18       0.1169
      6  CG        11.1390  -11.3450  -16.8580 C.2    18  ASN18       0.2627
      7  OD1       12.1360  -10.6550  -17.1000 O.2    18  ASN18      -0.2716
      8  ND2       10.1880  -10.9660  -16.0050 N.am   18  ASN18      -0.0877
      9  N         10.5140  -13.6430  -21.1140 N.am   19  ARG19      -0.1966
     10  CA        10.9480  -14.6410  -22.0760 C.3    19  ARG19       0.1729
     11  C         11.6190  -13.9130  -23.2250 C.2    19  ARG19       0.2616
     12  O         11.2670  -12.7630  -23.5070 O.2    19  ARG19      -0.2715
     13  CB         9.7480  -15.4360  -22.6100 C.3    19  ARG19       0.0348
     14  CG         8.9410  -16.1290  -21.5150 C.3    19  ARG19       0.0492
     15  CD         7.6730  -16.8230  -22.0380 C.3    19  ARG19       0.2205
     16  NE         7.9840  -17.8770  -23.0030 N.pl3  19  ARG19      -0.0865
     17  CZ         7.0680  -18.5850  -23.6560 C.cat  19  ARG19       0.5346
     18  NH1        5.7700  -18.3590  -23.4460 N.pl3  19  ARG19       0.1354
     19  NH2        7.4470  -19.5400  -24.5010 N.pl3  19  ARG19       0.1354
     20  N         12.6050  -14.5520  -23.8560 N.am   20  PHE20      -0.1974
     21  CA        13.2620  -13.9650  -25.0220 C.3    20  PHE20       0.1639
     22  C         12.3150  -13.9990  -26.2120 C.2    20  PHE20       0.2290
     23  O         11.9980  -15.0900  -26.7050 O.2    20  PHE20      -0.2864
     24  CB        14.5610  -14.7150  -25.3840 C.3    20  PHE20       0.0560
     25  CG        15.7150  -14.4640  -24.4430 C.ar   20  PHE20      -0.0200
     26  CD1       16.0400  -15.3870  -23.4530 C.ar   20  PHE20      -0.0042
     27  CD2       16.4560  -13.2890  -24.5320 C.ar   20  PHE20      -0.0042
     28  CE1       17.1010  -15.1550  -22.5810 C.ar   20  PHE20      -0.0003
     29  CE2       17.5300  -13.0560  -23.6640 C.ar   20  PHE20      -0.0003
     30  CZ        17.8440  -13.9910  -22.6820 C.ar   20  PHE20      -0.0000
     31  N         16.4180   -7.8560  -32.3490 N.3    88  ARG88      -0.1245
     32  CA        17.4750   -8.8480  -32.4530 C.3    88  ARG88       0.1563
     33  C         16.9100  -10.2650  -32.4440 C.2    88  ARG88       0.2260
     34  O         16.0040  -10.5660  -31.6680 O.2    88  ARG88      -0.2867
     35  CB        18.4430   -8.6640  -31.2990 C.3    88  ARG88       0.0307
     36  CG        19.5390   -9.6720  -31.2800 C.3    88  ARG88       0.0489
     37  CD        20.5750   -9.2890  -30.2700 C.3    88  ARG88       0.2205
     38  NE        21.5600  -10.3460  -30.1630 N.pl3  88  ARG88      -0.0865
     39  CZ        22.4120  -10.4560  -29.1560 C.cat  88  ARG88       0.5346
     40  NH1       22.3780   -9.5740  -28.1650 N.pl3  88  ARG88       0.1354
     41  NH2       23.2770  -11.4560  -29.1420 N.pl3  88  ARG88       0.1354
     42  N         17.0980  -13.8380  -31.2930 N.3    90  TYR90      -0.1241
     43  CA        17.7940  -14.4400  -30.1480 C.3    90  TYR90       0.1605
     44  C         18.0120  -15.9440  -30.2890 C.2    90  TYR90       0.2264
     45  O         18.3200  -16.6230  -29.2980 O.2    90  TYR90      -0.2867
     46  CB        17.0310  -14.1560  -28.8570 C.3    90  TYR90       0.0534
     47  CG        17.1760  -12.7490  -28.3280 C.ar   90  TYR90      -0.0201
     48  CD1       18.3520  -12.3230  -27.7080 C.ar   90  TYR90      -0.0009
     49  CD2       16.1360  -11.8430  -28.4540 C.ar   90  TYR90      -0.0009
     50  CE1       18.4700  -11.0310  -27.2120 C.ar   90  TYR90       0.0417
     51  CE2       16.2440  -10.5550  -27.9810 C.ar   90  TYR90       0.0417
     52  CZ        17.4030  -10.1530  -27.3610 C.ar   90  TYR90       0.1957
     53  OH        17.4710   -8.8670  -26.8910 O.3    90  TYR90      -0.2866
     54  N         17.6280  -19.1580  -27.7930 N.3    93  LEU93      -0.1245
     55  CA        17.0650  -18.5970  -26.5680 C.3    93  LEU93       0.1561
     56  C         15.6020  -18.1650  -26.7210 C.2    93  LEU93       0.2260
     57  O         14.9170  -17.8960  -25.7270 O.2    93  LEU93      -0.2867
     58  CB        17.9140  -17.4150  -26.1020 C.3    93  LEU93       0.0270
     59  CG        19.3990  -17.7460  -25.9250 C.3    93  LEU93       0.0019
     60  CD1       20.1700  -16.5570  -25.3820 C.3    93  LEU93       0.0001
     61  CD2       19.5270  -18.9450  -24.9840 C.3    93  LEU93       0.0001
     62  N         12.4860  -18.9040  -24.1580 N.3    96  LEU96      -0.1245
     63  CA        12.9640  -19.2880  -22.8380 C.3    96  LEU96       0.1561
     64  C         12.9050  -18.1030  -21.9110 C.2    96  LEU96       0.2260
     65  O         13.1070  -16.9610  -22.3350 O.2    96  LEU96      -0.2867
     66  CB        14.3960  -19.8330  -22.9060 C.3    96  LEU96       0.0270
     67  CG        14.6590  -21.0970  -23.7210 C.3    96  LEU96       0.0019
     68  CD1       16.1340  -21.4930  -23.5840 C.3    96  LEU96       0.0001
     69  CD2       13.7610  -22.2600  -23.2860 C.3    96  LEU96       0.0001
     70  N         14.2780  -16.4320  -18.0030 N.3    98  LYS98      -0.1245
     71  CA        15.5550  -16.2550  -17.3080 C.3    98  LYS98       0.1561
     72  C         16.0760  -17.5610  -16.6950 C.2    98  LYS98       0.2260
     73  O         17.2570  -17.9470  -16.8500 O.2    98  LYS98      -0.2867
     74  CB        15.3970  -15.2210  -16.1860 C.3    98  LYS98       0.0271
     75  CG        16.7260  -14.7380  -15.6340 C.3    98  LYS98       0.0035
     76  CD        16.5750  -14.0190  -14.2980 C.3    98  LYS98       0.0206
     77  CE        15.6800  -12.8060  -14.3630 C.3    98  LYS98       0.1093
     78  NZ        15.8350  -12.0200  -13.1050 N.3    98  LYS98      -0.1314
     79  N         17.0000  -20.3060  -19.2480 N.3   101  THR101     -0.1218
     80  CA        18.2310  -19.9230  -19.9350 C.3   101  THR101      0.1862
     81  C         19.4330  -20.2450  -19.0480 C.2   101  THR101      0.2287
     82  O         20.4080  -20.8710  -19.4990 O.2   101  THR101     -0.2866
     83  CB        18.2050  -18.4250  -20.3090 C.3   101  THR101      0.1770
     84  OG1       17.1760  -18.2130  -21.2870 O.3   101  THR101     -0.2211
     85  CG2       19.5450  -17.9740  -20.9010 C.3   101  THR101      0.0375
     86  N         25.6180  -17.2650  -19.8230 N.3   110  VAL110     -0.1245
     87  CA        24.6260  -16.2000  -19.9480 C.3   110  VAL110      0.1561
     88  C         25.2620  -14.7980  -19.8070 C.2   110  VAL110      0.2260
     89  O         24.9350  -13.8990  -20.5940 O.2   110  VAL110     -0.2867
     90  CB        23.4810  -16.3880  -18.9370 C.3   110  VAL110      0.0252
     91  CG1       22.5870  -15.1480  -18.8790 C.3   110  VAL110      0.0019
     92  CG2       22.6360  -17.5650  -19.3610 C.3   110  VAL110      0.0019
     93  N         27.2030  -13.9140  -23.0870 N.3   113  TRP113     -0.1227
     94  CA        26.2970  -13.4590  -24.1550 C.3   113  TRP113      0.1737
     95  C         25.7940  -12.0660  -23.8590 C.2   113  TRP113      0.2595
     96  O         25.7350  -11.2090  -24.7400 O.2   113  TRP113     -0.2718
     97  CB        25.1000  -14.3910  -24.3160 C.3   113  TRP113      0.0564
     98  CG        25.4390  -15.6580  -24.9980 C.ar  113  TRP113      0.0003
     99  CD1       26.4020  -15.8460  -25.9470 C.ar  113  TRP113      0.0946
    100  CD2       24.8410  -16.9400  -24.7640 C.ar  113  TRP113      0.0152
    101  NE1       26.4320  -17.1720  -26.3280 N.ar  113  TRP113     -0.2442
    102  CE2       25.4830  -17.8620  -25.6140 C.ar  113  TRP113      0.0810
    103  CE3       23.8270  -17.3970  -23.9170 C.ar  113  TRP113      0.0012
    104  CZ2       25.1410  -19.2170  -25.6400 C.ar  113  TRP113      0.0191
    105  CZ3       23.4910  -18.7420  -23.9450 C.ar  113  TRP113      0.0001
    106  CH2       24.1430  -19.6330  -24.7970 C.ar  113  TRP113      0.0015
    107  N         25.4640  -11.8430  -22.5920 N.am  114  ARG114     -0.1980
    108  CA        24.8500  -10.5990  -22.1760 C.3   114  ARG114      0.1597
    109  C         25.7540   -9.3960  -22.4100 C.2   114  ARG114      0.2287
    110  O         25.2830   -8.3280  -22.8240 O.2   114  ARG114     -0.2864
    111  CB        24.4790  -10.6760  -20.6970 C.3   114  ARG114      0.0334
    112  CG        23.8490   -9.4000  -20.1720 C.3   114  ARG114      0.0492
    113  CD        23.1300   -9.6050  -18.8520 C.3   114  ARG114      0.2205
    114  NE        22.4000   -8.3980  -18.4690 N.pl3 114  ARG114     -0.0865
    115  CZ        21.6950   -8.2670  -17.3480 C.cat 114  ARG114      0.5346
    116  NH1       21.6190   -9.2770  -16.4870 N.pl3 114  ARG114      0.1354
    117  NH2       21.0620   -7.1280  -17.0890 N.pl3 114  ARG114      0.1354
    118  N         23.9480  -15.6760  -29.6960 N.3   121  PRO121     -0.2116
    119  CA        23.3530  -16.8130  -28.9940 C.3   121  PRO121      0.1372
    120  C         23.3830  -18.0230  -29.9220 C.2   121  PRO121      0.2244
    121  O         23.6820  -17.8600  -31.1140 O.2   121  PRO121     -0.2868
    122  CB        21.9200  -16.3410  -28.7050 C.3   121  PRO121      0.0268
    123  CG        21.6450  -15.2910  -29.7590 C.3   121  PRO121      0.0207
    124  CD        22.9740  -14.5940  -29.9270 C.3   121  PRO121      0.0892
    125  N         19.0610    0.7830  -31.2940 N.3   189  ARG189     -0.1245
    126  CA        20.4420    0.9160  -30.8300 C.3   189  ARG189      0.1563
    127  C         21.3480    1.1280  -32.0210 C.2   189  ARG189      0.2260
    128  O         22.2890    1.9130  -31.9520 O.2   189  ARG189     -0.2867
    129  CB        20.8970   -0.3100  -30.0350 C.3   189  ARG189      0.0307
    130  CG        20.6200   -0.2180  -28.5340 C.3   189  ARG189      0.0489
    131  CD        21.1510   -1.4750  -27.8130 C.3   189  ARG189      0.2205
    132  NE        21.0380   -1.3630  -26.3590 N.pl3 189  ARG189     -0.0865
    133  CZ        21.2290   -2.3750  -25.5130 C.cat 189  ARG189      0.5346
    134  NH1       21.5690   -3.5760  -25.9690 N.pl3 189  ARG189      0.1354
    135  NH2       21.1090   -2.1810  -24.2030 N.pl3 189  ARG189      0.1354
@<TRIPOS>BOND
     1    32    33    1
     2    32    31    1
     3    32    35    1
     4    33    34    2
     5   127   128    2
     6   127   126    1
     7    35    36    1
     8   125   126    1
     9    42    43    1
    10    36    37    1
    11   121   120    2
    12   126   129    1
    13    44    43    1
    14    44    45    2
    15    37    38    1
    16    38    39    2
    17    43    46    1
    18   129   130    1
    19   124   123    1
    20   124   118    1
    21   120   119    1
    22   123   122    1
    23   118   119    1
    24    39    41    1
    25    39    40    1
    26   119   122    1
    27    46    47    1
    28   130   131    1
    29    49    47   ar
    30    49    51   ar
    31    47    48   ar
    32    51    52   ar
    33   131   132    1
    34    54    55    1
    35    48    50   ar
    36    52    50   ar
    37    52    53    1
    38    56    55    1
    39    56    57    2
    40    23    22    2
    41    55    58    1
    42   132   133    2
    43   101    99   ar
    44   101   102   ar
    45    22    21    1
    46    58    59    1
    47   134   133    1
    48    99    98   ar
    49    59    60    1
    50    59    61    1
    51   104   102   ar
    52   104   106   ar
    53   102   100   ar
    54   133   135    1
    55    24    21    1
    56    24    25    1
    57    21    20    1
    58    98   100   ar
    59    98    97    1
    60   106   105   ar
    61   100   103   ar
    62    96    95    2
    63    27    25   ar
    64    27    29   ar
    65    19    17    1
    66    25    26   ar
    67    97    94    1
    68    62    63    1
    69    94    95    1
    70    94    93    1
    71   105   103   ar
    72    95   107   am
    73    20    11   am
    74    67    68    1
    75    67    69    1
    76    67    66    1
    77    29    30   ar
    78    17    18    1
    79    17    16    2
    80    12    11    2
    81    26    28   ar
    82    11    10    1
    83    16    15    1
    84    66    63    1
    85    63    64    1
    86   110   109    2
    87    30    28   ar
    88    13    10    1
    89    13    14    1
    90   107   108    1
    91   109   108    1
    92    65    64    2
    93   108   111    1
    94    10     9    1
    95    15    14    1
    96    84    83    1
    97     9     3   am
    98    85    83    1
    99   111   112    1
   100    89    88    2
   101    83    80    1
   102   112   113    1
   103    87    86    1
   104    87    88    1
   105    87    90    1
   106    80    79    1
   107    80    81    1
   108     3     4    2
   109     3     2    1
   110    82    81    2
   111    92    90    1
   112     1     2    1
   113     2     5    1
   114    90    91    1
   115   113   114    1
   116   114   115    2
   117    70    71    1
   118     5     6    1
   119   115   117    1
   120   115   116    1
   121    71    72    1
   122    71    74    1
   123     7     6    2
   124     6     8   am
   125    73    72    2
   126    74    75    1
   127    75    76    1
   128    77    76    1
   129    77    78    1
