@<TRIPOS>MOLECULE
tmp/5y65B01.pdb
 172 165 0 0 0
SMALL
GASTEIGER

@<TRIPOS>ATOM
      1  N         -5.6670  -12.3920  -27.0370 N.3    13  TRP13      -0.1227
      2  CA        -6.8710  -13.1340  -27.4090 C.3    13  TRP13       0.1737
      3  C         -7.9430  -12.3470  -28.1390 C.2    13  TRP13       0.2595
      4  O         -8.8420  -12.9590  -28.7190 O.2    13  TRP13      -0.2718
      5  CB        -7.5070  -13.7950  -26.1720 C.3    13  TRP13       0.0564
      6  CG        -6.6910  -14.8870  -25.5520 C.ar   13  TRP13       0.0003
      7  CD1       -5.3740  -15.1680  -25.7810 C.ar   13  TRP13       0.0946
      8  CD2       -7.1660  -15.8990  -24.6510 C.ar   13  TRP13       0.0152
      9  NE1       -4.9930  -16.2730  -25.0570 N.ar   13  TRP13      -0.2442
     10  CE2       -6.0740  -16.7440  -24.3580 C.ar   13  TRP13       0.0810
     11  CE3       -8.4080  -16.1720  -24.0610 C.ar   13  TRP13       0.0012
     12  CZ2       -6.1850  -17.8360  -23.4980 C.ar   13  TRP13       0.0191
     13  CZ3       -8.5130  -17.2520  -23.2080 C.ar   13  TRP13       0.0001
     14  CH2       -7.4060  -18.0710  -22.9330 C.ar   13  TRP13       0.0015
     15  N         -7.8560  -11.0150  -28.1410 N.am   14  ASN14      -0.1974
     16  CA        -8.8120  -10.2220  -28.9120 C.3    14  ASN14       0.1688
     17  C         -8.5610  -10.5470  -30.3740 C.2    14  ASN14       0.2292
     18  O         -9.4970  -10.6610  -31.1590 O.2    14  ASN14      -0.2864
     19  CB        -8.6900   -8.7210  -28.6280 C.3    14  ASN14       0.1181
     20  CG        -9.2350   -8.3230  -27.2380 C.2    14  ASN14       0.2629
     21  OD1       -8.8120   -7.3290  -26.6590 O.2    14  ASN14      -0.2716
     22  ND2      -10.1720   -9.0970  -26.7150 N.am   14  ASN14      -0.0877
     23  N        -10.2600  -13.7760  -31.2370 N.3    17  ASN17      -0.1225
     24  CA       -11.7080  -13.8540  -31.0040 C.3    17  ASN17       0.1785
     25  C        -11.9850  -14.8400  -29.8780 C.2    17  ASN17       0.2597
     26  O        -12.9820  -15.5720  -29.9090 O.2    17  ASN17      -0.2718
     27  CB       -12.5230  -14.2830  -32.2280 C.3    17  ASN17       0.1169
     28  CG       -12.7190  -13.1730  -33.2150 C.2    17  ASN17       0.2627
     29  OD1      -12.8620  -12.0030  -32.8450 O.2    17  ASN17      -0.2716
     30  ND2      -12.7890  -13.5360  -34.4880 N.am   17  ASN17      -0.0877
     31  N        -11.1010  -14.8710  -28.8890 N.am   18  ARG18      -0.1966
     32  CA       -11.1460  -15.9050  -27.8700 C.3    18  ARG18       0.1729
     33  C        -11.5180  -15.2680  -26.5310 C.2    18  ARG18       0.2616
     34  O        -10.8560  -14.3250  -26.0960 O.2    18  ARG18      -0.2715
     35  CB        -9.7670  -16.6110  -27.8130 C.3    18  ARG18       0.0348
     36  CG        -9.6620  -17.9110  -26.9960 C.3    18  ARG18       0.0492
     37  CD        -8.2580  -18.5450  -27.1090 C.3    18  ARG18       0.2205
     38  NE        -8.0910  -19.7420  -26.2710 N.pl3  18  ARG18      -0.0865
     39  CZ        -6.9250  -20.3460  -26.0040 C.cat  18  ARG18       0.5346
     40  NH1       -5.7720  -19.8830  -26.4950 N.pl3  18  ARG18       0.1354
     41  NH2       -6.9140  -21.4260  -25.2340 N.pl3  18  ARG18       0.1354
     42  N        -12.6060  -15.7560  -25.9220 N.am   19  PHE19      -0.1974
     43  CA       -13.1130  -15.2570  -24.6260 C.3    19  PHE19       0.1639
     44  C        -12.1180  -15.3120  -23.4510 C.2    19  PHE19       0.2290
     45  O        -11.7780  -16.4020  -22.9710 O.2    19  PHE19      -0.2864
     46  CB       -14.3720  -16.0400  -24.2030 C.3    19  PHE19       0.0560
     47  CG       -15.5980  -15.6920  -24.9760 C.ar   19  PHE19      -0.0200
     48  CD1      -16.3110  -14.5320  -24.6840 C.ar   19  PHE19      -0.0042
     49  CD2      -16.0570  -16.5250  -25.9930 C.ar   19  PHE19      -0.0042
     50  CE1      -17.4530  -14.2020  -25.4060 C.ar   19  PHE19      -0.0003
     51  CE2      -17.1990  -16.2010  -26.7210 C.ar   19  PHE19      -0.0003
     52  CZ       -17.8970  -15.0380  -26.4320 C.ar   19  PHE19      -0.0000
     53  N        -15.8250   -8.9720  -17.0490 N.3    87  ARG87      -0.1245
     54  CA       -16.8590   -9.9100  -16.6940 C.3    87  ARG87       0.1563
     55  C        -16.3160  -11.3570  -16.8090 C.2    87  ARG87       0.2260
     56  O        -15.4590  -11.6550  -17.6500 O.2    87  ARG87      -0.2867
     57  CB       -18.1050   -9.6860  -17.5420 C.3    87  ARG87       0.0307
     58  CG       -18.6850  -10.9450  -18.0730 C.3    87  ARG87       0.0489
     59  CD       -20.1830  -10.8420  -18.0860 C.3    87  ARG87       0.2205
     60  NE       -20.7560  -10.3350  -19.3120 N.pl3  87  ARG87      -0.0865
     61  CZ       -21.7780  -10.9210  -19.9120 C.cat  87  ARG87       0.5346
     62  NH1      -22.2960  -12.0240  -19.3860 N.pl3  87  ARG87       0.1354
     63  NH2      -22.2760  -10.3970  -21.0200 N.pl3  87  ARG87       0.1354
     64  N        -16.6680  -14.9510  -17.8180 N.3    89  TYR89      -0.1241
     65  CA       -17.4520  -15.6700  -18.8260 C.3    89  TYR89       0.1605
     66  C        -17.6420  -17.1740  -18.5810 C.2    89  TYR89       0.2264
     67  O        -18.1060  -17.8870  -19.4770 O.2    89  TYR89      -0.2867
     68  CB       -16.8170  -15.4650  -20.2030 C.3    89  TYR89       0.0534
     69  CG       -17.0090  -14.0820  -20.7890 C.ar   89  TYR89      -0.0201
     70  CD1      -18.2060  -13.7200  -21.3960 C.ar   89  TYR89      -0.0009
     71  CD2      -16.0020  -13.1290  -20.7180 C.ar   89  TYR89      -0.0009
     72  CE1      -18.3900  -12.4530  -21.9330 C.ar   89  TYR89       0.0417
     73  CE2      -16.1690  -11.8580  -21.2570 C.ar   89  TYR89       0.0417
     74  CZ       -17.3650  -11.5230  -21.8600 C.ar   89  TYR89       0.1957
     75  OH       -17.5310  -10.2560  -22.4010 O.3    89  TYR89      -0.2866
     76  N        -17.4230  -20.4880  -21.1700 N.3    92  LEU92      -0.1245
     77  CA       -16.9870  -19.9790  -22.4810 C.3    92  LEU92       0.1561
     78  C        -15.5220  -19.5310  -22.4760 C.2    92  LEU92       0.2260
     79  O        -14.9060  -19.3910  -23.5530 O.2    92  LEU92      -0.2867
     80  CB       -17.8770  -18.8120  -22.9270 C.3    92  LEU92       0.0270
     81  CG       -19.3700  -19.1350  -22.8540 C.3    92  LEU92       0.0019
     82  CD1      -20.2200  -17.9260  -23.1810 C.3    92  LEU92       0.0001
     83  CD2      -19.7090  -20.2710  -23.7980 C.3    92  LEU92       0.0001
     84  N        -15.2400  -17.7490  -30.9740 N.3    97  LYS97      -0.1245
     85  CA       -16.5390  -17.4790  -31.5760 C.3    97  LYS97       0.1561
     86  C        -17.1060  -18.7570  -32.2050 C.2    97  LYS97       0.2260
     87  O        -18.2670  -19.1460  -31.9500 O.2    97  LYS97      -0.2867
     88  CB       -16.3640  -16.3640  -32.6220 C.3    97  LYS97       0.0271
     89  CG       -17.5700  -15.9410  -33.4150 C.3    97  LYS97       0.0035
     90  CD       -17.1280  -14.9530  -34.5040 C.3    97  LYS97       0.0206
     91  CE       -16.6700  -13.6300  -33.8930 C.3    97  LYS97       0.1093
     92  NZ       -15.9450  -12.7330  -34.8480 N.3    97  LYS97      -0.1314
     93  N        -17.7700  -21.6200  -29.6230 N.3   100  THR100     -0.1218
     94  CA       -18.9360  -21.2420  -28.8400 C.3   100  THR100      0.1862
     95  C        -20.2170  -21.5250  -29.6160 C.2   100  THR100      0.2287
     96  O        -21.1470  -22.1820  -29.1010 O.2   100  THR100     -0.2866
     97  CB       -18.8370  -19.7500  -28.4520 C.3   100  THR100      0.1770
     98  OG1      -17.6700  -19.5640  -27.6400 O.3   100  THR100     -0.2211
     99  CG2      -20.0430  -19.2890  -27.6820 C.3   100  THR100      0.0375
    100  N        -26.2090  -18.2330  -28.1870 N.3   109  VAL109     -0.1245
    101  CA       -25.2210  -17.1530  -28.2150 C.3   109  VAL109      0.1561
    102  C        -25.9160  -15.7920  -28.3580 C.2   109  VAL109      0.2260
    103  O        -25.5900  -14.8360  -27.6470 O.2   109  VAL109     -0.2867
    104  CB       -24.1920  -17.3410  -29.3410 C.3   109  VAL109      0.0252
    105  CG1      -23.4290  -16.0460  -29.5970 C.3   109  VAL109      0.0019
    106  CG2      -23.2310  -18.4600  -28.9690 C.3   109  VAL109      0.0019
    107  N        -27.3880  -14.7720  -24.9820 N.3   112  TRP112     -0.1227
    108  CA       -26.3500  -14.2770  -24.0610 C.3   112  TRP112      0.1737
    109  C        -25.8800  -12.8760  -24.4440 C.2   112  TRP112      0.2595
    110  O        -25.6390  -12.0230  -23.5780 O.2   112  TRP112     -0.2718
    111  CB       -25.1500  -15.2100  -24.0310 C.3   112  TRP112      0.0564
    112  CG       -25.3770  -16.4740  -23.3090 C.ar  112  TRP112      0.0003
    113  CD1      -26.2090  -16.6810  -22.2460 C.ar  112  TRP112      0.0946
    114  CD2      -24.7980  -17.7480  -23.6220 C.ar  112  TRP112      0.0152
    115  NE1      -26.1630  -18.0040  -21.8580 N.ar  112  TRP112     -0.2442
    116  CE2      -25.3080  -18.6810  -22.6910 C.ar  112  TRP112      0.0810
    117  CE3      -23.8950  -18.1910  -24.5990 C.ar  112  TRP112      0.0012
    118  CZ2      -24.9360  -20.0320  -22.7050 C.ar  112  TRP112      0.0191
    119  CZ3      -23.5250  -19.5240  -24.6100 C.ar  112  TRP112      0.0001
    120  CH2      -24.0440  -20.4310  -23.6720 C.ar  112  TRP112      0.0015
    121  N        -25.7730  -12.6560  -25.7510 N.am  113  ARG113     -0.1980
    122  CA       -25.3410  -11.3860  -26.3040 C.3   113  ARG113      0.1597
    123  C        -26.3220  -10.2770  -25.9400 C.2   113  ARG113      0.2287
    124  O        -25.9170   -9.1540  -25.6450 O.2   113  ARG113     -0.2864
    125  CB       -25.1910  -11.5010  -27.8260 C.3   113  ARG113      0.0334
    126  CG       -24.2950  -10.4420  -28.4440 C.3   113  ARG113      0.0492
    127  CD       -24.0540  -10.6670  -29.9430 C.3   113  ARG113      0.2205
    128  NE       -23.5020   -9.4600  -30.5680 N.pl3 113  ARG113     -0.0865
    129  CZ       -23.0710   -9.3750  -31.8260 C.cat 113  ARG113      0.5346
    130  NH1      -23.1090  -10.4360  -32.6250 N.pl3 113  ARG113      0.1354
    131  NH2      -22.5920   -8.2250  -32.2840 N.pl3 113  ARG113      0.1354
    132  N        -28.7590  -12.8140  -17.8660 N.3   118  VAL118     -0.1245
    133  CA       -28.5180  -14.2530  -18.0370 C.3   118  VAL118      0.1561
    134  C        -27.0290  -14.5990  -18.1710 C.2   118  VAL118      0.2260
    135  O        -26.3910  -14.2450  -19.1630 O.2   118  VAL118     -0.2867
    136  CB       -29.2480  -14.8390  -19.2620 C.3   118  VAL118      0.0252
    137  CG1      -28.9350  -16.3270  -19.3680 C.3   118  VAL118      0.0019
    138  CG2      -30.7670  -14.6020  -19.1630 C.3   118  VAL118      0.0019
    139  N        -23.5130  -16.8680  -18.6660 N.3   120  PRO120     -0.2116
    140  CA       -22.9690  -18.0080  -19.4100 C.3   120  PRO120      0.1372
    141  C        -22.9300  -19.2410  -18.4970 C.2   120  PRO120      0.2244
    142  O        -23.1750  -19.1060  -17.2900 O.2   120  PRO120     -0.2868
    143  CB       -21.5600  -17.5370  -19.7910 C.3   120  PRO120      0.0268
    144  CG       -21.2070  -16.5170  -18.7510 C.3   120  PRO120      0.0207
    145  CD       -22.5100  -15.8130  -18.4490 C.3   120  PRO120      0.0892
    146  N        -16.5870   -4.0870  -19.8540 N.3   185  ASN185     -0.1240
    147  CA       -17.7610   -4.4260  -19.0510 C.3   185  ASN185      0.1653
    148  C        -17.7410   -3.8850  -17.6280 C.2   185  ASN185      0.2266
    149  O        -18.7990   -3.6160  -17.0650 O.2   185  ASN185     -0.2867
    150  CB       -17.9820   -5.9350  -19.0040 C.3   185  ASN185      0.1155
    151  CG       -18.6060   -6.4540  -20.2660 C.2   185  ASN185      0.2627
    152  OD1      -19.5560   -5.8630  -20.7780 O.2   185  ASN185     -0.2716
    153  ND2      -18.0800   -7.5550  -20.7860 N.am  185  ASN185     -0.0877
    154  N        -18.5830   -0.2750  -18.1230 N.3   188  ARG188     -0.1245
    155  CA       -19.9940   -0.1220  -18.4030 C.3   188  ARG188      0.1563
    156  C        -20.8070    0.1720  -17.1600 C.2   188  ARG188      0.2260
    157  O        -21.7220    0.9910  -17.2080 O.2   188  ARG188     -0.2867
    158  CB       -20.5190   -1.3690  -19.0840 C.3   188  ARG188      0.0307
    159  CG       -20.5620   -1.2030  -20.5590 C.3   188  ARG188      0.0489
    160  CD       -21.1040   -2.4360  -21.1560 C.3   188  ARG188      0.2205
    161  NE       -21.0990   -2.3790  -22.6010 N.pl3 188  ARG188     -0.0865
    162  CZ       -21.4660   -3.4010  -23.3550 C.cat 188  ARG188      0.5346
    163  NH1      -21.8550   -4.5280  -22.7730 N.pl3 188  ARG188      0.1354
    164  NH2      -21.4470   -3.3000  -24.6760 N.pl3 188  ARG188      0.1354
    165  N        -26.0500   -1.8580  -23.1270 N.3   203  MET203     -0.1245
    166  CA       -25.6100   -2.9870  -23.9320 C.3   203  MET203      0.1570
    167  C        -25.2060   -2.6820  -25.3820 C.2   203  MET203      0.2261
    168  O        -24.4600   -3.4490  -25.9790 O.2   203  MET203     -0.2867
    169  CB       -26.6960   -4.0430  -23.9080 C.3   203  MET203      0.0387
    170  CG       -26.8130   -4.5810  -22.5200 C.3   203  MET203      0.0595
    171  SD       -27.7290   -6.0980  -22.3160 S.3   203  MET203     -0.1393
    172  CE       -26.4730   -6.9250  -21.3440 C.3   203  MET203      0.0692
@<TRIPOS>BOND
     1    92    91    1
     2    90    91    1
     3    90    89    1
     4    30    28   am
     5    89    88    1
     6    28    29    2
     7    28    27    1
     8   130   129    1
     9    88    85    1
    10   131   129    1
    11    27    24    1
    12    86    87    2
    13    86    85    1
    14   129   128    2
    15    85    84    1
    16    23    24    1
    17    18    17    2
    18    24    25    1
    19   128   127    1
    20    17    16    1
    21   127   126    1
    22    26    25    2
    23    25    31   am
    24    93    94    1
    25    95    96    2
    26    95    94    1
    27   105   104    1
    28   104   106    1
    29   104   101    1
    30    16    19    1
    31    16    15    1
    32    31    32    1
    33    94    97    1
    34     4     3    2
    35    19    20    1
    36    97    99    1
    37    97    98    1
    38   126   125    1
    39   102   101    1
    40   102   103    2
    41   101   100    1
    42    15     3   am
    43     3     2    1
    44    32    35    1
    45    32    33    1
    46   125   122    1
    47    35    36    1
    48     2     1    1
    49     2     5    1
    50    20    22   am
    51    20    21    2
    52    37    36    1
    53    37    38    1
    54    51    52   ar
    55    51    49   ar
    56    33    34    2
    57    33    42   am
    58    40    39    1
    59    52    50   ar
    60   122   123    1
    61   122   121    1
    62    38    39    2
    63     5     6    1
    64    39    41    1
    65    49    47   ar
    66   168   167    2
    67   123   124    2
    68    42    43    1
    69     7     6   ar
    70     7     9   ar
    71   121   109   am
    72     6     8   ar
    73    50    48   ar
    74   167   166    1
    75     9    10   ar
    76   107   108    1
    77    47    48   ar
    78    47    46    1
    79   164   162    1
    80     8    10   ar
    81     8    11   ar
    82    43    46    1
    83    43    44    1
    84   119   117   ar
    85   119   120   ar
    86   117   114   ar
    87   109   108    1
    88   109   110    2
    89    10    12   ar
    90   108   111    1
    91    11    13   ar
    92   111   112    1
    93   166   169    1
    94   166   165    1
    95   169   170    1
    96    83    81    1
    97   120   118   ar
    98   114   112   ar
    99   114   116   ar
   100    79    78    2
   101    12    14   ar
   102    44    45    2
   103   162   163    1
   104   162   161    2
   105   112   113   ar
   106    13    14   ar
   107    82    81    1
   108    80    81    1
   109    80    77    1
   110   118   116   ar
   111   116   115   ar
   112   161   160    1
   113   170   171    1
   114    77    78    1
   115    77    76    1
   116    75    74    1
   117   171   172    1
   118   113   115   ar
   119    72    74   ar
   120    72    70   ar
   121    74    73   ar
   122    70    69   ar
   123    73    71   ar
   124   160   159    1
   125    63    61    1
   126    69    71   ar
   127    69    68    1
   128   153   151   am
   129   152   151    2
   130   159   158    1
   131   151   150    1
   132    68    65    1
   133    61    62    1
   134    61    60    2
   135   146   147    1
   136   143   140    1
   137   143   144    1
   138    67    66    2
   139   140   139    1
   140   140   141    1
   141   137   136    1
   142    60    59    1
   143   136   138    1
   144   136   133    1
   145   135   134    2
   146   158   155    1
   147   147   150    1
   148   147   148    1
   149    65    66    1
   150    65    64    1
   151   144   145    1
   152   139   145    1
   153   141   142    2
   154   155   154    1
   155   155   156    1
   156   134   133    1
   157    59    58    1
   158    58    57    1
   159   133   132    1
   160    56    55    2
   161   148   149    2
   162    57    54    1
   163   157   156    2
   164    53    54    1
   165    55    54    1
