@<TRIPOS>MOLECULE
tmp/5y6dB00.pdb
 150 149 0 0 0
SMALL
GASTEIGER

@<TRIPOS>ATOM
      1  N        121.1560   26.4030  127.0130 N.3    31  PHE31      -0.1241
      2  CA       122.3680   26.1110  127.7510 C.3    31  PHE31       0.1605
      3  C        122.6110   27.2190  128.7640 C.2    31  PHE31       0.2264
      4  O        122.6690   28.4050  128.4070 O.2    31  PHE31      -0.2867
      5  CB       123.5400   25.9520  126.7830 C.3    31  PHE31       0.0534
      6  CG       124.8590   25.7220  127.4610 C.ar   31  PHE31      -0.0203
      7  CD1      125.2500   24.4660  127.8630 C.ar   31  PHE31      -0.0042
      8  CD2      125.7010   26.7670  127.6980 C.ar   31  PHE31      -0.0042
      9  CE1      126.4580   24.2940  128.4950 C.ar   31  PHE31      -0.0003
     10  CE2      126.8700   26.5830  128.3330 C.ar   31  PHE31      -0.0003
     11  CZ       127.2470   25.3580  128.7250 C.ar   31  PHE31      -0.0000
     12  N        121.4500   29.5380  122.6170 N.3    36  TYR36      -0.1228
     13  CA       122.5410   30.0100  121.8180 C.3    36  TYR36       0.1721
     14  C        122.4150   29.4770  120.4000 C.2    36  TYR36       0.2437
     15  O        122.0600   28.3220  120.2200 O.2    36  TYR36      -0.2733
     16  CB       123.8720   29.5490  122.3920 C.3    36  TYR36       0.0547
     17  CG       124.1960   30.0130  123.7810 C.ar   36  TYR36      -0.0200
     18  CD1      124.0570   29.1610  124.8660 C.ar   36  TYR36      -0.0009
     19  CD2      124.6960   31.2770  124.0130 C.ar   36  TYR36      -0.0009
     20  CE1      124.3930   29.5610  126.1560 C.ar   36  TYR36       0.0417
     21  CE2      125.0200   31.6910  125.3100 C.ar   36  TYR36       0.0417
     22  CZ       124.8720   30.8180  126.3700 C.ar   36  TYR36       0.1957
     23  OH       125.2060   31.1930  127.6530 O.3    36  TYR36      -0.2866
     24  N        122.7010   30.2650  119.3820 N.am   37  PRO37      -0.2729
     25  CA       122.8520   29.6900  118.0470 C.3    37  PRO37       0.1401
     26  C        124.2100   28.9950  117.9420 C.2    37  PRO37       0.2269
     27  O        125.1360   29.2870  118.6960 O.2    37  PRO37      -0.2865
     28  CB       122.7660   30.9210  117.1440 C.3    37  PRO37       0.0296
     29  CG       123.4710   32.0030  117.9750 C.3    37  PRO37       0.0237
     30  CD       123.2030   31.6590  119.4270 C.3    37  PRO37       0.0939
     31  N        125.4370   20.0340  117.8390 N.3    56  TRP56      -0.1241
     32  CA       125.3360   20.2510  119.2770 C.3    56  TRP56       0.1605
     33  C        124.3360   19.2760  119.9190 C.2    56  TRP56       0.2264
     34  O        123.2300   19.6630  120.2860 O.2    56  TRP56      -0.2867
     35  CB       124.9650   21.7210  119.5770 C.3    56  TRP56       0.0550
     36  CG       125.2260   22.1670  121.0230 C.ar   56  TRP56       0.0003
     37  CD1      125.5130   21.3720  122.0840 C.ar   56  TRP56       0.0946
     38  CD2      125.1680   23.4910  121.5310 C.ar   56  TRP56       0.0152
     39  NE1      125.6520   22.1110  123.2140 N.ar   56  TRP56      -0.2442
     40  CE2      125.4370   23.4210  122.9060 C.ar   56  TRP56       0.0810
     41  CE3      124.9240   24.7410  120.9580 C.ar   56  TRP56       0.0012
     42  CZ2      125.4640   24.5500  123.7180 C.ar   56  TRP56       0.0191
     43  CZ3      124.9610   25.8480  121.7560 C.ar   56  TRP56       0.0001
     44  CH2      125.2410   25.7490  123.1200 C.ar   56  TRP56       0.0015
     45  N        136.8200   21.5380  118.1790 N.3    83  HIS83      -0.1241
     46  CA       137.4120   21.3630  119.5020 C.3    83  HIS83       0.1621
     47  C        136.5110   20.4060  120.2720 C.2    83  HIS83       0.2264
     48  O        135.5750   19.8290  119.7050 O.2    83  HIS83      -0.2867
     49  CB       137.6520   22.6980  120.2320 C.3    83  HIS83       0.0745
     50  CG       136.4130   23.4700  120.5620 C.ar   83  HIS83       0.0817
     51  ND1      135.6930   24.1700  119.6150 N.ar   83  HIS83      -0.2268
     52  CD2      135.7900   23.6970  121.7450 C.ar   83  HIS83       0.1154
     53  CE1      134.6590   24.7540  120.1940 C.ar   83  HIS83       0.1986
     54  NE2      134.6970   24.4840  121.4850 N.ar   83  HIS83      -0.2212
     55  N        134.4540   20.6340  123.0170 N.3    85  HIS85      -0.1226
     56  CA       133.1920   20.9510  123.6650 C.3    85  HIS85       0.1752
     57  C        132.0230   20.2720  122.9420 C.2    85  HIS85       0.2596
     58  O        132.1220   19.8320  121.7810 O.2    85  HIS85      -0.2718
     59  CB       132.9950   22.4880  123.7190 C.3    85  HIS85       0.0759
     60  CG       133.8700   23.1880  124.7210 C.ar   85  HIS85       0.0818
     61  ND1      134.1970   24.5270  124.6330 N.ar   85  HIS85      -0.2268
     62  CD2      134.4830   22.7290  125.8400 C.ar   85  HIS85       0.1154
     63  CE1      134.9660   24.8620  125.6540 C.ar   85  HIS85       0.1986
     64  NE2      135.1430   23.7900  126.4100 N.ar   85  HIS85      -0.2212
     65  N        130.9010   20.2100  123.6650 N.am   86  ASP86      -0.1960
     66  CA       129.7040   19.4800  123.2540 C.3    86  ASP86       0.1840
     67  C        129.0620   20.0210  121.9930 C.2    86  ASP86       0.2622
     68  O        128.3500   19.2830  121.3020 O.2    86  ASP86      -0.2715
     69  CB       128.6480   19.5280  124.3580 C.3    86  ASP86       0.1450
     70  CG       128.8100   18.4430  125.3460 C.2    86  ASP86       0.3671
     71  OD1      129.1290   17.3140  124.9160 O.co2  86  ASP86      -0.2456
     72  OD2      128.5960   18.7160  126.5430 O.co2  86  ASP86      -0.2456
     73  N        129.2200   21.3060  121.7200 N.am   87  ASP87      -0.1971
     74  CA       128.6490   21.8470  120.5010 C.3    87  ASP87       0.1709
     75  C        129.4610   21.4590  119.2790 C.2    87  ASP87       0.2293
     76  O        129.0700   21.7920  118.1560 O.2    87  ASP87      -0.2864
     77  CB       128.4790   23.3770  120.6090 C.3    87  ASP87       0.1436
     78  CG       129.7980   24.1530  120.8600 C.2    87  ASP87       0.3671
     79  OD1      130.7980   23.6030  121.3630 O.co2  87  ASP87      -0.2456
     80  OD2      129.8200   25.3530  120.5470 O.co2  87  ASP87      -0.2456
     81  N        140.1370   30.0730  122.2930 N.3   148  HIS148     -0.1241
     82  CA       138.9350   29.6460  123.0210 C.3   148  HIS148      0.1621
     83  C        139.1570   28.3100  123.7600 C.2   148  HIS148      0.2264
     84  O        138.6490   28.0900  124.8740 O.2   148  HIS148     -0.2867
     85  CB       137.7940   29.5350  122.0230 C.3   148  HIS148      0.0745
     86  CG       136.6170   28.7740  122.5200 C.ar  148  HIS148      0.0817
     87  ND1      135.5330   29.3870  123.0860 N.ar  148  HIS148     -0.2268
     88  CD2      136.3250   27.4530  122.4790 C.ar  148  HIS148      0.1154
     89  CE1      134.6350   28.4760  123.4100 C.ar  148  HIS148      0.1986
     90  NE2      135.0840   27.2950  123.0330 N.ar  148  HIS148     -0.2212
     91  N        134.7960   28.4420  117.5140 N.3   167  CYS167     -0.1235
     92  CA       134.4910   29.2590  118.6800 C.3   167  CYS167      0.1677
     93  C        135.6660   30.1220  119.0960 C.2   167  CYS167      0.2270
     94  O        135.5430   30.9000  120.0460 O.2   167  CYS167     -0.2867
     95  CB       133.9900   28.3570  119.8280 C.3   167  CYS167      0.0956
     96  SG       132.5590   27.4100  119.2170 S.3   167  CYS167     -0.0801
     97  N        134.4330   35.1670  117.3190 N.3   170  TYR170     -0.1227
     98  CA       133.1600   35.7090  117.7690 C.3   170  TYR170      0.1736
     99  C        132.4860   36.5260  116.6740 C.2   170  TYR170      0.2595
    100  O        133.1310   37.2650  115.9100 O.2   170  TYR170     -0.2718
    101  CB       133.3340   36.6320  118.9800 C.3   170  TYR170      0.0548
    102  CG       133.6300   36.0140  120.3310 C.ar  170  TYR170     -0.0200
    103  CD1      134.0710   34.6930  120.4700 C.ar  170  TYR170     -0.0009
    104  CD2      133.4420   36.7650  121.4850 C.ar  170  TYR170     -0.0009
    105  CE1      134.3260   34.1540  121.7380 C.ar  170  TYR170      0.0417
    106  CE2      133.6810   36.2390  122.7380 C.ar  170  TYR170      0.0417
    107  CZ       134.1250   34.9370  122.8600 C.ar  170  TYR170      0.1957
    108  OH       134.3680   34.4390  124.1090 O.3   170  TYR170     -0.2866
    109  N        131.1610   36.4390  116.6690 N.am  171  GLU171     -0.1979
    110  CA       130.3390   37.2590  115.8080 C.3   171  GLU171      0.1602
    111  C        130.3730   38.7080  116.2970 C.2   171  GLU171      0.2287
    112  O        130.6680   39.0090  117.4570 O.2   171  GLU171     -0.2864
    113  CB       128.8990   36.7300  115.7550 C.3   171  GLU171      0.0415
    114  CG       128.0940   36.9690  117.0310 C.3   171  GLU171      0.1163
    115  CD       126.6160   36.7370  116.8380 C.2   171  GLU171      0.3649
    116  OE1      126.0610   37.1200  115.7810 O.co2 171  GLU171     -0.2457
    117  OE2      126.0200   36.1610  117.7480 O.co2 171  GLU171     -0.2457
    118  N        128.6640   40.2340  119.5330 N.3   174  ARG174     -0.1245
    119  CA       129.0910   39.8890  120.8890 C.3   174  ARG174      0.1563
    120  C        130.1300   40.8780  121.3690 C.2   174  ARG174      0.2260
    121  O        131.1230   41.1390  120.6820 O.2   174  ARG174     -0.2867
    122  CB       129.6430   38.4700  120.9610 C.3   174  ARG174      0.0307
    123  CG       128.5880   37.4570  120.7840 C.3   174  ARG174      0.0489
    124  CD       129.1820   36.1050  120.7540 C.3   174  ARG174      0.2205
    125  NE       129.6350   35.6660  122.0740 N.pl3 174  ARG174     -0.0865
    126  CZ       130.4350   34.6220  122.2660 C.cat 174  ARG174      0.5346
    127  NH1      130.8760   33.9160  121.2250 N.pl3 174  ARG174      0.1354
    128  NH2      130.7970   34.2830  123.4920 N.pl3 174  ARG174      0.1354
    129  N        132.7090   35.1640  126.3890 N.3   178  GLY178     -0.1210
    130  CA       131.6840   34.2000  126.7500 C.3   178  GLY178      0.1956
    131  C        132.2710   33.0960  127.5910 C.2   178  GLY178      0.2611
    132  O        132.7570   33.3400  128.6960 O.2   178  GLY178     -0.2717
    133  N        132.2570   31.8760  127.0540 N.am  179  ASN179     -0.1974
    134  CA       132.8300   30.7280  127.7450 C.3   179  ASN179      0.1688
    135  C        134.3380   30.7820  127.6420 C.2   179  ASN179      0.2292
    136  O        134.9100   30.4940  126.5890 O.2   179  ASN179     -0.2864
    137  CB       132.3270   29.4220  127.1410 C.3   179  ASN179      0.1181
    138  CG       132.7830   28.2080  127.9180 C.2   179  ASN179      0.2629
    139  OD1      133.6480   28.2880  128.8030 O.2   179  ASN179     -0.2716
    140  ND2      132.1760   27.0710  127.6080 N.am  179  ASN179     -0.0877
    141  N        129.4310   30.6070  116.6910 N.3   209  HIS209     -0.1241
    142  CA       128.1050   31.0080  117.1430 C.3   209  HIS209      0.1621
    143  C        127.7370   32.3410  116.5120 C.2   209  HIS209      0.2264
    144  O        128.4090   33.3530  116.7460 O.2   209  HIS209     -0.2867
    145  CB       128.0620   31.1160  118.6730 C.3   209  HIS209      0.0745
    146  CG       128.4770   29.8660  119.3760 C.ar  209  HIS209      0.0817
    147  ND1      127.6500   28.7780  119.4990 N.ar  209  HIS209     -0.2268
    148  CD2      129.6300   29.5340  120.0040 C.ar  209  HIS209      0.1154
    149  CE1      128.2750   27.8230  120.1630 C.ar  209  HIS209      0.1986
    150  NE2      129.4830   28.2510  120.4700 N.ar  209  HIS209     -0.2212
@<TRIPOS>BOND
     1   113   110    1
     2   113   114    1
     3   116   115   ar
     4   110   111    1
     5   110   109    1
     6   100    99    2
     7   111   112    2
     8   143   144    2
     9   143   142    1
    10   109    99   am
    11    99    98    1
    12   141   142    1
    13   115   114    1
    14   115   117   ar
    15   142   145    1
    16    28    29    1
    17    28    25    1
    18    97    98    1
    19    91    92    1
    20    98   101    1
    21    31    32    1
    22    26    25    1
    23    26    27    2
    24    29    30    1
    25    25    24    1
    26    76    75    2
    27    45    46    1
    28   145   146    1
    29    92    93    1
    30    92    95    1
    31   101   102    1
    32    93    94    2
    33    96    95    1
    34    32    35    1
    35    32    33    1
    36    75    74    1
    37   146   147   ar
    38   146   148   ar
    39    24    30    1
    40    24    14   am
    41   147   149   ar
    42    46    49    1
    43    46    47    1
    44   118   119    1
    45    35    36    1
    46    51    53   ar
    47    51    50   ar
    48    48    47    2
    49    33    34    2
    50   148   150   ar
    51   149   150   ar
    52    53    54   ar
    53    15    14    2
    54    49    50    1
    55   102   103   ar
    56   102   104   ar
    57    14    13    1
    58   103   105   ar
    59    74    77    1
    60    74    73    1
    61    80    78   ar
    62    50    52   ar
    63    77    78    1
    64   121   120    2
    65   124   123    1
    66   124   125    1
    67   123   122    1
    68    78    79   ar
    69   119   122    1
    70   119   120    1
    71    41    38   ar
    72    41    43   ar
    73    36    38   ar
    74    36    37   ar
    75   127   126    1
    76    68    67    2
    77   104   106   ar
    78    54    52   ar
    79    38    40   ar
    80    73    67   am
    81   105   107   ar
    82    43    44   ar
    83    58    57    2
    84    13    16    1
    85    13    12    1
    86    67    66    1
    87    85    86    1
    88    85    82    1
    89   125   126    2
    90    37    39   ar
    91   126   128    1
    92    81    82    1
    93    16    17    1
    94    88    86   ar
    95    88    90   ar
    96    86    87   ar
    97   106   107   ar
    98   107   108    1
    99    40    39   ar
   100    40    42   ar
   101    57    65   am
   102    57    56    1
   103    55    56    1
   104    82    83    1
   105    90    89   ar
   106    87    89   ar
   107    44    42   ar
   108    66    65    1
   109    66    69    1
   110    56    59    1
   111    59    60    1
   112    83    84    2
   113    17    19   ar
   114    17    18   ar
   115    19    21   ar
   116    69    70    1
   117    61    60   ar
   118    61    63   ar
   119    60    62   ar
   120    18    20   ar
   121    71    70   ar
   122    21    22   ar
   123    70    72   ar
   124    63    64   ar
   125    62    64   ar
   126    20    22   ar
   127    22    23    1
   128   129   130    1
   129   136   135    2
   130   130   131    1
   131     5     6    1
   132     5     2    1
   133     1     2    1
   134   133   131   am
   135   133   134    1
   136   137   134    1
   137   137   138    1
   138     6     8   ar
   139     6     7   ar
   140   131   132    2
   141   140   138   am
   142   135   134    1
   143     8    10   ar
   144     2     3    1
   145     7     9   ar
   146   138   139    2
   147    10    11   ar
   148     4     3    2
   149     9    11   ar
