@<TRIPOS>MOLECULE
tmp/5y6eB00.pdb
 150 149 0 0 0
SMALL
GASTEIGER

@<TRIPOS>ATOM
      1  N        -44.3240  -12.7750    2.6270 N.3    31  PHE31      -0.1241
      2  CA       -43.8910  -14.1470    2.8460 C.3    31  PHE31       0.1605
      3  C        -43.9660  -14.8730    1.5140 C.2    31  PHE31       0.2264
      4  O        -45.0570  -15.0780    0.9650 O.2    31  PHE31      -0.2867
      5  CB       -44.7430  -14.8550    3.9040 C.3    31  PHE31       0.0534
      6  CG       -44.3380  -16.2930    4.1480 C.ar   31  PHE31      -0.0203
      7  CD1      -43.1840  -16.5890    4.8650 C.ar   31  PHE31      -0.0042
      8  CD2      -45.0990  -17.3380    3.6530 C.ar   31  PHE31      -0.0042
      9  CE1      -42.8020  -17.9040    5.0810 C.ar   31  PHE31      -0.0003
     10  CE2      -44.7190  -18.6670    3.8650 C.ar   31  PHE31      -0.0003
     11  CZ       -43.5790  -18.9400    4.5880 C.ar   31  PHE31      -0.0000
     12  N        -49.4540  -11.4090    3.6210 N.3    36  TYR36      -0.1228
     13  CA       -50.3980  -12.0490    4.5030 C.3    36  TYR36       0.1721
     14  C        -50.6520  -11.1810    5.7240 C.2    36  TYR36       0.2437
     15  O        -49.7250  -10.5400    6.2300 O.2    36  TYR36      -0.2733
     16  CB       -49.8760  -13.4050    4.9670 C.3    36  TYR36       0.0547
     17  CG       -49.5850  -14.3340    3.8360 C.ar   36  TYR36      -0.0200
     18  CD1      -48.3680  -14.2780    3.1630 C.ar   36  TYR36      -0.0009
     19  CD2      -50.5380  -15.2460    3.4110 C.ar   36  TYR36      -0.0009
     20  CE1      -48.1080  -15.1340    2.1020 C.ar   36  TYR36       0.0417
     21  CE2      -50.2890  -16.1030    2.3670 C.ar   36  TYR36       0.0417
     22  CZ       -49.0830  -16.0510    1.7150 C.ar   36  TYR36       0.1957
     23  OH       -48.8840  -16.9160    0.6560 O.3    36  TYR36      -0.2866
     24  N        -51.8740  -11.1700    6.2370 N.am   37  PRO37      -0.2729
     25  CA       -52.1260  -10.5890    7.5560 C.3    37  PRO37       0.1401
     26  C        -51.8820  -11.6430    8.6270 C.2    37  PRO37       0.2269
     27  O        -51.8190  -12.8410    8.3480 O.2    37  PRO37      -0.2865
     28  CB       -53.6060  -10.2020    7.4720 C.3    37  PRO37       0.0296
     29  CG       -54.1920  -11.3340    6.6820 C.3    37  PRO37       0.0237
     30  CD       -53.1010  -11.7520    5.6800 C.3    37  PRO37       0.0939
     31  N        -45.0570  -10.9720   14.1840 N.3    56  TRP56      -0.1241
     32  CA       -44.3690  -11.5510   13.0360 C.3    56  TRP56       0.1605
     33  C        -43.1430  -10.7400   12.6390 C.2    56  TRP56       0.2264
     34  O        -43.1150  -10.1090   11.5790 O.2    56  TRP56      -0.2867
     35  CB       -45.3260  -11.6870   11.8510 C.3    56  TRP56       0.0550
     36  CG       -44.8590  -12.5860   10.7370 C.ar   56  TRP56       0.0003
     37  CD1      -43.6580  -13.1740   10.5910 C.ar   56  TRP56       0.0946
     38  CD2      -45.6510  -13.0140    9.6260 C.ar   56  TRP56       0.0152
     39  NE1      -43.6320  -13.9470    9.4650 N.ar   56  TRP56      -0.2442
     40  CE2      -44.8440  -13.8580    8.8370 C.ar   56  TRP56       0.0810
     41  CE3      -46.9550  -12.7470    9.2180 C.ar   56  TRP56       0.0012
     42  CZ2      -45.2970  -14.4250    7.6520 C.ar   56  TRP56       0.0191
     43  CZ3      -47.4190  -13.3150    8.0430 C.ar   56  TRP56       0.0001
     44  CH2      -46.5960  -14.1570    7.2800 C.ar   56  TRP56       0.0015
     45  N        -47.2620  -21.2170   18.8080 N.3    83  HIS83      -0.1241
     46  CA       -46.4520  -22.2830   18.2280 C.3    83  HIS83       0.1621
     47  C        -45.1440  -21.6590   17.7550 C.2    83  HIS83       0.2264
     48  O        -44.8720  -20.4750   17.9880 O.2    83  HIS83      -0.2867
     49  CB       -47.1720  -23.0800   17.1190 C.3    83  HIS83       0.0745
     50  CG       -47.4520  -22.3340   15.8470 C.ar   83  HIS83       0.0817
     51  ND1      -48.5140  -21.4640   15.7140 N.ar   83  HIS83      -0.2268
     52  CD2      -46.8710  -22.4060   14.6240 C.ar   83  HIS83       0.1154
     53  CE1      -48.5420  -20.9960   14.4830 C.ar   83  HIS83       0.1986
     54  NE2      -47.5580  -21.5550   13.7970 N.ar   83  HIS83      -0.2212
     55  N        -43.5650  -21.1080   14.8110 N.3    85  HIS85      -0.1226
     56  CA       -43.3100  -20.3700   13.5830 C.3    85  HIS85       0.1752
     57  C        -43.0540  -18.8890   13.8670 C.2    85  HIS85       0.2596
     58  O        -43.3940  -18.3510   14.9240 O.2    85  HIS85      -0.2718
     59  CB       -44.4750  -20.5360   12.6090 C.3    85  HIS85       0.0759
     60  CG       -44.5720  -21.9100   12.0300 C.ar   85  HIS85       0.0818
     61  ND1      -45.7460  -22.4300   11.5120 N.ar   85  HIS85      -0.2268
     62  CD2      -43.6380  -22.8780   11.8960 C.ar   85  HIS85       0.1154
     63  CE1      -45.5140  -23.6550   11.0670 C.ar   85  HIS85       0.1986
     64  NE2      -44.2460  -23.9520   11.2940 N.ar   85  HIS85      -0.2212
     65  N        -42.4610  -18.2400   12.8600 N.am   86  ASP86      -0.1960
     66  CA       -41.9410  -16.8800   12.9620 C.3    86  ASP86       0.1840
     67  C        -43.0300  -15.8670   13.2040 C.2    86  ASP86       0.2622
     68  O        -42.7680  -14.7990   13.7490 O.2    86  ASP86      -0.2715
     69  CB       -41.2180  -16.5280   11.6630 C.3    86  ASP86       0.1450
     70  CG       -39.8160  -17.0530   11.6080 C.2    86  ASP86       0.3671
     71  OD1      -39.2070  -17.1990   12.6930 O.co2  86  ASP86      -0.2456
     72  OD2      -39.3110  -17.2740   10.4720 O.co2  86  ASP86      -0.2456
     73  N        -44.2510  -16.1640   12.7860 N.am   87  ASP87      -0.1971
     74  CA       -45.3420  -15.2430   13.0390 C.3    87  ASP87       0.1709
     75  C        -45.8160  -15.3030   14.4860 C.2    87  ASP87       0.2293
     76  O        -46.6510  -14.4890   14.8840 O.2    87  ASP87      -0.2864
     77  CB       -46.4850  -15.4850   12.0330 C.3    87  ASP87       0.1436
     78  CG       -47.1060  -16.8840   12.0980 C.2    87  ASP87       0.3671
     79  OD1      -46.4780  -17.8680   12.5090 O.co2  87  ASP87      -0.2456
     80  OD2      -48.2650  -16.9680   11.6710 O.co2  87  ASP87      -0.2456
     81  N        -52.2770  -27.6060   13.0190 N.3   148  HIS148     -0.1241
     82  CA       -51.3900  -26.7990   12.1860 C.3   148  HIS148      0.1621
     83  C        -49.9260  -27.1210   12.4680 C.2   148  HIS148      0.2264
     84  O        -49.0850  -27.1120   11.5540 O.2   148  HIS148     -0.2867
     85  CB       -51.6990  -25.3190   12.4190 C.3   148  HIS148      0.0745
     86  CG       -50.6820  -24.3880   11.8410 C.ar  148  HIS148      0.0817
     87  ND1      -50.7520  -23.9170   10.5530 N.ar  148  HIS148     -0.2268
     88  CD2      -49.5990  -23.7960   12.4030 C.ar  148  HIS148      0.1154
     89  CE1      -49.7420  -23.0950   10.3300 C.ar  148  HIS148      0.1986
     90  NE2      -49.0280  -23.0030   11.4410 N.ar  148  HIS148     -0.2212
     91  N        -53.0580  -20.4470   14.5290 N.3   167  CYS167     -0.1235
     92  CA       -53.0050  -20.8910   13.1420 C.3   167  CYS167      0.1677
     93  C        -53.6190  -22.2660   12.9390 C.2   167  CYS167      0.2270
     94  O        -53.7790  -22.6980   11.7850 O.2   167  CYS167     -0.2867
     95  CB       -51.5670  -20.8220   12.6610 C.3   167  CYS167      0.0956
     96  SG       -50.9990  -19.1060   12.8590 S.3   167  CYS167     -0.0801
     97  N        -58.6380  -21.5280   10.7940 N.3   170  TYR170     -0.1227
     98  CA       -58.6580  -20.7030    9.5950 C.3   170  TYR170      0.1736
     99  C        -59.8230  -19.7090    9.5800 C.2   170  TYR170      0.2595
    100  O        -60.9440  -20.0180   10.0010 O.2   170  TYR170     -0.2718
    101  CB       -58.7830  -21.5630    8.3420 C.3   170  TYR170      0.0548
    102  CG       -57.5560  -22.3170    7.8980 C.ar  170  TYR170     -0.0200
    103  CD1      -56.4710  -22.5060    8.7280 C.ar  170  TYR170     -0.0009
    104  CD2      -57.4850  -22.8190    6.6110 C.ar  170  TYR170     -0.0009
    105  CE1      -55.3490  -23.1990    8.2840 C.ar  170  TYR170      0.0417
    106  CE2      -56.3710  -23.5090    6.1660 C.ar  170  TYR170      0.0417
    107  CZ       -55.3030  -23.6850    7.0080 C.ar  170  TYR170      0.1957
    108  OH       -54.2100  -24.3850    6.5510 O.3   170  TYR170     -0.2866
    109  N        -59.5600  -18.5320    9.0300 N.am  171  GLU171     -0.1979
    110  CA       -60.6380  -17.6120    8.6930 C.3   171  GLU171      0.1602
    111  C        -61.4920  -18.1710    7.5480 C.2   171  GLU171      0.2287
    112  O        -61.0370  -18.9740    6.7290 O.2   171  GLU171     -0.2864
    113  CB       -60.0880  -16.2390    8.3170 C.3   171  GLU171      0.0415
    114  CG       -59.4400  -16.1490    6.9480 C.3   171  GLU171      0.1163
    115  CD       -59.2050  -14.7180    6.4690 C.2   171  GLU171      0.3649
    116  OE1      -60.0600  -13.8160    6.6930 O.co2 171  GLU171     -0.2457
    117  OE2      -58.1370  -14.4980    5.8630 O.co2 171  GLU171     -0.2457
    118  N        -60.5340  -18.2620    3.6910 N.3   174  ARG174     -0.1245
    119  CA       -59.5540  -19.2390    3.2370 C.3   174  ARG174      0.1563
    120  C        -60.2550  -20.5690    2.9760 C.2   174  ARG174      0.2260
    121  O        -60.7230  -21.2220    3.9090 O.2   174  ARG174     -0.2867
    122  CB       -58.4550  -19.3870    4.2760 C.3   174  ARG174      0.0307
    123  CG       -57.5410  -18.2000    4.3550 C.3   174  ARG174      0.0489
    124  CD       -56.5020  -18.3860    5.4790 C.3   174  ARG174      0.2205
    125  NE       -55.5830  -19.4810    5.1700 N.pl3 174  ARG174     -0.0865
    126  CZ       -54.7850  -20.0880    6.0530 C.cat 174  ARG174      0.5346
    127  NH1      -54.7850  -19.7420    7.3290 N.pl3 174  ARG174      0.1354
    128  NH2      -53.9920  -21.0770    5.6570 N.pl3 174  ARG174      0.1354
    129  N        -53.1870  -23.7970    3.6640 N.3   178  GLY178     -0.1210
    130  CA       -52.0100  -22.9740    3.4920 C.3   178  GLY178      0.1956
    131  C        -50.7590  -23.7000    3.9120 C.2   178  GLY178      0.2611
    132  O        -50.3740  -24.7040    3.3030 O.2   178  GLY178     -0.2717
    133  N        -50.1510  -23.2390    4.9960 N.am  179  ASN179     -0.1974
    134  CA       -48.9290  -23.8540    5.4900 C.3   179  ASN179      0.1688
    135  C        -49.2610  -25.2010    6.1080 C.2   179  ASN179      0.2292
    136  O        -49.9320  -25.2750    7.1460 O.2   179  ASN179     -0.2864
    137  CB       -48.2460  -22.9280    6.4910 C.3   179  ASN179      0.1181
    138  CG       -46.8630  -23.4130    6.8770 C.2   179  ASN179      0.2629
    139  OD1      -46.5690  -24.6070    6.7900 O.2   179  ASN179     -0.2716
    140  ND2      -45.9980  -22.4860    7.2910 N.am  179  ASN179     -0.0877
    141  N        -54.7170  -15.8940   11.2480 N.3   209  HIS209     -0.1241
    142  CA       -54.6350  -14.9790   10.1230 C.3   209  HIS209      0.1621
    143  C        -56.0430  -14.6170    9.6620 C.2   209  HIS209      0.2264
    144  O        -56.8790  -15.5030    9.4560 O.2   209  HIS209     -0.2867
    145  CB       -53.8410  -15.6090    8.9600 C.3   209  HIS209      0.0745
    146  CG       -52.4820  -16.0930    9.3440 C.ar  209  HIS209      0.0817
    147  ND1      -51.3650  -15.3020    9.2560 N.ar  209  HIS209     -0.2268
    148  CD2      -52.0620  -17.2810    9.8420 C.ar  209  HIS209      0.1154
    149  CE1      -50.3080  -15.9760    9.6710 C.ar  209  HIS209      0.1986
    150  NE2      -50.7020  -17.1900   10.0110 N.ar  209  HIS209     -0.2212
@<TRIPOS>BOND
     1    23    22    1
     2     4     3    2
     3     3     2    1
     4    22    20   ar
     5    22    21   ar
     6    20    18   ar
     7    21    19   ar
     8     1     2    1
     9     2     5    1
    10   120   119    1
    11   120   121    2
    12    18    17   ar
    13   119   118    1
    14   119   122    1
    15   132   131    2
    16    19    17   ar
    17   130   129    1
    18   130   131    1
    19    12    13    1
    20     8    10   ar
    21     8     6   ar
    22    17    16    1
    23    10    11   ar
    24     5     6    1
    25   131   133   am
    26     6     7   ar
    27   122   123    1
    28   123   124    1
    29    13    16    1
    30    13    14    1
    31    11     9   ar
    32     7     9   ar
    33   133   134    1
    34   125   124    1
    35   125   126    2
    36   134   135    1
    37   134   137    1
    38   128   126    1
    39    30    24    1
    40    30    29    1
    41    14    15    2
    42    14    24   am
    43   117   115   ar
    44   126   127    1
    45   135   136    2
    46   106   104   ar
    47   106   107   ar
    48    24    25    1
    49   115   116   ar
    50   115   114    1
    51   137   138    1
    52   108   107    1
    53   104   102   ar
    54    29    28    1
    55   112   111    2
    56   139   138    2
    57   138   140   am
    58   114   113    1
    59   107   105   ar
    60    44    42   ar
    61    44    43   ar
    62    28    25    1
    63   111   110    1
    64    25    26    1
    65    42    40   ar
    66   102   101    1
    67   102   103   ar
    68    43    41   ar
    69   105   103   ar
    70   113   110    1
    71   101    98    1
    72    27    26    2
    73   110   109    1
    74    40    39   ar
    75    40    38   ar
    76   145   146    1
    77   145   142    1
    78   109    99   am
    79    41    38   ar
    80   147   146   ar
    81   147   149   ar
    82   146   148   ar
    83   144   143    2
    84    39    37   ar
    85    99    98    1
    86    99   100    2
    87    98    97    1
    88    38    36   ar
    89   143   142    1
    90   149   150   ar
    91   148   150   ar
    92   142   141    1
    93    89    87   ar
    94    89    90   ar
    95    72    70   ar
    96    87    86   ar
    97    37    36   ar
    98    36    35    1
    99    63    64   ar
   100    63    61   ar
   101    64    62   ar
   102    90    88   ar
   103    61    60   ar
   104    84    83    2
   105    34    33    2
   106    70    69    1
   107    70    71   ar
   108    69    66    1
   109    80    78   ar
   110    94    93    2
   111    86    88   ar
   112    86    85    1
   113    35    32    1
   114    62    60   ar
   115    60    59    1
   116    77    78    1
   117    77    74    1
   118    78    79   ar
   119    82    85    1
   120    82    83    1
   121    82    81    1
   122    59    56    1
   123    33    32    1
   124    95    96    1
   125    95    92    1
   126    73    74    1
   127    73    67   am
   128    65    66    1
   129    65    57   am
   130    93    92    1
   131    66    67    1
   132    32    31    1
   133    74    75    1
   134    92    91    1
   135    67    68    2
   136    56    57    1
   137    56    55    1
   138    54    53   ar
   139    54    52   ar
   140    57    58    2
   141    53    51   ar
   142    75    76    2
   143    52    50   ar
   144    51    50   ar
   145    50    49    1
   146    49    46    1
   147    47    48    2
   148    47    46    1
   149    46    45    1
