@<TRIPOS>MOLECULE
tmp/5y6fA00.pdb
 160 154 0 0 0
SMALL
GASTEIGER

@<TRIPOS>ATOM
      1  N        -11.7880   -5.9870   19.0400 N.3    80  LYS80      -0.1245
      2  CA       -13.1300   -5.4730   18.8770 C.3    80  LYS80       0.1561
      3  C        -13.0740   -4.2620   17.9440 C.2    80  LYS80       0.2260
      4  O        -12.2380   -3.3590   18.1250 O.2    80  LYS80      -0.2867
      5  CB       -13.7220   -5.0750   20.2290 C.3    80  LYS80       0.0271
      6  CG       -15.1410   -4.5210   20.1290 C.3    80  LYS80       0.0035
      7  CD       -15.5110   -3.7040   21.3770 C.3    80  LYS80       0.0206
      8  CE       -16.9740   -3.5570   21.4400 C.3    80  LYS80       0.1093
      9  NZ       -17.4970   -2.8950   22.6880 N.3    80  LYS80      -0.1314
     10  N         -7.2780   -4.7420   24.0150 N.3   112  ARG112     -0.1231
     11  CA        -6.8550   -4.3860   25.3550 C.3   112  ARG112      0.1694
     12  C         -6.2770   -5.5640   26.1320 C.2   112  ARG112      0.2592
     13  O         -5.8540   -5.3670   27.2750 O.2   112  ARG112     -0.2718
     14  CB        -8.0380   -3.8110   26.1600 C.3   112  ARG112      0.0321
     15  CG        -8.7190   -2.6410   25.5300 C.3   112  ARG112      0.0489
     16  CD       -10.0690   -2.3530   26.2470 C.3   112  ARG112      0.2205
     17  NE       -11.1660   -3.1950   25.7140 N.pl3 112  ARG112     -0.0865
     18  CZ       -12.4530   -2.9230   25.9060 C.cat 112  ARG112      0.5346
     19  NH1      -12.8140   -1.8370   26.6110 N.pl3 112  ARG112      0.1354
     20  NH2      -13.3750   -3.7070   25.3770 N.pl3 112  ARG112      0.1354
     21  N         -6.3170   -6.7850   25.5980 N.am  113  ARG113     -0.1966
     22  CA        -6.0490   -7.9700   26.4190 C.3   113  ARG113      0.1729
     23  C         -4.5520   -8.2840   26.4500 C.2   113  ARG113      0.2616
     24  O         -3.9300   -8.4960   25.4090 O.2   113  ARG113     -0.2715
     25  CB        -6.8410   -9.1720   25.8990 C.3   113  ARG113      0.0348
     26  CG        -8.3600   -8.8740   25.9450 C.3   113  ARG113      0.0492
     27  CD        -9.1300   -9.9760   25.2570 C.3   113  ARG113      0.2205
     28  NE       -10.5410   -9.7810   25.4740 N.pl3 113  ARG113     -0.0865
     29  CZ       -11.4600  -10.6030   25.0300 C.cat 113  ARG113      0.5346
     30  NH1      -11.0810  -11.6850   24.3430 N.pl3 113  ARG113      0.1354
     31  NH2      -12.7380  -10.3280   25.2760 N.pl3 113  ARG113      0.1354
     32  N         -3.9760   -8.2870   27.6450 N.am  114  ARG114     -0.1963
     33  CA        -2.5480   -8.5990   27.7950 C.3   114  ARG114      0.1729
     34  C         -2.3030  -10.0770   27.7110 C.2   114  ARG114      0.2616
     35  O         -1.2090  -10.4970   27.3210 O.2   114  ARG114     -0.2715
     36  CB        -2.0200   -8.1380   29.1470 C.3   114  ARG114      0.0348
     37  CG        -2.3140   -6.6680   29.4810 C.3   114  ARG114      0.0492
     38  CD        -2.2870   -6.3790   31.0000 C.3   114  ARG114      0.2205
     39  NE        -3.4750   -6.9640   31.6220 N.pl3 114  ARG114     -0.0865
     40  CZ        -3.7950   -6.8460   32.9040 C.cat 114  ARG114      0.5346
     41  NH1       -3.0200   -6.1420   33.7240 N.pl3 114  ARG114      0.1354
     42  NH2       -4.8840   -7.4630   33.3720 N.pl3 114  ARG114      0.1354
     43  N         -3.3080  -10.8870   28.0650 N.am  115  TYR115     -0.1974
     44  CA        -3.0860  -12.3150   28.2320 C.3   115  TYR115      0.1639
     45  C         -3.9320  -13.0800   27.2360 C.2   115  TYR115      0.2290
     46  O         -5.0140  -12.6370   26.8210 O.2   115  TYR115     -0.2864
     47  CB        -3.4170  -12.7830   29.6720 C.3   115  TYR115      0.0560
     48  CG        -2.7940  -11.9410   30.7750 C.ar  115  TYR115     -0.0198
     49  CD1       -1.4070  -11.8240   30.8840 C.ar  115  TYR115     -0.0009
     50  CD2       -3.5990  -11.2980   31.7270 C.ar  115  TYR115     -0.0009
     51  CE1       -0.8260  -11.0670   31.8750 C.ar  115  TYR115      0.0417
     52  CE2       -3.0420  -10.5220   32.7150 C.ar  115  TYR115      0.0417
     53  CZ        -1.6390  -10.4130   32.7870 C.ar  115  TYR115      0.1957
     54  OH        -1.0450   -9.6530   33.7680 O.3   115  TYR115     -0.2866
     55  N         -6.3770  -15.9800   26.0250 N.3   117  ARG117     -0.1245
     56  CA        -7.5530  -16.6500   26.5820 C.3   117  ARG117      0.1563
     57  C         -7.8050  -17.9390   25.8310 C.2   117  ARG117      0.2260
     58  O         -7.8660  -17.9530   24.5970 O.2   117  ARG117     -0.2867
     59  CB        -8.7740  -15.7490   26.4900 C.3   117  ARG117      0.0307
     60  CG        -8.5700  -14.4040   27.1650 C.3   117  ARG117      0.0489
     61  CD        -9.9030  -13.6560   27.3290 C.3   117  ARG117      0.2205
     62  NE        -9.6770  -12.3550   28.0000 N.pl3 117  ARG117     -0.0865
     63  CZ       -10.6580  -11.5510   28.4190 C.cat 117  ARG117      0.5346
     64  NH1      -11.9690  -11.8890   28.2320 N.pl3 117  ARG117      0.1354
     65  NH2      -10.3400  -10.4250   29.0550 N.pl3 117  ARG117      0.1354
     66  N        -14.0000  -19.6450   29.5880 N.3   142  ASP142     -0.1225
     67  CA       -12.6350  -19.4940   29.1060 C.3   142  ASP142      0.1805
     68  C        -11.7430  -19.0680   30.2660 C.2   142  ASP142      0.2598
     69  O        -12.2150  -18.7760   31.3750 O.2   142  ASP142     -0.2718
     70  CB       -12.5710  -18.5370   27.9050 C.3   142  ASP142      0.1424
     71  CG       -12.8710  -17.0800   28.2660 C.2   142  ASP142      0.3668
     72  OD1      -12.8570  -16.7000   29.4600 O.co2 142  ASP142     -0.2456
     73  OD2      -13.1090  -16.2980   27.3220 O.co2 142  ASP142     -0.2456
     74  N        -10.4380  -19.0440   30.0000 N.am  143  LEU143     -0.1966
     75  CA        -9.4410  -18.9530   31.0520 C.3   143  LEU143      0.1728
     76  C         -8.2540  -18.1920   30.5140 C.2   143  LEU143      0.2616
     77  O         -7.8220  -18.4270   29.3910 O.2   143  LEU143     -0.2715
     78  CB        -8.9760  -20.3400   31.4990 C.3   143  LEU143      0.0311
     79  CG        -8.0020  -20.3550   32.6540 C.3   143  LEU143      0.0022
     80  CD1       -8.6840  -19.7360   33.8480 C.3   143  LEU143      0.0001
     81  CD2       -7.5390  -21.7840   32.9610 C.3   143  LEU143      0.0001
     82  N         -7.7360  -17.2880   31.3280 N.am  144  SER144     -0.1950
     83  CA        -6.5460  -16.5330   31.0240 C.3   144  SER144      0.1924
     84  C         -5.7630  -16.4160   32.3200 C.2   144  SER144      0.2314
     85  O         -6.2590  -16.7490   33.3930 O.2   144  SER144     -0.2863
     86  CB        -6.8730  -15.1530   30.4710 C.3   144  SER144      0.2116
     87  OG        -7.1160  -14.2070   31.4970 O.3   144  SER144     -0.2180
     88  N         -5.2270  -13.8910   34.0290 N.3   146  GLY146     -0.1210
     89  CA        -5.7360  -12.9190   34.9670 C.3   146  GLY146      0.1956
     90  C         -7.1910  -13.0880   35.3410 C.2   146  GLY146      0.2612
     91  O         -7.7300  -12.2710   36.1060 O.2   146  GLY146     -0.2717
     92  N         -7.8370  -14.1490   34.8600 N.am  147  GLY147     -0.1942
     93  CA        -9.2640  -14.2660   35.1070 C.3   147  GLY147      0.2014
     94  C         -9.8990  -15.3620   34.2910 C.2   147  GLY147      0.2639
     95  O         -9.2220  -16.2440   33.7540 O.2   147  GLY147     -0.2714
     96  N        -11.2170  -15.2910   34.2200 N.am  148  MET148     -0.1963
     97  CA       -11.9630  -16.4170   33.7170 C.3   148  MET148      0.1736
     98  C        -13.3450  -15.9160   33.3540 C.2   148  MET148      0.2617
     99  O        -13.8650  -14.9770   33.9660 O.2   148  MET148     -0.2715
    100  CB       -12.0280  -17.5410   34.7880 C.3   148  MET148      0.0427
    101  CG       -12.7750  -17.1010   36.0640 C.3   148  MET148      0.0599
    102  SD       -13.2080  -18.4010   37.2680 S.3   148  MET148     -0.1393
    103  CE       -12.2160  -19.7710   36.6770 C.3   148  MET148      0.0692
    104  N        -13.9170  -16.5300   32.3410 N.am  149  GLY149     -0.1955
    105  CA       -15.2940  -16.3110   31.9660 C.3   149  GLY149      0.1869
    106  C        -16.0870  -17.5440   32.3600 C.2   149  GLY149      0.2309
    107  O        -15.5600  -18.6650   32.3530 O.2   149  GLY149     -0.2863
    108  N        -16.6630   -8.7850   37.4600 N.3   181  ILE181     -0.1231
    109  CA       -16.4560   -7.4880   36.8320 C.3   181  ILE181      0.1692
    110  C        -17.4660   -7.2030   35.7330 C.2   181  ILE181      0.2592
    111  O        -17.6570   -6.0310   35.3810 O.2   181  ILE181     -0.2718
    112  CB       -15.0320   -7.3350   36.2700 C.3   181  ILE181      0.0266
    113  CG1      -14.7860   -8.3830   35.1840 C.3   181  ILE181      0.0019
    114  CG2      -14.0040   -7.4060   37.3940 C.3   181  ILE181      0.0020
    115  CD1      -13.3730   -8.4190   34.7040 C.3   181  ILE181      0.0001
    116  N        -18.1140   -8.2210   35.1780 N.am  182  SER182     -0.1952
    117  CA       -19.0820   -7.9400   34.1270 C.3   182  SER182      0.1924
    118  C        -20.1270   -9.0330   34.1140 C.2   182  SER182      0.2314
    119  O        -19.8050  -10.2170   34.2720 O.2   182  SER182     -0.2863
    120  CB       -18.4220   -7.8130   32.7450 C.3   182  SER182      0.2116
    121  OG       -19.3610   -7.2520   31.8490 O.3   182  SER182     -0.2180
    122  N        -23.6930  -14.7440   31.1520 N.3   191  ARG191     -0.1245
    123  CA       -22.2410  -14.8610   31.1740 C.3   191  ARG191      0.1563
    124  C        -21.6240  -13.9400   32.2230 C.2   191  ARG191      0.2260
    125  O        -21.9720  -12.7530   32.2950 O.2   191  ARG191     -0.2867
    126  CB       -21.6970  -14.5330   29.7800 C.3   191  ARG191      0.0307
    127  CG       -20.3050  -13.9770   29.7340 C.3   191  ARG191      0.0489
    128  CD       -19.3630  -15.0400   29.2450 C.3   191  ARG191      0.2205
    129  NE       -17.9920  -14.6330   29.4980 N.pl3 191  ARG191     -0.0865
    130  CZ       -17.1260  -14.3650   28.5430 C.cat 191  ARG191      0.5346
    131  NH1      -17.4870  -14.4810   27.2760 N.pl3 191  ARG191      0.1354
    132  NH2      -15.8950  -14.0060   28.8490 N.pl3 191  ARG191      0.1354
    133  N        -17.8710  -12.5020   34.0210 N.3   193  SER193     -0.1202
    134  CA       -16.4660  -12.2160   33.7550 C.3   193  SER193      0.2020
    135  C        -15.8000  -11.9330   35.1010 C.2   193  SER193      0.2619
    136  O        -16.2730  -11.0740   35.8550 O.2   193  SER193     -0.2717
    137  CB       -16.3310  -11.0340   32.8190 C.3   193  SER193      0.2103
    138  OG       -16.4550  -11.3630   31.4240 O.3   193  SER193     -0.2182
    139  N        -14.7410  -12.6850   35.4220 N.am  194  PHE194     -0.1961
    140  CA       -14.0420  -12.5700   36.6880 C.3   194  PHE194      0.1771
    141  C        -12.6120  -12.1700   36.4210 C.2   194  PHE194      0.2619
    142  O        -11.9550  -12.7620   35.5570 O.2   194  PHE194     -0.2715
    143  CB       -14.0510  -13.8840   37.4680 C.3   194  PHE194      0.0574
    144  CG       -15.3620  -14.1930   38.1240 C.ar  194  PHE194     -0.0200
    145  CD1      -15.6790  -13.6400   39.3590 C.ar  194  PHE194     -0.0042
    146  CD2      -16.2880  -15.0190   37.4990 C.ar  194  PHE194     -0.0042
    147  CE1      -16.8840  -13.9090   39.9630 C.ar  194  PHE194     -0.0003
    148  CE2      -17.5190  -15.3110   38.1030 C.ar  194  PHE194     -0.0003
    149  CZ       -17.8100  -14.7570   39.3360 C.ar  194  PHE194     -0.0000
    150  N        -12.1300  -11.1750   37.1560 N.am  195  ARG195     -0.1977
    151  CA       -10.7010  -10.9400   37.2480 C.3   195  ARG195      0.1597
    152  C        -10.2210  -11.5040   38.5730 C.2   195  ARG195      0.2287
    153  O        -10.8700  -11.2850   39.6050 O.2   195  ARG195     -0.2864
    154  CB       -10.3820   -9.4500   37.1520 C.3   195  ARG195      0.0334
    155  CG       -10.8690   -8.5740   38.3150 C.3   195  ARG195      0.0492
    156  CD       -10.2630   -7.1650   38.1420 C.3   195  ARG195      0.2205
    157  NE       -10.8430   -6.1840   39.0280 N.pl3 195  ARG195     -0.0865
    158  CZ       -11.3300   -5.0080   38.6360 C.cat 195  ARG195      0.5346
    159  NH1      -11.2930   -4.6460   37.3490 N.pl3 195  ARG195      0.1354
    160  NH2      -11.8480   -4.1770   39.5440 N.pl3 195  ARG195      0.1354
@<TRIPOS>BOND
     1     3     4    2
     2     3     2    1
     3     2     1    1
     4     2     5    1
     5     6     5    1
     6     6     7    1
     7     7     8    1
     8     8     9    1
     9    10    11    1
    10    30    29    1
    11    58    57    2
    12    29    31    1
    13    29    28    2
    14    27    28    1
    15    27    26    1
    16    11    12    1
    17    11    14    1
    18    20    18    1
    19    24    23    2
    20    15    14    1
    21    15    16    1
    22    21    12   am
    23    21    22    1
    24    17    18    2
    25    17    16    1
    26    57    56    1
    27    25    26    1
    28    25    22    1
    29    18    19    1
    30    55    56    1
    31    12    13    2
    32    22    23    1
    33    23    32   am
    34    59    56    1
    35    59    60    1
    36    46    45    2
    37    60    61    1
    38    45    44    1
    39   131   130    1
    40    35    34    2
    41    73    71   ar
    42    61    62    1
    43    32    33    1
    44    34    33    1
    45    34    43   am
    46    33    36    1
    47    70    71    1
    48    70    67    1
    49    62    63    2
    50    43    44    1
    51    64    63    1
    52    44    47    1
    53    71    72   ar
    54    63    65    1
    55   130   132    1
    56   130   129    2
    57    67    66    1
    58    67    68    1
    59    36    37    1
    60   128   129    1
    61   128   127    1
    62    77    76    2
    63    37    38    1
    64    47    48    1
    65   127   126    1
    66   126   123    1
    67    74    68   am
    68    74    75    1
    69    68    69    2
    70    86    83    1
    71    86    87    1
    72    76    75    1
    73    76    82   am
    74    48    49   ar
    75    48    50   ar
    76    49    51   ar
    77    38    39    1
    78    83    82    1
    79    83    84    1
    80    75    78    1
    81   122   123    1
    82   123   124    1
    83   138   137    1
    84    78    79    1
    85    39    40    2
    86    50    52   ar
    87   121   120    1
    88    51    53   ar
    89   105   104    1
    90   105   106    1
    91   124   125    2
    92    84    85    2
    93   104    98   am
    94   107   106    2
    95    79    81    1
    96    79    80    1
    97    52    53   ar
    98   120   117    1
    99    53    54    1
   100   137   134    1
   101    40    42    1
   102    40    41    1
   103    98    97    1
   104    98    99    2
   105    97    96    1
   106    97   100    1
   107    95    94    2
   108   134   133    1
   109   134   135    1
   110    88    89    1
   111   118   117    1
   112   118   119    2
   113   117   116    1
   114    96    94   am
   115    94    93    1
   116   115   113    1
   117   100   101    1
   118    92    93    1
   119    92    90   am
   120    89    90    1
   121   135   139   am
   122   135   136    2
   123   116   110   am
   124   113   112    1
   125    90    91    2
   126   111   110    2
   127   139   140    1
   128   142   141    2
   129   110   109    1
   130   101   102    1
   131   112   109    1
   132   112   114    1
   133   141   140    1
   134   141   150   am
   135   103   102    1
   136   140   143    1
   137   109   108    1
   138   154   151    1
   139   154   155    1
   140   150   151    1
   141   151   152    1
   142   159   158    1
   143   143   144    1
   144   146   148   ar
   145   146   144   ar
   146   148   149   ar
   147   144   145   ar
   148   156   155    1
   149   156   157    1
   150   152   153    2
   151   158   157    2
   152   158   160    1
   153   149   147   ar
   154   145   147   ar
