@<TRIPOS>MOLECULE
tmp/5y6fA01.pdb
 140 132 0 0 0
SMALL
GASTEIGER

@<TRIPOS>ATOM
      1  N        -16.7780   -8.3150   16.2880 N.3    75  GLU75      -0.1231
      2  CA       -15.8840   -9.0840   17.1410 C.3    75  GLU75       0.1699
      3  C        -15.0070   -9.9490   16.2510 C.2    75  GLU75       0.2592
      4  O        -15.5030  -10.8880   15.6430 O.2    75  GLU75      -0.2718
      5  CB       -16.7250   -9.9530   18.0820 C.3    75  GLU75       0.0402
      6  CG       -17.8580   -9.1440   18.7430 C.3    75  GLU75       0.1161
      7  CD       -18.8020   -9.9730   19.5940 C.2    75  GLU75       0.3649
      8  OE1      -18.7540  -11.2390   19.5460 O.co2  75  GLU75      -0.2457
      9  OE2      -19.5930   -9.3310   20.3130 O.co2  75  GLU75      -0.2457
     10  N        -13.7310   -9.6290   16.1260 N.am   76  THR76      -0.1953
     11  CA       -12.8070  -10.4900   15.3850 C.3    76  THR76       0.1897
     12  C        -11.7800  -11.0490   16.3420 C.2    76  THR76       0.2313
     13  O        -11.7140  -10.6570   17.5070 O.2    76  THR76      -0.2863
     14  CB       -12.0740   -9.7520   14.2490 C.3    76  THR76       0.1794
     15  OG1      -11.3760   -8.6040   14.7830 O.3    76  THR76      -0.2208
     16  CG2      -13.0590   -9.2690   13.2330 C.3    76  THR76       0.0378
     17  N         -8.6700  -11.2910   18.2710 N.3    78  GLY78      -0.1210
     18  CA        -7.7020  -10.3210   18.7560 C.3    78  GLY78       0.1956
     19  C         -8.1870   -8.8870   18.7580 C.2    78  GLY78       0.2612
     20  O         -7.4220   -7.9740   19.1520 O.2    78  GLY78      -0.2717
     21  N         -9.4240   -8.6250   18.3330 N.am   79  ALA79      -0.1965
     22  CA        -9.8420   -7.2290   18.4470 C.3    79  ALA79       0.1728
     23  C        -11.3560   -7.1120   18.5000 C.2    79  ALA79       0.2616
     24  O        -12.0940   -7.9610   17.9980 O.2    79  ALA79      -0.2715
     25  CB        -9.3270   -6.3860   17.2850 C.3    79  ALA79       0.0334
     26  N        -11.7880   -5.9870   19.0400 N.am   80  LYS80      -0.1977
     27  CA       -13.1300   -5.4730   18.8770 C.3    80  LYS80       0.1596
     28  C        -13.0740   -4.2620   17.9440 C.2    80  LYS80       0.2287
     29  O        -12.2380   -3.3590   18.1250 O.2    80  LYS80      -0.2864
     30  CB       -13.7220   -5.0750   20.2290 C.3    80  LYS80       0.0298
     31  CG       -15.1410   -4.5210   20.1290 C.3    80  LYS80       0.0038
     32  CD       -15.5110   -3.7040   21.3770 C.3    80  LYS80       0.0206
     33  CE       -16.9740   -3.5570   21.4400 C.3    80  LYS80       0.1093
     34  NZ       -17.4970   -2.8950   22.6880 N.3    80  LYS80      -0.1314
     35  N        -10.0100   -2.2220   18.8530 N.3   110  VAL110     -0.1231
     36  CA        -9.7360   -2.2690   20.2770 C.3   110  VAL110      0.1692
     37  C         -9.0230   -3.5710   20.6540 C.2   110  VAL110      0.2592
     38  O         -9.5540   -4.6630   20.4690 O.2   110  VAL110     -0.2718
     39  CB       -11.0300   -2.1110   21.0700 C.3   110  VAL110      0.0266
     40  CG1      -10.7300   -2.2570   22.5390 C.3   110  VAL110      0.0020
     41  CG2      -11.7520   -0.7270   20.7030 C.3   110  VAL110      0.0020
     42  N         -7.8430   -3.4550   21.2240 N.am  111  GLN111     -0.1966
     43  CA        -7.0150   -4.6090   21.5660 C.3   111  GLN111      0.1733
     44  C         -6.4730   -4.4370   22.9880 C.2   111  GLN111      0.2616
     45  O         -5.3150   -4.0980   23.1510 O.2   111  GLN111     -0.2715
     46  CB        -5.8790   -4.6940   20.5490 C.3   111  GLN111      0.0408
     47  CG        -6.3840   -4.8250   19.1070 C.3   111  GLN111      0.0908
     48  CD        -5.2190   -5.0530   18.1700 C.2   111  GLN111      0.2608
     49  OE1       -4.4530   -4.1510   17.9140 O.2   111  GLN111     -0.2717
     50  NE2       -5.0840   -6.2770   17.6770 N.am  111  GLN111     -0.0878
     51  N         -7.2780   -4.7420   24.0150 N.am  112  ARG112     -0.1963
     52  CA        -6.8550   -4.3860   25.3550 C.3   112  ARG112      0.1729
     53  C         -6.2770   -5.5640   26.1320 C.2   112  ARG112      0.2616
     54  O         -5.8540   -5.3670   27.2750 O.2   112  ARG112     -0.2715
     55  CB        -8.0380   -3.8110   26.1600 C.3   112  ARG112      0.0348
     56  CG        -8.7190   -2.6410   25.5300 C.3   112  ARG112      0.0492
     57  CD       -10.0690   -2.3530   26.2470 C.3   112  ARG112      0.2205
     58  NE       -11.1660   -3.1950   25.7140 N.pl3 112  ARG112     -0.0865
     59  CZ       -12.4530   -2.9230   25.9060 C.cat 112  ARG112      0.5346
     60  NH1      -12.8140   -1.8370   26.6110 N.pl3 112  ARG112      0.1354
     61  NH2      -13.3750   -3.7070   25.3770 N.pl3 112  ARG112      0.1354
     62  N         -6.3170   -6.7850   25.5980 N.am  113  ARG113     -0.1977
     63  CA        -6.0490   -7.9700   26.4190 C.3   113  ARG113      0.1597
     64  C         -4.5520   -8.2840   26.4500 C.2   113  ARG113      0.2287
     65  O         -3.9300   -8.4960   25.4090 O.2   113  ARG113     -0.2864
     66  CB        -6.8410   -9.1720   25.8990 C.3   113  ARG113      0.0334
     67  CG        -8.3600   -8.8740   25.9450 C.3   113  ARG113      0.0492
     68  CD        -9.1300   -9.9760   25.2570 C.3   113  ARG113      0.2205
     69  NE       -10.5410   -9.7810   25.4740 N.pl3 113  ARG113     -0.0865
     70  CZ       -11.4600  -10.6030   25.0300 C.cat 113  ARG113      0.5346
     71  NH1      -11.0810  -11.6850   24.3430 N.pl3 113  ARG113      0.1354
     72  NH2      -12.7380  -10.3280   25.2760 N.pl3 113  ARG113      0.1354
     73  N         -6.3770  -15.9800   26.0250 N.3   117  ARG117     -0.1245
     74  CA        -7.5530  -16.6500   26.5820 C.3   117  ARG117      0.1563
     75  C         -7.8050  -17.9390   25.8310 C.2   117  ARG117      0.2260
     76  O         -7.8660  -17.9530   24.5970 O.2   117  ARG117     -0.2867
     77  CB        -8.7740  -15.7490   26.4900 C.3   117  ARG117      0.0307
     78  CG        -8.5700  -14.4040   27.1650 C.3   117  ARG117      0.0489
     79  CD        -9.9030  -13.6560   27.3290 C.3   117  ARG117      0.2205
     80  NE        -9.6770  -12.3550   28.0000 N.pl3 117  ARG117     -0.0865
     81  CZ       -10.6580  -11.5510   28.4190 C.cat 117  ARG117      0.5346
     82  NH1      -11.9690  -11.8890   28.2320 N.pl3 117  ARG117      0.1354
     83  NH2      -10.3400  -10.4250   29.0550 N.pl3 117  ARG117      0.1354
     84  N        -16.0970  -21.0480   31.0940 N.3   141  TYR141     -0.1227
     85  CA       -16.1810  -20.7680   29.6640 C.3   141  TYR141      0.1736
     86  C        -14.8190  -20.5400   29.0280 C.2   141  TYR141      0.2595
     87  O        -14.5170  -21.1470   28.0000 O.2   141  TYR141     -0.2718
     88  CB       -17.0610  -19.5330   29.4110 C.3   141  TYR141      0.0548
     89  CG       -17.1520  -19.1020   27.9440 C.ar  141  TYR141     -0.0200
     90  CD1      -17.9450  -19.8010   27.0330 C.ar  141  TYR141     -0.0009
     91  CD2      -16.4630  -17.9950   27.4850 C.ar  141  TYR141     -0.0009
     92  CE1      -18.0350  -19.4130   25.7140 C.ar  141  TYR141      0.0417
     93  CE2      -16.5400  -17.5940   26.1610 C.ar  141  TYR141      0.0417
     94  CZ       -17.3310  -18.3020   25.2770 C.ar  141  TYR141      0.1957
     95  OH       -17.4080  -17.8980   23.9590 O.3   141  TYR141     -0.2866
     96  N        -14.0000  -19.6450   29.5880 N.am  142  ASP142     -0.1974
     97  CA       -12.6350  -19.4940   29.1060 C.3   142  ASP142      0.1709
     98  C        -11.7430  -19.0680   30.2660 C.2   142  ASP142      0.2293
     99  O        -12.2150  -18.7760   31.3750 O.2   142  ASP142     -0.2864
    100  CB       -12.5710  -18.5370   27.9050 C.3   142  ASP142      0.1436
    101  CG       -12.8710  -17.0800   28.2660 C.2   142  ASP142      0.3671
    102  OD1      -12.8570  -16.7000   29.4600 O.co2 142  ASP142     -0.2456
    103  OD2      -13.1090  -16.2980   27.3220 O.co2 142  ASP142     -0.2456
    104  N        -16.6630   -8.7850   37.4600 N.3   181  ILE181     -0.1231
    105  CA       -16.4560   -7.4880   36.8320 C.3   181  ILE181      0.1692
    106  C        -17.4660   -7.2030   35.7330 C.2   181  ILE181      0.2592
    107  O        -17.6570   -6.0310   35.3810 O.2   181  ILE181     -0.2718
    108  CB       -15.0320   -7.3350   36.2700 C.3   181  ILE181      0.0266
    109  CG1      -14.7860   -8.3830   35.1840 C.3   181  ILE181      0.0019
    110  CG2      -14.0040   -7.4060   37.3940 C.3   181  ILE181      0.0020
    111  CD1      -13.3730   -8.4190   34.7040 C.3   181  ILE181      0.0001
    112  N        -18.1140   -8.2210   35.1780 N.am  182  SER182     -0.1952
    113  CA       -19.0820   -7.9400   34.1270 C.3   182  SER182      0.1924
    114  C        -20.1270   -9.0330   34.1140 C.2   182  SER182      0.2314
    115  O        -19.8050  -10.2170   34.2720 O.2   182  SER182     -0.2863
    116  CB       -18.4220   -7.8130   32.7450 C.3   182  SER182      0.2116
    117  OG       -19.3610   -7.2520   31.8490 O.3   182  SER182     -0.2180
    118  N        -23.1440  -10.1910   31.5230 N.3   184  SER184     -0.1217
    119  CA       -23.5930   -9.9820   30.1570 C.3   184  SER184      0.1889
    120  C        -24.3230  -11.2400   29.7190 C.2   184  SER184      0.2288
    121  O        -24.5450  -12.1500   30.5190 O.2   184  SER184     -0.2866
    122  CB       -22.4020   -9.6690   29.2440 C.3   184  SER184      0.2089
    123  OG       -21.4290  -10.7320   29.2310 O.3   184  SER184     -0.2183
    124  N        -23.6930  -14.7440   31.1520 N.3   191  ARG191     -0.1245
    125  CA       -22.2410  -14.8610   31.1740 C.3   191  ARG191      0.1563
    126  C        -21.6240  -13.9400   32.2230 C.2   191  ARG191      0.2260
    127  O        -21.9720  -12.7530   32.2950 O.2   191  ARG191     -0.2867
    128  CB       -21.6970  -14.5330   29.7800 C.3   191  ARG191      0.0307
    129  CG       -20.3050  -13.9770   29.7340 C.3   191  ARG191      0.0489
    130  CD       -19.3630  -15.0400   29.2450 C.3   191  ARG191      0.2205
    131  NE       -17.9920  -14.6330   29.4980 N.pl3 191  ARG191     -0.0865
    132  CZ       -17.1260  -14.3650   28.5430 C.cat 191  ARG191      0.5346
    133  NH1      -17.4870  -14.4810   27.2760 N.pl3 191  ARG191      0.1354
    134  NH2      -15.8950  -14.0060   28.8490 N.pl3 191  ARG191      0.1354
    135  N        -17.8710  -12.5020   34.0210 N.3   193  SER193     -0.1217
    136  CA       -16.4660  -12.2160   33.7550 C.3   193  SER193      0.1889
    137  C        -15.8000  -11.9330   35.1010 C.2   193  SER193      0.2288
    138  O        -16.2730  -11.0740   35.8550 O.2   193  SER193     -0.2866
    139  CB       -16.3310  -11.0340   32.8190 C.3   193  SER193      0.2089
    140  OG       -16.4550  -11.3630   31.4240 O.3   193  SER193     -0.2183
@<TRIPOS>BOND
     1    16    14    1
     2    14    15    1
     3    14    11    1
     4    11    10    1
     5    11    12    1
     6     4     3    2
     7    10     3   am
     8     3     2    1
     9     1     2    1
    10    12    13    2
    11     2     5    1
    12    25    22    1
    13    50    48   am
    14    49    48    2
    15    28    29    2
    16    28    27    1
    17    24    23    2
    18     5     6    1
    19    48    47    1
    20    17    18    1
    21    21    22    1
    22    21    19   am
    23    22    23    1
    24    23    26   am
    25     6     7    1
    26    18    19    1
    27    19    20    2
    28    35    36    1
    29    27    26    1
    30    27    30    1
    31    47    46    1
    32     8     7   ar
    33     7     9   ar
    34    31    30    1
    35    31    32    1
    36    36    37    1
    37    36    39    1
    38    38    37    2
    39    46    43    1
    40    37    42   am
    41    41    39    1
    42    39    40    1
    43    42    43    1
    44    32    33    1
    45    33    34    1
    46    43    44    1
    47    44    45    2
    48    44    51   am
    49    95    94    1
    50    51    52    1
    51    71    70    1
    52    76    75    2
    53    70    72    1
    54    70    69    2
    55    68    69    1
    56    68    67    1
    57    94    92   ar
    58    94    93   ar
    59    52    53    1
    60    52    55    1
    61    61    59    1
    62    65    64    2
    63    56    55    1
    64    56    57    1
    65    62    53   am
    66    62    63    1
    67    92    90   ar
    68    58    59    2
    69    58    57    1
    70    75    74    1
    71    66    67    1
    72    66    63    1
    73    59    60    1
    74    73    74    1
    75    53    54    2
    76    93    91   ar
    77    63    64    1
    78    77    74    1
    79    77    78    1
    80    90    89   ar
    81    78    79    1
    82   133   132    1
    83   103   101   ar
    84    79    80    1
    85    91    89   ar
    86   100   101    1
    87   100    97    1
    88    89    88    1
    89    87    86    2
    90    80    81    2
    91    82    81    1
    92   101   102   ar
    93    81    83    1
    94   132   134    1
    95   132   131    2
    96    86    96   am
    97    86    85    1
    98    97    96    1
    99    97    98    1
   100   123   122    1
   101   122   119    1
   102   130   131    1
   103   130   129    1
   104    88    85    1
   105    85    84    1
   106   120   119    1
   107   120   121    2
   108   129   128    1
   109   128   125    1
   110   119   118    1
   111    98    99    2
   112   124   125    1
   113   125   126    1
   114   140   139    1
   115   117   116    1
   116   126   127    2
   117   116   113    1
   118   139   136    1
   119   136   135    1
   120   136   137    1
   121   114   113    1
   122   114   115    2
   123   113   112    1
   124   111   109    1
   125   137   138    2
   126   112   106   am
   127   109   108    1
   128   107   106    2
   129   106   105    1
   130   108   105    1
   131   108   110    1
   132   105   104    1
