@<TRIPOS>MOLECULE
tmp/5y6kA01.pdb
 85 79 0 0 0
SMALL
GASTEIGER

@<TRIPOS>ATOM
      1  N         16.2070   11.9990   -2.5080 N.3    61  ASP61      -0.1239
      2  CA        16.0880   12.6960   -1.2190 C.3    61  ASP61       0.1674
      3  C         17.4650   13.2740   -0.8880 C.2    61  ASP61       0.2266
      4  O         18.4910   12.8440   -1.3910 O.2    61  ASP61      -0.2867
      5  CB        15.7600   11.7420   -0.1360 C.3    61  ASP61       0.1410
      6  CG        14.3290   11.4080   -0.1200 C.2    61  ASP61       0.3668
      7  OD1       13.7740   10.8610   -1.0640 O.co2  61  ASP61      -0.2456
      8  OD2       13.6390   11.6090    0.8310 O.co2  61  ASP61      -0.2456
      9  N         12.7260   22.7380    2.8310 N.3    93  TYR93      -0.1241
     10  CA        12.1720   22.7660    4.1750 C.3    93  TYR93       0.1605
     11  C         13.3020   23.0120    5.1380 C.2    93  TYR93       0.2264
     12  O         14.4490   22.7060    4.8790 O.2    93  TYR93      -0.2867
     13  CB        11.3760   21.5070    4.5460 C.3    93  TYR93       0.0534
     14  CG        12.1620   20.2870    4.8580 C.ar   93  TYR93      -0.0201
     15  CD1       12.7060   20.1040    6.0790 C.ar   93  TYR93      -0.0009
     16  CD2       12.3330   19.2990    3.9100 C.ar   93  TYR93      -0.0009
     17  CE1       13.4240   18.9920    6.3730 C.ar   93  TYR93       0.0417
     18  CE2       13.0600   18.1780    4.1780 C.ar   93  TYR93       0.0417
     19  CZ        13.5770   18.0140    5.4130 C.ar   93  TYR93       0.1957
     20  OH        14.2920   16.9220    5.7040 O.3    93  TYR93      -0.2866
     21  N         15.7650    8.0270   13.0620 N.3   121  GLY121     -0.1210
     22  CA        16.0720    7.8150   11.6900 C.3   121  GLY121      0.1956
     23  C         15.4480    8.8150   10.7710 C.2   121  GLY121      0.2612
     24  O         15.6580    8.7440    9.5880 O.2   121  GLY121     -0.2717
     25  N         14.6280    9.7000   11.3040 N.am  122  ARG122     -0.1965
     26  CA        13.9890   10.7460   10.5460 C.3   122  ARG122      0.1729
     27  C         14.9080   11.9060   10.4270 C.2   122  ARG122      0.2616
     28  O         15.7320   12.0950   11.2510 O.2   122  ARG122     -0.2715
     29  CB        12.7310   11.1410   11.2090 C.3   122  ARG122      0.0348
     30  CG        11.6520   10.1270   11.0610 C.3   122  ARG122      0.0492
     31  CD        10.3680   10.8550   11.1930 C.3   122  ARG122      0.2205
     32  NE         9.2290   10.0050   11.0720 N.pl3 122  ARG122     -0.0865
     33  CZ         8.0020   10.4660   11.0540 C.cat 122  ARG122      0.5346
     34  NH1        7.8040   11.7430   11.1460 N.pl3 122  ARG122      0.1354
     35  NH2        6.9790    9.6730   10.9400 N.pl3 122  ARG122      0.1354
     36  N         14.7360   12.7250    9.4190 N.am  123  SER123     -0.1950
     37  CA        15.6590   13.8180    9.1400 C.3   123  SER123      0.1924
     38  C         15.6720   15.1070    9.9280 C.2   123  SER123      0.2314
     39  O         16.6650   15.4730   10.4790 O.2   123  SER123     -0.2863
     40  CB        15.6200   14.1380    7.6630 C.3   123  SER123      0.2116
     41  OG        16.7630   13.6330    7.0280 O.3   123  SER123     -0.2180
     42  N          5.6930   14.7440   13.1730 N.3   186  TYR186     -0.1241
     43  CA         6.0720   16.1290   13.2630 C.3   186  TYR186      0.1605
     44  C          5.1620   16.7990   14.2700 C.2   186  TYR186      0.2264
     45  O          5.6390   17.4160   15.1840 O.2   186  TYR186     -0.2867
     46  CB         6.2100   16.8100   11.8830 C.3   186  TYR186      0.0534
     47  CG         7.4740   16.3490   11.1650 C.ar  186  TYR186     -0.0201
     48  CD1        7.5080   15.1290   10.4550 C.ar  186  TYR186     -0.0009
     49  CD2        8.6560   17.0550   11.2630 C.ar  186  TYR186     -0.0009
     50  CE1        8.6730   14.6730    9.8570 C.ar  186  TYR186      0.0417
     51  CE2        9.8210   16.5810   10.6530 C.ar  186  TYR186      0.0417
     52  CZ         9.8250   15.3890    9.9530 C.ar  186  TYR186      0.1957
     53  OH        10.9450   14.9080    9.4030 O.3   186  TYR186     -0.2866
     54  N         10.2220   20.7920   11.8690 N.3   204  LYS204     -0.1245
     55  CA        10.3730   21.5520   10.6480 C.3   204  LYS204      0.1561
     56  C          9.7630   22.9070   10.8010 C.2   204  LYS204      0.2260
     57  O          8.7840   23.0550   11.4590 O.2   204  LYS204     -0.2867
     58  CB         9.6060   20.9170    9.5280 C.3   204  LYS204      0.0271
     59  CG        10.1250   19.6120    9.0520 C.3   204  LYS204      0.0035
     60  CD         9.3740   19.1580    7.8080 C.3   204  LYS204      0.0206
     61  CE         9.8300   17.7740    7.3780 C.3   204  LYS204      0.1093
     62  NZ         9.2520   17.4490    6.0370 N.3   204  LYS204     -0.1314
     63  N         13.6090   19.1520   -0.7840 N.3   246  SER246     -0.1217
     64  CA        12.6850   18.0310   -0.7780 C.3   246  SER246      0.1889
     65  C         12.8320   16.9110   -1.8060 C.2   246  SER246      0.2288
     66  O         12.8440   15.7920   -1.4130 O.2   246  SER246     -0.2866
     67  CB        11.2980   18.5710   -0.8740 C.3   246  SER246      0.2089
     68  OG        11.1000   19.5990    0.0660 O.3   246  SER246     -0.2183
     69  N          3.8220    8.1530   -5.3170 N.3   290  ASP290     -0.1239
     70  CA         5.1640    8.7350   -5.2920 C.3   290  ASP290      0.1674
     71  C          6.1470    7.9830   -6.2110 C.2   290  ASP290      0.2266
     72  O          7.2530    7.6200   -5.8200 O.2   290  ASP290     -0.2867
     73  CB         5.7450    8.8320   -3.8760 C.3   290  ASP290      0.1410
     74  CG         5.1000    9.8930   -3.0320 C.2   290  ASP290      0.3668
     75  OD1        4.5570   10.8490   -3.6080 O.co2 290  ASP290     -0.2456
     76  OD2        5.1700    9.7840   -1.7870 O.co2 290  ASP290     -0.2456
     77  N          7.2290   12.9130   -6.4210 N.3   294  LYS294     -0.1245
     78  CA         6.2600   12.9550   -5.3570 C.3   294  LYS294      0.1561
     79  C          4.9140   13.3810   -5.8410 C.2   294  LYS294      0.2260
     80  O          4.8000   14.2570   -6.6440 O.2   294  LYS294     -0.2867
     81  CB         6.7460   13.8820   -4.2720 C.3   294  LYS294      0.0271
     82  CG         7.7640   13.1940   -3.3960 C.3   294  LYS294      0.0035
     83  CD         7.5920   13.6570   -1.9870 C.3   294  LYS294      0.0206
     84  CE         8.7410   14.5750   -1.6130 C.3   294  LYS294      0.1093
     85  NZ         9.8980   13.7480   -1.1610 N.3   294  LYS294     -0.1314
@<TRIPOS>BOND
     1    80    79    2
     2    77    78    1
     3    71    72    2
     4    71    70    1
     5    79    78    1
     6    78    81    1
     7    69    70    1
     8    70    73    1
     9    81    82    1
    10    73    74    1
    11    75    74   ar
    12    82    83    1
    13    74    76   ar
    14     1     2    1
    15    83    84    1
    16    65    66    2
    17    65    64    1
    18    84    85    1
    19     4     3    2
    20     2     3    1
    21     2     5    1
    22     7     6   ar
    23    67    64    1
    24    67    68    1
    25    63    64    1
    26     5     6    1
    27     6     8   ar
    28     9    10    1
    29    16    18   ar
    30    16    14   ar
    31    10    13    1
    32    10    11    1
    33    18    19   ar
    34    13    14    1
    35    14    15   ar
    36    12    11    2
    37    19    20    1
    38    19    17   ar
    39    62    61    1
    40    15    17   ar
    41    41    40    1
    42    61    60    1
    43    40    37    1
    44    60    59    1
    45    59    58    1
    46    37    36    1
    47    37    38    1
    48    53    52    1
    49    36    27   am
    50    58    55    1
    51    24    23    2
    52    50    52   ar
    53    50    48   ar
    54    38    39    2
    55    52    51   ar
    56    27    26    1
    57    27    28    2
    58    48    47   ar
    59    26    29    1
    60    26    25    1
    61    55    56    1
    62    55    54    1
    63    51    49   ar
    64    23    25   am
    65    23    22    1
    66    56    57    2
    67    35    33    1
    68    33    32    2
    69    33    34    1
    70    30    31    1
    71    30    29    1
    72    32    31    1
    73    47    49   ar
    74    47    46    1
    75    22    21    1
    76    46    43    1
    77    42    43    1
    78    43    44    1
    79    44    45    2
