@<TRIPOS>MOLECULE
tmp/5y6mA00.pdb
 124 119 0 0 0
SMALL
GASTEIGER

@<TRIPOS>ATOM
      1  N         50.9840   10.4820   63.8220 N.3    14  PRO14      -0.2102
      2  CA        52.1930   11.2880   63.6150 C.3    14  PRO14       0.1504
      3  C         52.2460   11.8730   62.1970 C.2    14  PRO14       0.2576
      4  O         51.9790   11.1880   61.1990 O.2    14  PRO14      -0.2718
      5  CB        53.3330   10.3030   63.8890 C.3    14  PRO14       0.0282
      6  CG        52.7290    9.2680   64.8740 C.3    14  PRO14       0.0208
      7  CD        51.2670    9.1590   64.4480 C.3    14  PRO14       0.0893
      8  N         52.5640   13.1670   62.1280 N.am   15  GLY15      -0.1943
      9  CA        52.7450   13.8760   60.8780 C.3    15  GLY15       0.2014
     10  C         51.4700   14.4050   60.2580 C.2    15  GLY15       0.2639
     11  O         51.5300   15.0090   59.1730 O.2    15  GLY15      -0.2714
     12  N         50.3090   14.1860   60.8960 N.am   16  ALA16      -0.1963
     13  CA        49.0520   14.6530   60.3140 C.3    16  ALA16       0.1728
     14  C         48.8920   16.1720   60.3720 C.2    16  ALA16       0.2617
     15  O         47.9840   16.7140   59.7190 O.2    16  ALA16      -0.2715
     16  CB        47.8740   13.9710   61.0180 C.3    16  ALA16       0.0334
     17  N         49.7360   16.8810   61.1310 N.am   17  GLY17      -0.1940
     18  CA        49.6860   18.3330   61.1380 C.3    17  GLY17       0.2014
     19  C         49.0860   18.9600   62.3870 C.2    17  GLY17       0.2639
     20  O         48.3700   19.9690   62.2960 O.2    17  GLY17      -0.2714
     21  N         49.3470   18.3570   63.5530 N.am   18  LYS18      -0.1963
     22  CA        48.8880   18.9270   64.8190 C.3    18  LYS18       0.1728
     23  C         49.6100   20.2370   65.1120 C.2    18  LYS18       0.2617
     24  O         48.9880   21.2560   65.4160 O.2    18  LYS18      -0.2715
     25  CB        49.1200   17.9270   65.9600 C.3    18  LYS18       0.0311
     26  CG        48.2540   16.6580   65.8880 C.3    18  LYS18       0.0038
     27  CD        48.4730   15.8160   67.1260 C.3    18  LYS18       0.0206
     28  CE        49.2820   14.5600   66.8300 C.3    18  LYS18       0.1093
     29  NZ        50.5040   14.7320   66.0270 N.3    18  LYS18      -0.1314
     30  N         50.9200   20.2340   64.9810 N.am   19  THR19      -0.1937
     31  CA        51.6960   21.4220   65.2880 C.3    19  THR19       0.2028
     32  C         51.5860   22.4810   64.2010 C.2    19  THR19       0.2642
     33  O         51.5480   23.6640   64.5270 O.2    19  THR19      -0.2714
     34  CB        53.1680   21.0510   65.4990 C.3    19  THR19       0.1808
     35  OG1       53.2610   20.0590   66.5250 O.3    19  THR19      -0.2208
     36  CG2       53.9860   22.2660   65.9050 C.3    19  THR19       0.0379
     37  N         51.5600   22.0770   62.9410 N.am   20  ARG20      -0.1977
     38  CA        51.6560   23.0490   61.8670 C.3    20  ARG20       0.1597
     39  C         50.3200   23.5190   61.3090 C.2    20  ARG20       0.2287
     40  O         50.2010   24.6640   60.8730 O.2    20  ARG20      -0.2864
     41  CB        52.5380   22.5050   60.7540 C.3    20  ARG20       0.0334
     42  CG        53.9920   22.3920   61.1440 C.3    20  ARG20       0.0492
     43  CD        54.8040   21.7040   60.0590 C.3    20  ARG20       0.2205
     44  NE        54.7120   22.4040   58.7810 N.pl3  20  ARG20      -0.0865
     45  CZ        55.6390   23.2360   58.3170 C.cat  20  ARG20       0.5346
     46  NH1       55.4720   23.8300   57.1430 N.pl3  20  ARG20       0.1354
     47  NH2       56.7330   23.4760   59.0270 N.pl3  20  ARG20       0.1354
     48  N         57.4930   29.7110   63.9010 N.3    52  GLU52      -0.1245
     49  CA        57.3340   29.7530   62.4530 C.3    52  GLU52       0.1567
     50  C         55.8820   29.5140   62.0570 C.2    52  GLU52       0.2260
     51  O         55.3630   30.1830   61.1600 O.2    52  GLU52      -0.2867
     52  CB        58.2600   28.7310   61.7840 C.3    52  GLU52       0.0388
     53  CG        58.0790   28.6100   60.2650 C.3    52  GLU52       0.1160
     54  CD        58.9220   27.4910   59.6240 C.2    52  GLU52       0.3649
     55  OE1       59.3300   27.6450   58.4480 O.co2  52  GLU52      -0.2457
     56  OE2       59.1690   26.4550   60.2870 O.co2  52  GLU52      -0.2457
     57  N         51.1940   20.7300   73.6540 N.3   101  ASP101     -0.1225
     58  CA        51.7280   19.9420   72.5500 C.3   101  ASP101      0.1805
     59  C         52.6780   18.8740   73.0740 C.2   101  ASP101      0.2597
     60  O         53.3140   19.0500   74.1080 O.2   101  ASP101     -0.2718
     61  CB        52.4720   20.8170   71.5740 C.3   101  ASP101      0.1424
     62  CG        52.5590   20.2120   70.1980 C.2   101  ASP101      0.3668
     63  OD1       51.7150   19.3640   69.8660 O.co2 101  ASP101     -0.2456
     64  OD2       53.4520   20.6230   69.4320 O.co2 101  ASP101     -0.2456
     65  N         52.7630   17.7570   72.3350 N.am  102  GLU102     -0.1979
     66  CA        53.4380   16.5300   72.7770 C.3   102  GLU102      0.1602
     67  C         53.0270   16.1780   74.2030 C.2   102  GLU102      0.2287
     68  O         53.8520   16.0490   75.0920 O.2   102  GLU102     -0.2864
     69  CB        54.9640   16.6410   72.6510 C.3   102  GLU102      0.0415
     70  CG        55.4970   17.0200   71.2680 C.3   102  GLU102      0.1163
     71  CD        55.1090   16.0050   70.1420 C.2   102  GLU102      0.3649
     72  OE1       54.3620   15.0370   70.3900 O.co2 102  GLU102     -0.2457
     73  OE2       55.5220   16.2170   68.9880 O.co2 102  GLU102     -0.2457
     74  N         51.9250    9.3360   57.1330 N.3   146  ASN146     -0.1240
     75  CA        51.6650   10.0520   55.8740 C.3   146  ASN146      0.1653
     76  C         52.0780    9.2350   54.6510 C.2   146  ASN146      0.2266
     77  O         51.5680    9.4520   53.5480 O.2   146  ASN146     -0.2867
     78  CB        52.4260   11.3700   55.8430 C.3   146  ASN146      0.1155
     79  CG        51.8930   12.3740   56.8300 C.2   146  ASN146      0.2627
     80  OD1       50.7920   12.2120   57.3400 O.2   146  ASN146     -0.2716
     81  ND2       52.6660   13.4390   57.0880 N.am  146  ASN146     -0.0877
     82  N         62.4900   16.3960   64.3070 N.3   233  ASN233     -0.1240
     83  CA        62.2530   16.2500   62.8780 C.3   233  ASN233      0.1653
     84  C         63.5920   16.1040   62.1750 C.2   233  ASN233      0.2266
     85  O         64.4360   17.0040   62.2280 O.2   233  ASN233     -0.2867
     86  CB        61.4720   17.4310   62.3010 C.3   233  ASN233      0.1155
     87  CG        60.0570   17.5440   62.8640 C.2   233  ASN233      0.2627
     88  OD1       59.1700   16.7390   62.5450 O.2   233  ASN233     -0.2716
     89  ND2       59.8340   18.5780   63.6910 N.am  233  ASN233     -0.0877
     90  N         65.3800   14.5080   58.4020 N.3   235  LYS235     -0.1245
     91  CA        65.0940   14.0680   57.0440 C.3   235  LYS235      0.1561
     92  C         65.8920   12.7800   56.9200 C.2   235  LYS235      0.2260
     93  O         67.0670   12.7770   56.5610 O.2   235  LYS235     -0.2867
     94  CB        65.4340   15.1440   56.0260 C.3   235  LYS235      0.0271
     95  CG        64.5090   16.3610   56.2290 C.3   235  LYS235      0.0035
     96  CD        64.4680   17.3360   55.0580 C.3   235  LYS235      0.0206
     97  CE        63.3420   18.3400   55.2790 C.3   235  LYS235      0.1093
     98  NZ        63.2790   19.4290   54.2230 N.3   235  LYS235     -0.1314
     99  N         57.0000   10.2980   57.1550 N.3   278  ARG278     -0.1231
    100  CA        56.3510   11.6110   57.2330 C.3   278  ARG278      0.1694
    101  C         56.1670   12.3090   55.8860 C.2   278  ARG278      0.2592
    102  O         55.4220   13.2950   55.8120 O.2   278  ARG278     -0.2718
    103  CB        57.1650   12.5570   58.1160 C.3   278  ARG278      0.0321
    104  CG        57.3600   12.1460   59.5330 C.3   278  ARG278      0.0489
    105  CD        57.8110   13.3500   60.4300 C.3   278  ARG278      0.2205
    106  NE        57.3810   13.0000   61.7730 N.pl3 278  ARG278     -0.0865
    107  CZ        56.4930   13.6460   62.5100 C.cat 278  ARG278      0.5346
    108  NH1       55.9650   14.8060   62.1190 N.pl3 278  ARG278      0.1354
    109  NH2       56.1720   13.1280   63.6830 N.pl3 278  ARG278      0.1354
    110  N         56.8560   11.8740   54.8410 N.am  279  ASN279     -0.1961
    111  CA        56.8560   12.5730   53.5560 C.3   279  ASN279      0.1804
    112  C         56.0380   11.7790   52.5470 C.2   279  ASN279      0.2463
    113  O         56.4820   10.7050   52.1040 O.2   279  ASN279     -0.2730
    114  CB        58.2920   12.7600   53.0590 C.3   279  ASN279      0.1195
    115  CG        58.3690   13.3710   51.6660 C.2   279  ASN279      0.2630
    116  OD1       57.3550   13.5630   50.9850 O.2   279  ASN279     -0.2716
    117  ND2       59.5990   13.6250   51.2120 N.am  279  ASN279     -0.0877
    118  N         54.8650   12.2660   52.1390 N.am  280  PRO280     -0.2727
    119  CA        54.0360   11.4930   51.1950 C.3   280  PRO280      0.1402
    120  C         54.7030   11.1850   49.8560 C.2   280  PRO280      0.2269
    121  O         54.2060   10.3000   49.1480 O.2   280  PRO280     -0.2865
    122  CB        52.8000   12.3780   51.0120 C.3   280  PRO280      0.0296
    123  CG        53.2850   13.7760   51.3190 C.3   280  PRO280      0.0237
    124  CD        54.3040   13.6100   52.3960 C.3   280  PRO280      0.0939
@<TRIPOS>BOND
     1   121   120    2
     2   120   119    1
     3   116   115    2
     4   122   119    1
     5   122   123    1
     6   119   118    1
     7   117   115   am
     8   123   124    1
     9   115   114    1
    10   113   112    2
    11   118   124    1
    12   118   112   am
    13   112   111    1
    14   114   111    1
    15    77    76    2
    16   111   110    1
    17    98    97    1
    18    76    75    1
    19   110   101   am
    20    96    97    1
    21    96    95    1
    22   102   101    2
    23    78    75    1
    24    78    79    1
    25    75    74    1
    26   101   100    1
    27    94    95    1
    28    94    91    1
    29    93    92    2
    30    79    81   am
    31    79    80    2
    32    92    91    1
    33    91    90    1
    34    46    45    1
    35    99   100    1
    36   100   103    1
    37   103   104    1
    38    45    44    2
    39    45    47    1
    40    55    54   ar
    41    44    43    1
    42    11    10    2
    43   104   105    1
    44    54    53    1
    45    54    56   ar
    46    15    14    2
    47    43    42    1
    48    10     9    1
    49    10    12   am
    50    53    52    1
    51    13    14    1
    52    13    12    1
    53    13    16    1
    54    14    17   am
    55   105   106    1
    56    41    42    1
    57    41    38    1
    58    40    39    2
    59     9     8    1
    60    17    18    1
    61    18    19    1
    62    51    50    2
    63     4     3    2
    64    39    38    1
    65   106   107    2
    66    52    49    1
    67    38    37    1
    68    50    49    1
    69   108   107    1
    70     8     3   am
    71    84    85    2
    72    84    83    1
    73     3     2    1
    74    20    19    2
    75    86    87    1
    76    86    83    1
    77    19    21   am
    78    49    48    1
    79   107   109    1
    80    88    87    2
    81    87    89   am
    82    83    82    1
    83    37    32   am
    84    21    22    1
    85     2     1    1
    86     2     5    1
    87     1     7    1
    88     5     6    1
    89    32    33    2
    90    32    31    1
    91     7     6    1
    92    22    23    1
    93    22    25    1
    94    30    23   am
    95    30    31    1
    96    23    24    2
    97    31    34    1
    98    34    36    1
    99    34    35    1
   100    26    25    1
   101    26    27    1
   102    29    28    1
   103    28    27    1
   104    73    71   ar
   105    64    62   ar
   106    63    62   ar
   107    71    72   ar
   108    71    70    1
   109    62    61    1
   110    70    69    1
   111    61    58    1
   112    65    66    1
   113    65    59   am
   114    58    59    1
   115    58    57    1
   116    69    66    1
   117    66    67    1
   118    59    60    2
   119    67    68    2
