@<TRIPOS>MOLECULE
tmp/5y6tA00.pdb
 130 129 0 0 0
SMALL
GASTEIGER

@<TRIPOS>ATOM
      1  N         14.8610  -29.3190  -17.9720 N.3    27  TRP27      -0.1241
      2  CA        14.7940  -30.2100  -16.8360 C.3    27  TRP27       0.1605
      3  C         15.9910  -31.1370  -16.8410 C.2    27  TRP27       0.2264
      4  O         16.7150  -31.1840  -17.7940 O.2    27  TRP27      -0.2867
      5  CB        13.5570  -31.0960  -16.8220 C.3    27  TRP27       0.0550
      6  CG        13.4160  -31.9610  -18.0800 C.ar   27  TRP27       0.0003
      7  CD1       14.0310  -33.1490  -18.3460 C.ar   27  TRP27       0.0946
      8  CD2       12.6960  -31.6080  -19.2460 C.ar   27  TRP27       0.0152
      9  NE1       13.6710  -33.5850  -19.6020 N.ar   27  TRP27      -0.2442
     10  CE2       12.8640  -32.6490  -20.1880 C.ar   27  TRP27       0.0810
     11  CE3       11.9340  -30.4820  -19.6100 C.ar   27  TRP27       0.0012
     12  CZ2       12.2140  -32.6440  -21.4600 C.ar   27  TRP27       0.0191
     13  CZ3       11.3040  -30.4770  -20.8700 C.ar   27  TRP27       0.0001
     14  CH2       11.4840  -31.5130  -21.7880 C.ar   27  TRP27       0.0015
     15  N         11.8940  -25.7720  -15.6910 N.3    65  TRP65      -0.1241
     16  CA        10.4910  -26.1290  -15.4640 C.3    65  TRP65       0.1605
     17  C         10.3360  -26.9130  -14.1810 C.2    65  TRP65       0.2264
     18  O         11.2110  -27.7400  -13.8440 O.2    65  TRP65      -0.2867
     19  CB         9.9740  -26.9730  -16.5950 C.3    65  TRP65       0.0550
     20  CG         9.9390  -26.3790  -17.9700 C.ar   65  TRP65       0.0003
     21  CD1       10.4500  -25.1750  -18.3920 C.ar   65  TRP65       0.0946
     22  CD2        9.3470  -26.9780  -19.1150 C.ar   65  TRP65       0.0152
     23  NE1       10.2460  -25.0260  -19.7680 N.ar   65  TRP65      -0.2442
     24  CE2        9.5640  -26.1180  -20.2190 C.ar   65  TRP65       0.0810
     25  CE3        8.6760  -28.1890  -19.3450 C.ar   65  TRP65       0.0012
     26  CZ2        9.1100  -26.4280  -21.5160 C.ar   65  TRP65       0.0191
     27  CZ3        8.2220  -28.4700  -20.6180 C.ar   65  TRP65       0.0001
     28  CH2        8.4420  -27.6050  -21.6860 C.ar   65  TRP65       0.0015
     29  N          3.2270  -26.9960  -17.4890 N.3   115  ASN115     -0.1240
     30  CA         3.3660  -27.2710  -18.9340 C.3   115  ASN115      0.1653
     31  C          2.0730  -27.4440  -19.6620 C.2   115  ASN115      0.2266
     32  O          1.1730  -28.1630  -19.2260 O.2   115  ASN115     -0.2867
     33  CB         4.2530  -28.5320  -19.1300 C.3   115  ASN115      0.1155
     34  CG         4.7340  -28.6980  -20.5730 C.2   115  ASN115      0.2627
     35  OD1        4.7330  -27.7660  -21.3450 O.2   115  ASN115     -0.2716
     36  ND2        5.1060  -29.9270  -20.9300 N.am  115  ASN115     -0.0877
     37  N          2.3240  -27.9700  -23.1070 N.3   117  ALA117     -0.1231
     38  CA         2.7420  -28.6780  -24.3130 C.3   117  ALA117      0.1694
     39  C          2.4930  -30.1940  -24.2230 C.2   117  ALA117      0.2592
     40  O          2.7260  -30.9400  -25.1990 O.2   117  ALA117     -0.2718
     41  CB         4.1990  -28.3280  -24.6250 C.3   117  ALA117      0.0304
     42  N          2.0350  -30.6520  -23.0500 N.am  118  THR118     -0.1953
     43  CA         1.6020  -32.0360  -22.9020 C.3   118  THR118      0.1897
     44  C          0.2510  -32.0520  -22.2260 C.2   118  THR118      0.2313
     45  O         -0.1790  -31.0850  -21.6200 O.2   118  THR118     -0.2863
     46  CB         2.5690  -32.8490  -22.0450 C.3   118  THR118      0.1794
     47  OG1        2.7360  -32.2280  -20.7490 O.3   118  THR118     -0.2208
     48  CG2        3.9630  -33.0050  -22.7950 C.3   118  THR118      0.0378
     49  N          4.2460  -22.9440  -19.7170 N.3   162  ASN162     -0.1225
     50  CA         4.8290  -23.1080  -21.0310 C.3   162  ASN162      0.1785
     51  C          3.7980  -23.4280  -22.0990 C.2   162  ASN162      0.2597
     52  O          3.0800  -24.3890  -21.9340 O.2   162  ASN162     -0.2718
     53  CB         5.8220  -24.2430  -20.9900 C.3   162  ASN162      0.1169
     54  CG         6.3980  -24.5220  -22.3570 C.2   162  ASN162      0.2627
     55  OD1        7.1140  -23.6820  -22.9060 O.2   162  ASN162     -0.2716
     56  ND2        6.0970  -25.7200  -22.9050 N.am  162  ASN162     -0.0877
     57  N          3.7720  -22.6630  -23.1930 N.am  163  GLU163     -0.1979
     58  CA         2.9230  -22.9930  -24.3710 C.3   163  GLU163      0.1602
     59  C          1.4850  -23.3980  -24.0010 C.2   163  GLU163      0.2287
     60  O          1.0460  -24.4900  -24.2860 O.2   163  GLU163     -0.2864
     61  CB         3.6110  -24.0820  -25.1850 C.3   163  GLU163      0.0415
     62  CG         4.9650  -23.6020  -25.7090 C.3   163  GLU163      0.1163
     63  CD         5.6620  -24.5500  -26.6720 C.2   163  GLU163      0.3649
     64  OE1        5.1500  -25.7140  -26.8580 O.co2 163  GLU163     -0.2457
     65  OE2        6.6780  -24.1170  -27.2560 O.co2 163  GLU163     -0.2457
     66  N         -2.7430  -29.4960  -29.6890 N.3   191  TRP191     -0.1241
     67  CA        -2.2820  -30.8930  -29.9150 C.3   191  TRP191      0.1605
     68  C         -2.4220  -31.7580  -28.6610 C.2   191  TRP191      0.2264
     69  O         -2.4730  -32.9850  -28.7410 O.2   191  TRP191     -0.2867
     70  CB        -0.8170  -30.9090  -30.3570 C.3   191  TRP191      0.0550
     71  CG         0.1870  -30.3220  -29.3910 C.ar  191  TRP191      0.0003
     72  CD1        0.8380  -30.9870  -28.3940 C.ar  191  TRP191      0.0946
     73  CD2        0.6620  -28.9690  -29.3400 C.ar  191  TRP191      0.0152
     74  NE1        1.6920  -30.1700  -27.7640 N.ar  191  TRP191     -0.2442
     75  CE2        1.6130  -28.9120  -28.3170 C.ar  191  TRP191      0.0810
     76  CE3        0.4520  -27.8170  -30.1360 C.ar  191  TRP191      0.0012
     77  CZ2        2.3150  -27.7330  -28.0000 C.ar  191  TRP191      0.0191
     78  CZ3        1.0730  -26.6570  -29.7830 C.ar  191  TRP191      0.0001
     79  CH2        2.0080  -26.6130  -28.7050 C.ar  191  TRP191      0.0015
     80  N          9.7960  -22.5810  -34.0310 N.3   264  TYR264     -0.1241
     81  CA        10.4000  -23.7180  -34.7110 C.3   264  TYR264      0.1605
     82  C          9.8750  -23.8210  -36.1150 C.2   264  TYR264      0.2264
     83  O          8.7250  -23.4080  -36.4040 O.2   264  TYR264     -0.2867
     84  CB        10.0130  -24.9860  -34.0020 C.3   264  TYR264      0.0534
     85  CG        10.5640  -25.0480  -32.5750 C.ar  264  TYR264     -0.0201
     86  CD1       11.8800  -25.4920  -32.3330 C.ar  264  TYR264     -0.0009
     87  CD2        9.7880  -24.6700  -31.4810 C.ar  264  TYR264     -0.0009
     88  CE1       12.3280  -25.6680  -31.0410 C.ar  264  TYR264      0.0417
     89  CE2       10.2540  -24.7740  -30.1770 C.ar  264  TYR264      0.0417
     90  CZ        11.5520  -25.2430  -29.9490 C.ar  264  TYR264      0.1957
     91  OH        12.0120  -25.4070  -28.6680 O.3   264  TYR264     -0.2866
     92  N         12.3080  -19.9930  -26.9140 N.3   293  GLU293     -0.1245
     93  CA        12.7780  -21.2770  -27.4110 C.3   293  GLU293      0.1567
     94  C         13.0020  -21.1820  -28.9350 C.2   293  GLU293      0.2260
     95  O         12.2250  -20.5640  -29.6530 O.2   293  GLU293     -0.2867
     96  CB        11.7540  -22.3700  -27.2390 C.3   293  GLU293      0.0388
     97  CG        11.3420  -22.7670  -25.8200 C.3   293  GLU293      0.1160
     98  CD        10.3700  -23.9430  -25.7430 C.2   293  GLU293      0.3649
     99  OE1       10.2370  -24.6890  -26.8020 O.co2 293  GLU293     -0.2457
    100  OE2        9.7350  -24.1450  -24.6460 O.co2 293  GLU293     -0.2457
    101  N         16.8830  -24.4330  -27.1790 N.3   322  TRP322     -0.1241
    102  CA        16.2350  -25.6480  -26.7610 C.3   322  TRP322      0.1605
    103  C         17.1910  -26.8630  -27.0610 C.2   322  TRP322      0.2264
    104  O         17.5080  -27.1130  -28.2240 O.2   322  TRP322     -0.2867
    105  CB        14.8930  -25.8520  -27.4930 C.3   322  TRP322      0.0550
    106  CG        14.1540  -27.0070  -26.9350 C.ar  322  TRP322      0.0003
    107  CD1       14.1110  -28.2920  -27.4270 C.ar  322  TRP322      0.0946
    108  CD2       13.4110  -27.0200  -25.7180 C.ar  322  TRP322      0.0152
    109  NE1       13.3950  -29.1190  -26.5560 N.ar  322  TRP322     -0.2442
    110  CE2       12.9150  -28.3470  -25.5280 C.ar  322  TRP322      0.0810
    111  CE3       13.0700  -26.0280  -24.7730 C.ar  322  TRP322      0.0012
    112  CZ2       12.1530  -28.7100  -24.3960 C.ar  322  TRP322      0.0191
    113  CZ3       12.2850  -26.4000  -23.6890 C.ar  322  TRP322      0.0001
    114  CH2       11.8380  -27.7260  -23.5240 C.ar  322  TRP322      0.0015
    115  N         12.9330  -34.3170  -29.4990 N.3   329  ASP329     -0.1225
    116  CA        12.7280  -33.7440  -30.7930 C.3   329  ASP329      0.1805
    117  C         13.0130  -32.2340  -30.6780 C.2   329  ASP329      0.2597
    118  O         12.6350  -31.5490  -29.6880 O.2   329  ASP329     -0.2718
    119  CB        11.2820  -34.0330  -31.2810 C.3   329  ASP329      0.1424
    120  CG        11.0590  -35.5740  -31.5800 C.2   329  ASP329      0.3668
    121  OD1       12.0650  -36.3350  -31.6860 O.co2 329  ASP329     -0.2456
    122  OD2        9.8970  -36.0090  -31.7390 O.co2 329  ASP329     -0.2456
    123  N         13.7080  -31.7710  -31.7080 N.am  330  ASN330     -0.1974
    124  CA        14.0740  -30.3910  -31.8680 C.3   330  ASN330      0.1688
    125  C         15.0320  -29.8380  -30.8000 C.2   330  ASN330      0.2292
    126  O         15.2190  -28.6430  -30.7310 O.2   330  ASN330     -0.2864
    127  CB        12.8710  -29.5480  -32.0340 C.3   330  ASN330      0.1181
    128  CG        12.2540  -29.6790  -33.4270 C.2   330  ASN330      0.2629
    129  OD1       12.8450  -30.2660  -34.3890 O.2   330  ASN330     -0.2716
    130  ND2       11.1210  -29.0570  -33.5750 N.am  330  ASN330     -0.0877
@<TRIPOS>BOND
     1    83    82    2
     2    82    81    1
     3    81    80    1
     4    81    84    1
     5   129   128    2
     6    84    85    1
     7   130   128   am
     8   128   127    1
     9    85    86   ar
    10    85    87   ar
    11    86    88   ar
    12   127   124    1
    13   124   123    1
    14   124   125    1
    15   122   120   ar
    16   123   117   am
    17   121   120   ar
    18   120   119    1
    19    87    89   ar
    20   119   116    1
    21    88    90   ar
    22   125   126    2
    23   116   117    1
    24   116   115    1
    25   117   118    2
    26    70    67    1
    27    70    71    1
    28    89    90   ar
    29    76    78   ar
    30    76    73   ar
    31    90    91    1
    32    67    66    1
    33    67    68    1
    34    78    79   ar
    35    95    94    2
    36    71    73   ar
    37    71    72   ar
    38    73    75   ar
    39    94    93    1
    40    69    68    2
    41    79    77   ar
    42    72    74   ar
    43    75    77   ar
    44    75    74   ar
    45   104   103    2
    46   105   106    1
    47   105   102    1
    48   107   106   ar
    49   107   109   ar
    50    93    96    1
    51    93    92    1
    52    65    63   ar
    53    96    97    1
    54   101   102    1
    55   103   102    1
    56   106   108   ar
    57    64    63   ar
    58    99    98   ar
    59    63    62    1
    60   109   110   ar
    61    97    98    1
    62    98   100   ar
    63   108   110   ar
    64   108   111   ar
    65    62    61    1
    66   110   112   ar
    67    40    39    2
    68    61    58    1
    69   111   113   ar
    70    41    38    1
    71   112   114   ar
    72    58    59    1
    73    58    57    1
    74    38    39    1
    75    38    37    1
    76    60    59    2
    77    39    42   am
    78   113   114   ar
    79    57    51   am
    80    42    43    1
    81    55    54    2
    82    56    54   am
    83    43    44    1
    84    43    46    1
    85    48    46    1
    86    54    53    1
    87    44    45    2
    88    51    52    2
    89    51    50    1
    90    46    47    1
    91    14    12   ar
    92    14    13   ar
    93    28    26   ar
    94    28    27   ar
    95    26    24   ar
    96    12    10   ar
    97    35    34    2
    98    50    53    1
    99    50    49    1
   100    36    34   am
   101    13    11   ar
   102    27    25   ar
   103    34    33    1
   104    24    23   ar
   105    24    22   ar
   106    10     9   ar
   107    10     8   ar
   108    23    21   ar
   109    31    32    2
   110    31    30    1
   111    11     8   ar
   112     9     7   ar
   113    25    22   ar
   114     8     6   ar
   115    33    30    1
   116    22    20   ar
   117    30    29    1
   118    21    20   ar
   119     7     6   ar
   120     6     5    1
   121     1     2    1
   122    20    19    1
   123     4     3    2
   124     3     2    1
   125     2     5    1
   126    19    16    1
   127    15    16    1
   128    16    17    1
   129    17    18    2
