@<TRIPOS>MOLECULE
tmp/5y77A01.pdb
 146 139 0 0 0
SMALL
GASTEIGER

@<TRIPOS>ATOM
      1  N        -11.2210   25.5240   54.9210 N.3    49  LEU49      -0.1231
      2  CA       -10.0130   25.1700   54.1950 C.3    49  LEU49       0.1693
      3  C         -9.6750   23.7140   54.3860 C.2    49  LEU49       0.2591
      4  O        -10.0560   23.0810   55.4150 O.2    49  LEU49      -0.2718
      5  CB        -8.7850   25.8900   54.8210 C.3    49  LEU49       0.0284
      6  CG        -8.6420   27.3230   55.1970 C.3    49  LEU49       0.0019
      7  CD1       -8.5750   27.5220   56.7160 C.3    49  LEU49       0.0001
      8  CD2       -7.3440   27.7200   54.5370 C.3    49  LEU49       0.0001
      9  N         -8.9930   23.1500   53.4110 N.am   50  ALA50      -0.1980
     10  CA        -8.4740   21.7760   53.4990 C.3    50  ALA50       0.1597
     11  C         -7.1120   21.7430   54.1820 C.2    50  ALA50       0.2287
     12  O         -6.1160   22.2450   53.6450 O.2    50  ALA50      -0.2864
     13  CB        -8.3640   21.1640   52.1440 C.3    50  ALA50       0.0319
     14  N        -12.9390   12.5960   46.7890 N.3    76  ARG76      -0.1245
     15  CA       -13.6890   13.5640   45.9950 C.3    76  ARG76       0.1563
     16  C        -15.0320   12.9370   45.5760 C.2    76  ARG76       0.2260
     17  O        -15.1000   11.7760   45.1040 O.2    76  ARG76      -0.2867
     18  CB       -12.9340   13.9340   44.7050 C.3    76  ARG76       0.0307
     19  CG       -11.7060   14.8250   44.8640 C.3    76  ARG76       0.0489
     20  CD       -11.2690   15.4110   43.4900 C.3    76  ARG76       0.2205
     21  NE        -9.9830   16.1160   43.5640 N.pl3  76  ARG76      -0.0865
     22  CZ        -9.1620   16.2700   42.5250 C.cat  76  ARG76       0.5346
     23  NH1       -9.5160   15.8070   41.3360 N.pl3  76  ARG76       0.1354
     24  NH2       -8.0020   16.9160   42.6700 N.pl3  76  ARG76       0.1354
     25  N         -9.2840    9.2120   48.4120 N.3    89  TYR89      -0.1241
     26  CA        -7.9890    9.8440   48.2570 C.3    89  TYR89       0.1605
     27  C         -6.8770    8.8400   48.4200 C.2    89  TYR89       0.2264
     28  O         -5.8120    8.9970   47.8430 O.2    89  TYR89      -0.2867
     29  CB        -7.8130   10.9040   49.3260 C.3    89  TYR89       0.0534
     30  CG        -8.5430   12.1940   49.0190 C.ar   89  TYR89      -0.0201
     31  CD1       -8.4050   12.8250   47.7810 C.ar   89  TYR89      -0.0009
     32  CD2       -9.3420   12.8040   49.9850 C.ar   89  TYR89      -0.0009
     33  CE1       -9.0200   14.0400   47.5170 C.ar   89  TYR89       0.0417
     34  CE2       -9.9860   13.9740   49.7300 C.ar   89  TYR89       0.0417
     35  CZ        -9.8450   14.6010   48.5080 C.ar   89  TYR89       0.1957
     36  OH       -10.4500   15.8020   48.1970 O.3    89  TYR89      -0.2866
     37  N         -8.0410   14.2740   53.9820 N.3    97  ILE97      -0.1245
     38  CA        -7.7660   15.6910   54.2680 C.3    97  ILE97       0.1561
     39  C         -8.8760   16.1980   55.1630 C.2    97  ILE97       0.2260
     40  O         -9.9570   15.6200   55.1880 O.2    97  ILE97      -0.2867
     41  CB        -7.5560   16.5620   53.0120 C.3    97  ILE97       0.0252
     42  CG1       -8.7850   16.4730   52.1100 C.3    97  ILE97       0.0019
     43  CG2       -6.2620   16.1680   52.2810 C.3    97  ILE97       0.0019
     44  CD1       -8.6450   17.4010   50.8320 C.3    97  ILE97       0.0001
     45  N        -14.9680   15.8980   49.8300 N.3   203  LEU203     -0.1245
     46  CA       -14.8990   17.1500   49.0970 C.3   203  LEU203      0.1561
     47  C        -15.7560   16.9850   47.8840 C.2   203  LEU203      0.2260
     48  O        -15.5820   16.0250   47.1060 O.2   203  LEU203     -0.2867
     49  CB       -13.4350   17.4140   48.6590 C.3   203  LEU203      0.0270
     50  CG       -13.3620   18.5800   47.6420 C.3   203  LEU203      0.0019
     51  CD1      -13.3980   19.8970   48.3560 C.3   203  LEU203      0.0001
     52  CD2      -12.1440   18.4120   46.7500 C.3   203  LEU203      0.0001
     53  N        -17.2320   18.2530   44.1830 N.3   205  ILE205     -0.1245
     54  CA       -16.9470   19.0740   43.0130 C.3   205  ILE205      0.1561
     55  C        -18.0040   18.9990   41.9500 C.2   205  ILE205      0.2260
     56  O        -18.5160   17.9040   41.6970 O.2   205  ILE205     -0.2867
     57  CB       -15.6560   18.6510   42.3520 C.3   205  ILE205      0.0252
     58  CG1      -14.4770   18.6340   43.3180 C.3   205  ILE205      0.0019
     59  CG2      -15.3940   19.5880   41.1490 C.3   205  ILE205      0.0019
     60  CD1      -13.2440   17.9690   42.7560 C.3   205  ILE205      0.0001
     61  N        -16.8520   23.9710   43.9810 N.3   213  ILE213     -0.1245
     62  CA       -16.3630   22.9890   44.9720 C.3   213  ILE213      0.1561
     63  C        -17.1780   23.2220   46.2310 C.2   213  ILE213      0.2260
     64  O        -17.7990   24.2620   46.4030 O.2   213  ILE213     -0.2867
     65  CB       -14.8880   23.0550   45.2730 C.3   213  ILE213      0.0252
     66  CG1      -14.4930   24.3730   45.9270 C.3   213  ILE213      0.0019
     67  CG2      -14.0950   22.7060   43.9700 C.3   213  ILE213      0.0019
     68  CD1      -13.0080   24.3580   46.4870 C.3   213  ILE213      0.0001
     69  N        -16.8720   22.2410   50.5750 N.3   215  LEU215     -0.1245
     70  CA       -16.2330   21.5600   51.7080 C.3   215  LEU215      0.1561
     71  C        -17.2090   21.6050   52.8800 C.2   215  LEU215      0.2260
     72  O        -17.9140   22.5750   53.1410 O.2   215  LEU215     -0.2867
     73  CB       -14.9540   22.3200   52.1370 C.3   215  LEU215      0.0270
     74  CG       -13.6990   22.0330   51.3280 C.3   215  LEU215      0.0019
     75  CD1      -13.8100   22.6540   49.8930 C.3   215  LEU215      0.0001
     76  CD2      -12.4740   22.7160   52.1190 C.3   215  LEU215      0.0001
     77  N        -15.8560   29.0170   40.9470 N.3   227  PHE227     -0.1241
     78  CA       -14.7280   29.5890   40.2050 C.3   227  PHE227      0.1605
     79  C        -15.1510   29.8460   38.7740 C.2   227  PHE227      0.2264
     80  O        -15.6180   28.9350   38.0710 O.2   227  PHE227     -0.2867
     81  CB       -13.5590   28.5760   40.1990 C.3   227  PHE227      0.0534
     82  CG       -12.9420   28.3890   41.5460 C.ar  227  PHE227     -0.0203
     83  CD1      -12.0940   29.3540   42.0890 C.ar  227  PHE227     -0.0042
     84  CD2      -13.2460   27.2790   42.3240 C.ar  227  PHE227     -0.0042
     85  CE1      -11.5140   29.1720   43.3380 C.ar  227  PHE227     -0.0003
     86  CE2      -12.6840   27.0840   43.5670 C.ar  227  PHE227     -0.0003
     87  CZ       -11.8380   28.0080   44.1060 C.ar  227  PHE227     -0.0000
     88  N         -5.5310   28.5190   44.1000 N.3   305  PRO305     -0.2102
     89  CA        -5.9730   27.6230   45.1970 C.3   305  PRO305      0.1504
     90  C         -6.3630   26.2260   44.7790 C.2   305  PRO305      0.2576
     91  O         -6.8840   25.4600   45.5830 O.2   305  PRO305     -0.2718
     92  CB        -7.2220   28.3650   45.7490 C.3   305  PRO305      0.0282
     93  CG        -7.7980   28.9880   44.5280 C.3   305  PRO305      0.0208
     94  CD        -6.5370   29.5650   43.8120 C.3   305  PRO305      0.0893
     95  N         -6.0040   25.8250   43.5730 N.am  306  PHE306     -0.1963
     96  CA        -6.6200   24.5760   43.0690 C.3   306  PHE306      0.1771
     97  C         -6.0390   23.3080   43.6450 C.2   306  PHE306      0.2620
     98  O         -6.5950   22.2470   43.4050 O.2   306  PHE306     -0.2715
     99  CB        -6.5830   24.5690   41.5250 C.3   306  PHE306      0.0574
    100  CG        -7.1800   25.8210   40.9390 C.ar  306  PHE306     -0.0200
    101  CD1       -8.4650   26.2290   41.3130 C.ar  306  PHE306     -0.0042
    102  CD2       -6.4500   26.6100   40.0680 C.ar  306  PHE306     -0.0042
    103  CE1       -8.9900   27.4260   40.7880 C.ar  306  PHE306     -0.0003
    104  CE2       -7.0090   27.7770   39.5150 C.ar  306  PHE306     -0.0003
    105  CZ        -8.2720   28.1570   39.8930 C.ar  306  PHE306     -0.0000
    106  N         -4.9580   23.4010   44.4170 N.am  307  HIS307     -0.1959
    107  CA        -4.4110   22.2180   45.1000 C.3   307  HIS307      0.1787
    108  C         -4.7470   22.1920   46.5870 C.2   307  HIS307      0.2620
    109  O         -4.4160   21.2830   47.2910 O.2   307  HIS307     -0.2715
    110  CB        -2.9110   22.0860   44.9020 C.3   307  HIS307      0.0785
    111  CG        -2.4780   20.6750   44.7020 C.ar  307  HIS307      0.0821
    112  ND1       -2.8160   19.6600   45.5810 N.ar  307  HIS307     -0.2267
    113  CD2       -1.7440   20.1070   43.7150 C.ar  307  HIS307      0.1154
    114  CE1       -2.3350   18.5140   45.1180 C.ar  307  HIS307      0.1986
    115  NE2       -1.6380   18.7690   44.0200 N.ar  307  HIS307     -0.2212
    116  N         -5.3500   23.2510   47.0560 N.am  308  GLY308     -0.1954
    117  CA        -5.5960   23.2740   48.5170 C.3   308  GLY308      0.1869
    118  C         -4.3480   23.1890   49.3900 C.2   308  GLY308      0.2309
    119  O         -4.3580   22.5060   50.3880 O.2   308  GLY308     -0.2863
    120  N         -3.3310   21.7430   38.6910 N.3   354  ASN354     -0.1240
    121  CA        -4.4060   20.9530   39.2890 C.3   354  ASN354      0.1653
    122  C         -5.7890   21.3860   38.8160 C.2   354  ASN354      0.2266
    123  O         -6.7300   20.6170   38.9480 O.2   354  ASN354     -0.2867
    124  CB        -4.3630   21.0040   40.8290 C.3   354  ASN354      0.1155
    125  CG        -4.7120   19.6810   41.4570 C.2   354  ASN354      0.2627
    126  OD1       -4.2630   18.6350   41.0090 O.2   354  ASN354     -0.2716
    127  ND2       -5.5020   19.7270   42.5270 N.am  354  ASN354     -0.0877
    128  N         -0.1820   13.2530   43.5480 N.3   387  TYR387     -0.1241
    129  CA        -1.1730   13.7850   44.4680 C.3   387  TYR387      0.1605
    130  C         -0.9050   13.3650   45.9250 C.2   387  TYR387      0.2264
    131  O         -1.0420   14.1550   46.8800 O.2   387  TYR387     -0.2867
    132  CB        -2.6020   13.3870   44.0570 C.3   387  TYR387      0.0534
    133  CG        -3.6120   13.8760   45.0730 C.ar  387  TYR387     -0.0201
    134  CD1       -3.9270   13.0990   46.1660 C.ar  387  TYR387     -0.0009
    135  CD2       -4.1680   15.1230   44.9610 C.ar  387  TYR387     -0.0009
    136  CE1       -4.7800   13.5500   47.1470 C.ar  387  TYR387      0.0417
    137  CE2       -5.0720   15.5870   45.9420 C.ar  387  TYR387      0.0417
    138  CZ        -5.3620   14.7780   47.0040 C.ar  387  TYR387      0.1957
    139  OH        -6.2330   15.2610   47.9740 O.3   387  TYR387     -0.2866
    140  N          0.0320   15.6280   49.0900 N.3   390  THR390     -0.1218
    141  CA        -1.0130   15.8630   50.0910 C.3   390  THR390      0.1862
    142  C         -0.7720   15.0730   51.3730 C.2   390  THR390      0.2287
    143  O         -1.1490   15.5050   52.4570 O.2   390  THR390     -0.2866
    144  CB        -2.3380   15.3930   49.5130 C.3   390  THR390      0.1770
    145  OG1       -2.5170   16.0590   48.2350 O.3   390  THR390     -0.2211
    146  CG2       -3.4850   15.7700   50.4350 C.3   390  THR390      0.0375
@<TRIPOS>BOND
     1    80    79    2
     2   120   121    1
     3    79    78    1
     4   122   123    2
     5   122   121    1
     6   121   124    1
     7   104   105   ar
     8   104   102   ar
     9   105   103   ar
    10   102   100   ar
    11    81    78    1
    12    81    82    1
    13    78    77    1
    14   103   101   ar
    15   124   125    1
    16   100   101   ar
    17   100    99    1
    18   126   125    2
    19    59    57    1
    20    23    22    1
    21   125   127   am
    22    99    96    1
    23    82    83   ar
    24    82    84   ar
    25    56    55    2
    26    55    54    1
    27    83    85   ar
    28    84    86   ar
    29    57    54    1
    30    57    58    1
    31    22    24    1
    32    22    21    2
    33    60    58    1
    34    54    53    1
    35    96    95    1
    36    96    97    1
    37    85    87   ar
    38    98    97    2
    39    20    21    1
    40    20    19    1
    41   128   129    1
    42    86    87   ar
    43    95    90   am
    44    97   106   am
    45   113   115   ar
    46   113   111   ar
    47    94    88    1
    48    94    93    1
    49    67    65    1
    50    61    62    1
    51   115   114   ar
    52   132   129    1
    53   132   133    1
    54    88    89    1
    55   106   107    1
    56   129   130    1
    57    93    92    1
    58   111   110    1
    59   111   112   ar
    60    18    19    1
    61    18    15    1
    62    90    89    1
    63    90    91    2
    64   110   107    1
    65   135   133   ar
    66   135   137   ar
    67    62    65    1
    68    62    63    1
    69   133   134   ar
    70   107   108    1
    71    17    16    2
    72   114   112   ar
    73    89    92    1
    74    65    66    1
    75    16    15    1
    76   130   131    2
    77    66    68    1
    78   137   138   ar
    79    15    14    1
    80   134   136   ar
    81    63    64    2
    82   108   116   am
    83   108   109    2
    84    52    50    1
    85   138   136   ar
    86   138   139    1
    87   116   117    1
    88    48    47    2
    89    33    31   ar
    90    33    35   ar
    91    50    51    1
    92    50    49    1
    93    31    30   ar
    94    28    27    2
    95    47    46    1
    96    36    35    1
    97   145   144    1
    98    26    25    1
    99    26    27    1
   100    26    29    1
   101    35    34   ar
   102   117   118    1
   103    49    46    1
   104    30    29    1
   105    30    32   ar
   106   140   141    1
   107    46    45    1
   108   118   119    2
   109   144   141    1
   110   144   146    1
   111    34    32   ar
   112    75    74    1
   113   141   142    1
   114    69    70    1
   115    44    42    1
   116    74    76    1
   117    74    73    1
   118   142   143    2
   119    70    73    1
   120    70    71    1
   121    42    41    1
   122    13    10    1
   123    43    41    1
   124    71    72    2
   125    41    38    1
   126     9    10    1
   127     9     3   am
   128    10    11    1
   129    12    11    2
   130    37    38    1
   131     2     3    1
   132     2     5    1
   133     2     1    1
   134    38    39    1
   135     3     4    2
   136     8     6    1
   137     5     6    1
   138    39    40    2
   139     6     7    1
