@<TRIPOS>MOLECULE
tmp/5y78B15.pdb
 103 98 0 0 0
SMALL
GASTEIGER

@<TRIPOS>ATOM
      1  N         12.9070  221.8020  -52.9340 N.3    12  PHE12      -0.1227
      2  CA        13.9650  222.7420  -53.2910 C.3    12  PHE12       0.1736
      3  C         14.5660  223.4010  -52.0550 C.2    12  PHE12       0.2595
      4  O         15.7590  223.7270  -52.0480 O.2    12  PHE12      -0.2718
      5  CB        13.4230  223.7970  -54.2590 C.3    12  PHE12       0.0547
      6  CG        14.4390  224.8270  -54.6760 C.ar   12  PHE12      -0.0202
      7  CD1       15.5390  224.4700  -55.4390 C.ar   12  PHE12      -0.0042
      8  CD2       14.2820  226.1570  -54.3180 C.ar   12  PHE12      -0.0042
      9  CE1       16.4720  225.4190  -55.8260 C.ar   12  PHE12      -0.0003
     10  CE2       15.2100  227.1120  -54.7040 C.ar   12  PHE12      -0.0003
     11  CZ        16.3050  226.7420  -55.4580 C.ar   12  PHE12      -0.0000
     12  N         13.7640  223.6020  -51.0050 N.am   13  TYR13      -0.1976
     13  CA        14.2990  224.1150  -49.7470 C.3    13  TYR13       0.1639
     14  C         15.3100  223.1420  -49.1500 C.2    13  TYR13       0.2290
     15  O         16.3930  223.5440  -48.7090 O.2    13  TYR13      -0.2864
     16  CB        13.1640  224.3740  -48.7530 C.3    13  TYR13       0.0560
     17  CG        12.2190  225.4960  -49.1320 C.ar   13  TYR13      -0.0198
     18  CD1       12.6230  226.5180  -49.9810 C.ar   13  TYR13      -0.0009
     19  CD2       10.9230  225.5340  -48.6300 C.ar   13  TYR13      -0.0009
     20  CE1       11.7600  227.5450  -50.3240 C.ar   13  TYR13       0.0417
     21  CE2       10.0520  226.5570  -48.9680 C.ar   13  TYR13       0.0417
     22  CZ        10.4770  227.5590  -49.8140 C.ar   13  TYR13       0.1957
     23  OH         9.6150  228.5780  -50.1520 O.3    13  TYR13      -0.2866
     24  N         18.5970  223.4020  -51.0710 N.3    16  LEU16      -0.1245
     25  CA        19.3870  224.5580  -50.6570 C.3    16  LEU16       0.1561
     26  C         19.9790  224.3480  -49.2720 C.2    16  LEU16       0.2260
     27  O         21.1270  224.7290  -49.0130 O.2    16  LEU16      -0.2867
     28  CB        18.5300  225.8220  -50.6800 C.3    16  LEU16       0.0270
     29  CG        18.0840  226.3300  -52.0480 C.3    16  LEU16       0.0019
     30  CD1       17.2540  227.5890  -51.8820 C.3    16  LEU16       0.0001
     31  CD2       19.2880  226.5860  -52.9410 C.3    16  LEU16       0.0001
     32  N         23.8980  224.5570  -49.1850 N.3    20  PHE20      -0.1241
     33  CA        24.5470  225.5750  -48.3630 C.3    20  PHE20       0.1605
     34  C         25.3240  224.9450  -47.2120 C.2    20  PHE20       0.2264
     35  O         26.3960  225.4340  -46.8360 O.2    20  PHE20      -0.2867
     36  CB        23.5100  226.5620  -47.8260 C.3    20  PHE20       0.0534
     37  CG        22.9630  227.5010  -48.8630 C.ar   20  PHE20      -0.0203
     38  CD1       23.7220  227.8600  -49.9640 C.ar   20  PHE20      -0.0042
     39  CD2       21.6870  228.0280  -48.7320 C.ar   20  PHE20      -0.0042
     40  CE1       23.2200  228.7260  -50.9150 C.ar   20  PHE20      -0.0003
     41  CE2       21.1790  228.8940  -49.6790 C.ar   20  PHE20      -0.0003
     42  CZ        21.9460  229.2440  -50.7730 C.ar   20  PHE20      -0.0000
     43  N         23.4170  240.1800  -41.3890 N.3    52  TYR52      -0.1241
     44  CA        22.8130  239.9390  -42.6970 C.3    52  TYR52       0.1605
     45  C         21.3040  240.1530  -42.6560 C.2    52  TYR52       0.2264
     46  O         20.7290  240.7570  -43.5690 O.2    52  TYR52      -0.2867
     47  CB        23.1550  238.5200  -43.1630 C.3    52  TYR52       0.0534
     48  CG        22.4430  238.0500  -44.4160 C.ar   52  TYR52      -0.0201
     49  CD1       22.9560  238.3250  -45.6780 C.ar   52  TYR52      -0.0009
     50  CD2       21.2710  237.3070  -44.3350 C.ar   52  TYR52      -0.0009
     51  CE1       22.3110  237.8880  -46.8230 C.ar   52  TYR52       0.0417
     52  CE2       20.6210  236.8670  -45.4730 C.ar   52  TYR52       0.0417
     53  CZ        21.1440  237.1590  -46.7140 C.ar   52  TYR52       0.1957
     54  OH        20.4970  236.7200  -47.8460 O.3    52  TYR52      -0.2866
     55  N         11.8690  232.7880  -42.0790 N.3   187  GLN187     -0.1245
     56  CA        13.1890  233.4070  -42.0340 C.3   187  GLN187      0.1566
     57  C         13.2890  234.4400  -40.9190 C.2   187  GLN187      0.2260
     58  O         14.3680  234.6240  -40.3440 O.2   187  GLN187     -0.2867
     59  CB        13.5240  234.0500  -43.3800 C.3   187  GLN187      0.0367
     60  CG        13.5470  233.0800  -44.5500 C.3   187  GLN187      0.0905
     61  CD        12.2560  233.0930  -45.3430 C.2   187  GLN187      0.2608
     62  OE1       11.1660  233.1640  -44.7750 O.2   187  GLN187     -0.2717
     63  NE2       12.3720  233.0350  -46.6650 N.am  187  GLN187     -0.0878
     64  N         28.7950  233.3560  -43.7870 N.3   235  LEU235     -0.1245
     65  CA        27.6730  233.6130  -44.6840 C.3   235  LEU235      0.1561
     66  C         26.8830  232.3390  -44.9510 C.2   235  LEU235      0.2260
     67  O         25.6490  232.3280  -44.8720 O.2   235  LEU235     -0.2867
     68  CB        28.1780  234.2170  -45.9950 C.3   235  LEU235      0.0270
     69  CG        27.1930  234.2360  -47.1670 C.3   235  LEU235      0.0019
     70  CD1       25.9650  235.0800  -46.8540 C.3   235  LEU235      0.0001
     71  CD2       27.8820  234.7350  -48.4250 C.3   235  LEU235      0.0001
     72  N         23.0470  231.0120  -44.1610 N.3   239  LEU239     -0.1245
     73  CA        22.1680  230.6630  -45.2730 C.3   239  LEU239      0.1561
     74  C         21.5770  229.2670  -45.1070 C.2   239  LEU239      0.2260
     75  O         20.3880  229.0570  -45.3760 O.2   239  LEU239     -0.2867
     76  CB        22.9230  230.7760  -46.5980 C.3   239  LEU239      0.0270
     77  CG        23.2340  232.2000  -47.0690 C.3   239  LEU239      0.0019
     78  CD1       23.9900  232.1780  -48.3880 C.3   239  LEU239      0.0001
     79  CD2       21.9560  233.0180  -47.1960 C.3   239  LEU239      0.0001
     80  N         19.0520  229.3590  -42.2530 N.3   242  GLU242     -0.1231
     81  CA        17.8710  230.1320  -42.6190 C.3   242  GLU242      0.1699
     82  C         16.9300  229.3110  -43.4910 C.2   242  GLU242      0.2592
     83  O         15.7190  229.2680  -43.2490 O.2   242  GLU242     -0.2718
     84  CB        18.2930  231.4160  -43.3340 C.3   242  GLU242      0.0402
     85  CG        17.1650  232.3940  -43.5910 C.3   242  GLU242      0.1161
     86  CD        17.6440  233.6430  -44.3030 C.2   242  GLU242      0.3649
     87  OE1       17.9670  233.5560  -45.5070 O.co2 242  GLU242     -0.2457
     88  OE2       17.7100  234.7100  -43.6570 O.co2 242  GLU242     -0.2457
     89  N         17.4730  228.6440  -44.5110 N.am  243  VAL243     -0.1980
     90  CA        16.6340  227.8210  -45.3760 C.3   243  VAL243      0.1595
     91  C         16.1190  226.5970  -44.6260 C.2   243  VAL243      0.2287
     92  O         15.0320  226.0900  -44.9280 O.2   243  VAL243     -0.2864
     93  CB        17.4090  227.4320  -46.6500 C.3   243  VAL243      0.0276
     94  CG1       16.5170  226.6610  -47.6110 C.3   243  VAL243      0.0022
     95  CG2       17.9570  228.6740  -47.3330 C.3   243  VAL243      0.0022
     96  N         12.7930  227.2230  -43.1560 N.3   246  LEU246     -0.1245
     97  CA        11.7250  227.0290  -44.1300 C.3   246  LEU246      0.1561
     98  C         11.3020  225.5680  -44.1770 C.2   246  LEU246      0.2260
     99  O         10.1120  225.2600  -44.3130 O.2   246  LEU246     -0.2867
    100  CB        12.1750  227.4980  -45.5130 C.3   246  LEU246      0.0270
    101  CG        12.3080  229.0000  -45.7570 C.3   246  LEU246      0.0019
    102  CD1       12.7970  229.2430  -47.1700 C.3   246  LEU246      0.0001
    103  CD2       10.9800  229.7030  -45.5250 C.3   246  LEU246      0.0001
@<TRIPOS>BOND
     1     9    11   ar
     2     9     7   ar
     3    11    10   ar
     4     7     6   ar
     5    10     8   ar
     6     6     8   ar
     7     6     5    1
     8     5     2    1
     9     2     1    1
    10     2     3    1
    11    31    29    1
    12     3     4    2
    13     3    12   am
    14    29    30    1
    15    29    28    1
    16    24    25    1
    17    12    13    1
    18    40    42   ar
    19    40    38   ar
    20    42    41   ar
    21    28    25    1
    22    25    26    1
    23    20    18   ar
    24    20    22   ar
    25    23    22    1
    26    18    17   ar
    27    38    37   ar
    28    22    21   ar
    29    13    14    1
    30    13    16    1
    31    41    39   ar
    32    26    27    2
    33    32    33    1
    34    14    15    2
    35    17    16    1
    36    17    19   ar
    37    21    19   ar
    38    37    39   ar
    39    37    36    1
    40    71    69    1
    41    78    77    1
    42    33    36    1
    43    33    34    1
    44    54    53    1
    45    94    93    1
    46    95    93    1
    47    34    35    2
    48    79    77    1
    49   102   101    1
    50    69    70    1
    51    69    68    1
    52    77    76    1
    53    51    53   ar
    54    51    49   ar
    55    53    52   ar
    56    63    61   am
    57    93    90    1
    58    76    73    1
    59    68    65    1
    60   101   103    1
    61   101   100    1
    62    49    48   ar
    63   100    97    1
    64    87    86   ar
    65    52    50   ar
    66    90    91    1
    67    90    89    1
    68    75    74    2
    69    61    62    2
    70    61    60    1
    71    73    74    1
    72    73    72    1
    73    66    67    2
    74    66    65    1
    75    92    91    2
    76    65    64    1
    77    60    59    1
    78    89    82   am
    79    48    50   ar
    80    48    47    1
    81    99    98    2
    82    86    88   ar
    83    86    85    1
    84    98    97    1
    85    97    96    1
    86    85    84    1
    87    46    45    2
    88    82    83    2
    89    82    81    1
    90    59    56    1
    91    84    81    1
    92    47    44    1
    93    44    45    1
    94    44    43    1
    95    81    80    1
    96    55    56    1
    97    56    57    1
    98    57    58    2
