@<TRIPOS>MOLECULE
tmp/5y78A03.pdb
 144 138 0 0 0
SMALL
GASTEIGER

@<TRIPOS>ATOM
      1  N         42.5780  177.0330  -14.7160 N.3    35  TRP35      -0.1241
      2  CA        42.1300  176.0770  -15.7270 C.3    35  TRP35       0.1605
      3  C         41.2350  176.8480  -16.7020 C.2    35  TRP35       0.2264
      4  O         40.0050  176.8130  -16.6250 O.2    35  TRP35      -0.2867
      5  CB        41.3940  174.9060  -15.0740 C.3    35  TRP35       0.0550
      6  CG        41.3590  173.6360  -15.8630 C.ar   35  TRP35       0.0003
      7  CD1       42.4280  172.9100  -16.3020 C.ar   35  TRP35       0.0946
      8  CD2       40.1890  172.9150  -16.2690 C.ar   35  TRP35       0.0152
      9  NE1       41.9950  171.7910  -16.9750 N.ar   35  TRP35      -0.2442
     10  CE2       40.6250  171.7700  -16.9670 C.ar   35  TRP35       0.0810
     11  CE3       38.8160  173.1320  -16.1190 C.ar   35  TRP35       0.0012
     12  CZ2       39.7350  170.8450  -17.5140 C.ar   35  TRP35       0.0191
     13  CZ3       37.9330  172.2120  -16.6620 C.ar   35  TRP35       0.0001
     14  CH2       38.3970  171.0830  -17.3510 C.ar   35  TRP35       0.0015
     15  N         34.5110  173.9310  -21.7150 N.3    40  VAL40      -0.1245
     16  CA        34.4590  172.6470  -21.0230 C.3    40  VAL40       0.1561
     17  C         33.9670  172.8240  -19.5910 C.2    40  VAL40       0.2260
     18  O         33.1590  172.0280  -19.0980 O.2    40  VAL40      -0.2867
     19  CB        35.8360  171.9590  -21.0730 C.3    40  VAL40       0.0252
     20  CG1       35.8530  170.7280  -20.1840 C.3    40  VAL40       0.0019
     21  CG2       36.1850  171.5830  -22.5040 C.3    40  VAL40       0.0019
     22  N         30.3160  173.4220  -19.4920 N.3    43  THR43      -0.1203
     23  CA        29.6430  172.1710  -19.8240 C.3    43  THR43       0.1994
     24  C         29.6650  171.2050  -18.6450 C.2    43  THR43       0.2617
     25  O         28.6660  170.5310  -18.3700 O.2    43  THR43      -0.2717
     26  CB        30.2900  171.5390  -21.0570 C.3    43  THR43       0.1784
     27  OG1       30.0890  172.3930  -22.1900 O.3    43  THR43      -0.2211
     28  CG2       29.6860  170.1700  -21.3430 C.3    43  THR43       0.0376
     29  N         30.7920  171.1330  -17.9320 N.am   44  ILE44      -0.1979
     30  CA        30.8710  170.2910  -16.7400 C.3    44  ILE44       0.1595
     31  C         29.8320  170.7240  -15.7130 C.2    44  ILE44       0.2287
     32  O         29.1510  169.8890  -15.1050 O.2    44  ILE44      -0.2864
     33  CB        32.2950  170.3310  -16.1520 C.3    44  ILE44       0.0276
     34  CG1       33.2860  169.6480  -17.0940 C.3    44  ILE44       0.0022
     35  CG2       32.3310  169.6780  -14.7810 C.3    44  ILE44       0.0022
     36  CD1       34.7370  169.8690  -16.7060 C.3    44  ILE44       0.0001
     37  N         26.5380  169.4160  -16.5790 N.3    47  GLY47      -0.1210
     38  CA        26.4500  167.9730  -16.4160 C.3    47  GLY47       0.1956
     39  C         26.3740  167.5480  -14.9630 C.2    47  GLY47       0.2611
     40  O         25.6490  166.6090  -14.6200 O.2    47  GLY47      -0.2717
     41  N         27.1240  168.2250  -14.0910 N.am   48  VAL48      -0.1979
     42  CA        27.0450  167.9320  -12.6630 C.3    48  VAL48       0.1595
     43  C         25.6410  168.2070  -12.1440 C.2    48  VAL48       0.2287
     44  O         25.0920  167.4340  -11.3480 O.2    48  VAL48      -0.2864
     45  CB        28.1080  168.7390  -11.8930 C.3    48  VAL48       0.0276
     46  CG1       27.9450  168.5460  -10.3950 C.3    48  VAL48       0.0022
     47  CG2       29.4990  168.3230  -12.3300 C.3    48  VAL48       0.0022
     48  N         23.3940  165.3830  -13.5100 N.3    51  LEU51      -0.1245
     49  CA        23.5650  164.1610  -12.7290 C.3    51  LEU51       0.1561
     50  C         22.9450  164.2940  -11.3440 C.2    51  LEU51       0.2260
     51  O         22.3210  163.3510  -10.8420 O.2    51  LEU51      -0.2867
     52  CB        25.0490  163.8190  -12.6080 C.3    51  LEU51       0.0270
     53  CG        25.7590  163.3550  -13.8780 C.3    51  LEU51       0.0019
     54  CD1       27.2440  163.1820  -13.6170 C.3    51  LEU51       0.0001
     55  CD2       25.1460  162.0550  -14.3690 C.3    51  LEU51       0.0001
     56  N         23.0050  170.6210  -21.1590 N.3   198  PHE198     -0.1241
     57  CA        24.2740  169.9010  -21.1820 C.3   198  PHE198      0.1605
     58  C         24.5480  169.3230  -22.5640 C.2   198  PHE198      0.2264
     59  O         25.6300  169.5190  -23.1290 O.2   198  PHE198     -0.2867
     60  CB        24.2820  168.7930  -20.1290 C.3   198  PHE198      0.0534
     61  CG        25.4340  167.8360  -20.2740 C.ar  198  PHE198     -0.0203
     62  CD1       26.7070  168.2000  -19.8710 C.ar  198  PHE198     -0.0042
     63  CD2       25.2460  166.5780  -20.8240 C.ar  198  PHE198     -0.0042
     64  CE1       27.7680  167.3260  -20.0060 C.ar  198  PHE198     -0.0003
     65  CE2       26.3050  165.7020  -20.9650 C.ar  198  PHE198     -0.0003
     66  CZ        27.5650  166.0770  -20.5540 C.ar  198  PHE198     -0.0000
     67  N         27.5500  170.3860  -25.0950 N.3   202  LEU202     -0.1245
     68  CA        28.6130  169.3800  -25.1450 C.3   202  LEU202      0.1561
     69  C         29.3510  169.3050  -26.4790 C.2   202  LEU202      0.2260
     70  O         30.5920  169.2720  -26.4630 O.2   202  LEU202     -0.2867
     71  CB        28.0310  168.0100  -24.7690 C.3   202  LEU202      0.0270
     72  CG        29.0310  166.8500  -24.7990 C.3   202  LEU202      0.0019
     73  CD1       30.2010  167.1270  -23.8660 C.3   202  LEU202      0.0001
     74  CD2       28.3590  165.5310  -24.4440 C.3   202  LEU202      0.0001
     75  N         31.6270  172.4240  -26.8380 N.3   205  ALA205     -0.1231
     76  CA        32.7550  172.4320  -25.9110 C.3   205  ALA205      0.1694
     77  C         33.8790  171.5310  -26.4050 C.2   205  ALA205      0.2591
     78  O         35.0560  171.9060  -26.3610 O.2   205  ALA205     -0.2718
     79  CB        32.2950  172.0040  -24.5180 C.3   205  ALA205      0.0304
     80  N         33.5330  170.3350  -26.8860 N.am  206  LEU206     -0.1980
     81  CA        34.5510  169.4100  -27.3740 C.3   206  LEU206      0.1596
     82  C         35.2070  169.9330  -28.6450 C.2   206  LEU206      0.2287
     83  O         36.4180  169.7780  -28.8350 O.2   206  LEU206     -0.2864
     84  CB        33.9320  168.0340  -27.6090 C.3   206  LEU206      0.0297
     85  CG        33.3200  167.3870  -26.3660 C.3   206  LEU206      0.0022
     86  CD1       32.5040  166.1650  -26.7480 C.3   206  LEU206      0.0001
     87  CD2       34.4060  167.0220  -25.3600 C.3   206  LEU206      0.0001
     88  N         38.3200  170.5330  -26.8830 N.3   210  GLY210     -0.1210
     89  CA        38.7440  169.1490  -26.7460 C.3   210  GLY210      0.1956
     90  C         38.6350  168.6730  -25.3100 C.2   210  GLY210      0.2612
     91  O         37.6970  169.0150  -24.5820 O.2   210  GLY210     -0.2717
     92  N         39.6120  167.8680  -24.8920 N.am  211  PHE211     -0.1962
     93  CA        39.6880  167.3420  -23.5320 C.3   211  PHE211      0.1756
     94  C         40.8860  167.9800  -22.8430 C.2   211  PHE211      0.2461
     95  O         42.0090  167.4610  -22.9280 O.2   211  PHE211     -0.2730
     96  CB        39.8040  165.8150  -23.5390 C.3   211  PHE211      0.0574
     97  CG        38.5740  165.1150  -24.0530 C.ar  211  PHE211     -0.0200
     98  CD1       38.3220  165.0310  -25.4150 C.ar  211  PHE211     -0.0042
     99  CD2       37.6710  164.5370  -23.1740 C.ar  211  PHE211     -0.0042
    100  CE1       37.1910  164.3890  -25.8890 C.ar  211  PHE211     -0.0003
    101  CE2       36.5390  163.8920  -23.6410 C.ar  211  PHE211     -0.0003
    102  CZ        36.2990  163.8180  -25.0000 C.ar  211  PHE211     -0.0000
    103  N         40.7050  169.1070  -22.1590 N.am  212  PRO212     -0.2727
    104  CA        41.8490  169.8370  -21.5990 C.3   212  PRO212      0.1402
    105  C         42.5420  169.0260  -20.5210 C.2   212  PRO212      0.2269
    106  O         41.8790  168.3710  -19.7040 O.2   212  PRO212     -0.2865
    107  CB        41.2080  171.1060  -21.0130 C.3   212  PRO212      0.0296
    108  CG        39.8500  171.2020  -21.6660 C.3   212  PRO212      0.0237
    109  CD        39.4280  169.7850  -21.8860 C.3   212  PRO212      0.0939
    110  N         44.1390  168.0190  -17.0770 N.3   214  LEU214     -0.1245
    111  CA        43.8340  168.4180  -15.7030 C.3   214  LEU214      0.1561
    112  C         45.1240  168.8840  -15.0330 C.2   214  LEU214      0.2260
    113  O         45.7410  168.1830  -14.2270 O.2   214  LEU214     -0.2867
    114  CB        43.1840  167.2670  -14.9460 C.3   214  LEU214      0.0270
    115  CG        42.5860  167.5610  -13.5680 C.3   214  LEU214      0.0019
    116  CD1       41.4530  168.5720  -13.6750 C.3   214  LEU214      0.0001
    117  CD2       42.1000  166.2770  -12.9110 C.3   214  LEU214      0.0001
    118  N         40.7330  169.4800   -9.2060 N.3   227  PHE227     -0.1241
    119  CA        39.5040  168.7150   -9.3960 C.3   227  PHE227      0.1605
    120  C         38.4520  169.0940   -8.3620 C.2   227  PHE227      0.2264
    121  O         37.2680  169.2280   -8.6940 O.2   227  PHE227     -0.2867
    122  CB        39.7960  167.2160   -9.3380 C.3   227  PHE227      0.0534
    123  CG        38.5800  166.3600   -9.5330 C.ar  227  PHE227     -0.0203
    124  CD1       37.9690  166.2790  -10.7740 C.ar  227  PHE227     -0.0042
    125  CD2       38.0420  165.6410   -8.4780 C.ar  227  PHE227     -0.0042
    126  CE1       36.8460  165.4960  -10.9600 C.ar  227  PHE227     -0.0003
    127  CE2       36.9210  164.8550   -8.6590 C.ar  227  PHE227     -0.0003
    128  CZ        36.3220  164.7830   -9.9010 C.ar  227  PHE227     -0.0000
    129  N         36.8640  172.3790   -9.4030 N.3   230  ILE230     -0.1231
    130  CA        35.9250  172.1950  -10.5090 C.3   230  ILE230      0.1692
    131  C         34.5990  171.6480   -9.9950 C.2   230  ILE230      0.2591
    132  O         33.5220  172.1370  -10.3580 O.2   230  ILE230     -0.2718
    133  CB        36.5300  171.2720  -11.5820 C.3   230  ILE230      0.0266
    134  CG1       37.7140  171.9540  -12.2700 C.3   230  ILE230      0.0019
    135  CG2       35.4630  170.8550  -12.5950 C.3   230  ILE230      0.0020
    136  CD1       38.4910  171.0420  -13.1960 C.3   230  ILE230      0.0001
    137  N         34.6580  170.6210   -9.1450 N.am  231  MET231     -0.1979
    138  CA        33.4340  170.0310   -8.6150 C.3   231  MET231      0.1605
    139  C         32.7320  170.9680   -7.6410 C.2   231  MET231      0.2287
    140  O         31.4970  170.9710   -7.5670 O.2   231  MET231     -0.2864
    141  CB        33.7480  168.6960   -7.9380 C.3   231  MET231      0.0413
    142  CG        34.3590  167.6570   -8.8690 C.3   231  MET231      0.0598
    143  SD        33.2810  167.2490  -10.2570 S.3   231  MET231     -0.1393
    144  CE        31.8090  166.7330   -9.3850 C.3   231  MET231      0.0692
@<TRIPOS>BOND
     1    83    82    2
     2    82    81    1
     3    84    81    1
     4    84    85    1
     5    81    80    1
     6    80    77   am
     7    88    89    1
     8    75    76    1
     9    86    85    1
    10    89    90    1
    11    69    70    2
    12    69    68    1
    13    77    78    2
    14    77    76    1
    15    85    87    1
    16    76    79    1
    17   100    98   ar
    18   100   102   ar
    19    98    97   ar
    20    90    92   am
    21    90    91    2
    22    68    67    1
    23    68    71    1
    24   102   101   ar
    25    92    93    1
    26    72    71    1
    27    72    74    1
    28    72    73    1
    29    97    96    1
    30    97    99   ar
    31   101    99   ar
    32    96    93    1
    33    93    94    1
    34    59    58    2
    35    95    94    2
    36    94   103   am
    37    58    57    1
    38    21    19    1
    39    27    26    1
    40   103   109    1
    41   103   104    1
    42   109   108    1
    43    15    16    1
    44   108   107    1
    45   104   107    1
    46   104   105    1
    47    28    26    1
    48    57    56    1
    49    57    60    1
    50    19    16    1
    51    19    20    1
    52    26    23    1
    53    16    17    1
    54    65    63   ar
    55    65    66   ar
    56    63    61   ar
    57    66    64   ar
    58   105   106    2
    59    61    60    1
    60    61    62   ar
    61    64    62   ar
    62    23    22    1
    63    23    24    1
    64    17    18    2
    65    24    25    2
    66    24    29   am
    67    29    30    1
    68    12    14   ar
    69    12    10   ar
    70    14    13   ar
    71    34    36    1
    72    34    33    1
    73   110   111    1
    74     9    10   ar
    75     9     7   ar
    76    10     8   ar
    77    30    33    1
    78    30    31    1
    79     3     4    2
    80     3     2    1
    81    13    11   ar
    82    37    38    1
    83    38    39    1
    84     7     6   ar
    85     8    11   ar
    86     8     6   ar
    87    33    35    1
    88     6     5    1
    89     2     5    1
    90     2     1    1
    91    31    32    2
    92   111   112    1
    93   111   114    1
    94   112   113    2
    95    39    40    2
    96    39    41   am
    97   114   115    1
    98    55    53    1
    99    41    42    1
   100    53    54    1
   101    53    52    1
   102   116   115    1
   103   115   117    1
   104    48    49    1
   105   136   134    1
   106    49    52    1
   107    49    50    1
   108    42    43    1
   109    42    45    1
   110   135   133    1
   111    47    45    1
   112   134   133    1
   113    43    44    2
   114    45    46    1
   115   133   130    1
   116    50    51    2
   117   126   124   ar
   118   126   128   ar
   119   124   123   ar
   120   130   131    1
   121   130   129    1
   122   132   131    2
   123   143   144    1
   124   143   142    1
   125   131   137   am
   126   128   127   ar
   127   123   122    1
   128   123   125   ar
   129   119   122    1
   130   119   118    1
   131   119   120    1
   132   137   138    1
   133   142   141    1
   134   121   120    2
   135   127   125   ar
   136   138   141    1
   137   138   139    1
   138   139   140    2
