@<TRIPOS>MOLECULE
tmp/5y78B20.pdb
 114 109 0 0 0
SMALL
GASTEIGER

@<TRIPOS>ATOM
      1  N         30.5260  232.1920  -32.5450 N.3    43  THR43      -0.1203
      2  CA        29.8760  233.4530  -32.2000 C.3    43  THR43       0.1994
      3  C         29.8790  234.4150  -33.3820 C.2    43  THR43       0.2617
      4  O         28.8750  235.0870  -33.6470 O.2    43  THR43      -0.2717
      5  CB        30.5660  234.0860  -30.9890 C.3    43  THR43       0.1784
      6  OG1       30.3860  233.2480  -29.8410 O.3    43  THR43      -0.2211
      7  CG2       29.9900  235.4680  -30.6970 C.3    43  THR43       0.0376
      8  N         30.9990  234.4930  -34.1040 N.am   44  ILE44      -0.1979
      9  CA        31.0700  235.3390  -35.2930 C.3    44  ILE44       0.1595
     10  C         30.0230  234.9120  -36.3140 C.2    44  ILE44       0.2287
     11  O         29.3730  235.7520  -36.9490 O.2    44  ILE44      -0.2864
     12  CB        32.4900  235.2990  -35.8880 C.3    44  ILE44       0.0276
     13  CG1       33.4710  236.0480  -34.9850 C.3    44  ILE44       0.0022
     14  CG2       32.5070  235.8710  -37.2970 C.3    44  ILE44       0.0022
     15  CD1       34.9130  235.9290  -35.4280 C.3    44  ILE44       0.0001
     16  N         26.7300  236.2370  -35.3250 N.3    47  GLY47      -0.1210
     17  CA        26.6620  237.6810  -35.4830 C.3    47  GLY47       0.1956
     18  C         26.5930  238.1120  -36.9340 C.2    47  GLY47       0.2611
     19  O         25.8500  239.0350  -37.2820 O.2    47  GLY47      -0.2717
     20  N         27.3710  237.4600  -37.8000 N.am   48  VAL48      -0.1979
     21  CA        27.3030  237.7590  -39.2280 C.3    48  VAL48       0.1595
     22  C         25.9080  237.4630  -39.7630 C.2    48  VAL48       0.2287
     23  O         25.3720  238.2100  -40.5920 O.2    48  VAL48      -0.2864
     24  CB        28.3910  236.9770  -39.9890 C.3    48  VAL48       0.0276
     25  CG1       28.1470  237.0340  -41.4890 C.3    48  VAL48       0.0022
     26  CG2       29.7630  237.5400  -39.6550 C.3    48  VAL48       0.0022
     27  N         23.1630  237.6140  -37.8950 N.3    50  ALA50      -0.1231
     28  CA        22.3510  238.6920  -37.3410 C.3    50  ALA50       0.1694
     29  C         22.4770  239.9610  -38.1720 C.2    50  ALA50       0.2591
     30  O         21.4790  240.6390  -38.4410 O.2    50  ALA50      -0.2718
     31  CB        22.7590  238.9620  -35.8920 C.3    50  ALA50       0.0304
     32  N         23.6970  240.2940  -38.5950 N.am   51  LEU51      -0.1980
     33  CA        23.9080  241.4980  -39.3910 C.3    51  LEU51       0.1596
     34  C         23.2870  241.3600  -40.7760 C.2    51  LEU51       0.2287
     35  O         22.6930  242.3130  -41.2930 O.2    51  LEU51      -0.2864
     36  CB        25.4040  241.7910  -39.4960 C.3    51  LEU51       0.0297
     37  CG        25.8040  243.0670  -40.2330 C.3    51  LEU51       0.0022
     38  CD1       25.2540  244.2850  -39.5100 C.3    51  LEU51       0.0001
     39  CD2       27.3150  243.1490  -40.3640 C.3    51  LEU51       0.0001
     40  N         19.5520  242.0010  -40.4590 N.3    54  THR54      -0.1218
     41  CA        19.2240  243.4020  -40.2220 C.3    54  THR54       0.1862
     42  C         19.3700  244.2340  -41.4890 C.2    54  THR54       0.2287
     43  O         18.6140  245.1910  -41.6900 O.2    54  THR54      -0.2866
     44  CB        20.1010  243.9750  -39.1100 C.3    54  THR54       0.1770
     45  OG1       21.4790  243.8700  -39.4840 O.3    54  THR54      -0.2211
     46  CG2       19.8760  243.2130  -37.8200 C.3    54  THR54       0.0375
     47  N         16.2010  243.8280  -43.4540 N.3    57  TRP57      -0.1227
     48  CA        15.1250  244.6110  -42.8520 C.3    57  TRP57       0.1737
     49  C         15.2980  246.0990  -43.1400 C.2    57  TRP57       0.2595
     50  O         14.3390  246.7860  -43.5110 O.2    57  TRP57      -0.2718
     51  CB        15.0770  244.3640  -41.3430 C.3    57  TRP57       0.0564
     52  CG        14.5530  243.0190  -40.9500 C.ar   57  TRP57       0.0003
     53  CD1       13.6680  242.2450  -41.6420 C.ar   57  TRP57       0.0946
     54  CD2       14.8900  242.2840  -39.7690 C.ar   57  TRP57       0.0152
     55  NE1       13.4300  241.0740  -40.9630 N.ar   57  TRP57      -0.2442
     56  CE2       14.1690  241.0740  -39.8090 C.ar   57  TRP57       0.0810
     57  CE3       15.7310  242.5330  -38.6800 C.ar   57  TRP57       0.0012
     58  CZ2       14.2660  240.1140  -38.8040 C.ar   57  TRP57       0.0191
     59  CZ3       15.8240  241.5810  -37.6830 C.ar   57  TRP57       0.0001
     60  CH2       15.0950  240.3870  -37.7510 C.ar   57  TRP57       0.0015
     61  N         16.5190  246.6130  -42.9670 N.am   58  VAL58      -0.1980
     62  CA        16.7640  248.0430  -43.1370 C.3    58  VAL58       0.1595
     63  C         16.5610  248.4570  -44.5900 C.2    58  VAL58       0.2287
     64  O         16.0010  249.5230  -44.8730 O.2    58  VAL58      -0.2864
     65  CB        18.1750  248.4020  -42.6340 C.3    58  VAL58       0.0276
     66  CG1       18.5700  249.7940  -43.0970 C.3    58  VAL58       0.0022
     67  CG2       18.2330  248.3120  -41.1160 C.3    58  VAL58       0.0022
     68  N          9.5960  243.1770  -41.9820 N.3    64  LYS64      -0.1245
     69  CA        10.0690  243.2450  -40.6060 C.3    64  LYS64       0.1561
     70  C          9.0780  242.5550  -39.6720 C.2    64  LYS64       0.2260
     71  O          7.8660  242.7440  -39.8010 O.2    64  LYS64      -0.2867
     72  CB        10.2650  244.6950  -40.1700 C.3    64  LYS64       0.0271
     73  CG        11.4910  245.3560  -40.7720 C.3    64  LYS64       0.0035
     74  CD        11.9110  246.5710  -39.9630 C.3    64  LYS64       0.0206
     75  CE        11.4010  247.8560  -40.5850 C.3    64  LYS64       0.1093
     76  NZ        12.1020  248.1590  -41.8640 N.3    64  LYS64      -0.1314
     77  N         19.8830  236.4050  -33.6050 N.3   195  ILE195     -0.1245
     78  CA        20.1940  237.6340  -32.8800 C.3   195  ILE195      0.1561
     79  C         20.3080  237.3510  -31.3880 C.2   195  ILE195      0.2260
     80  O         21.3010  237.7090  -30.7450 O.2   195  ILE195     -0.2867
     81  CB        19.1360  238.7150  -33.1650 C.3   195  ILE195      0.0252
     82  CG1       19.2340  239.1970  -34.6130 C.3   195  ILE195      0.0019
     83  CG2       19.2870  239.8790  -32.2000 C.3   195  ILE195      0.0019
     84  CD1       18.1850  240.2270  -34.9820 C.3   195  ILE195      0.0001
     85  N         23.3290  235.1070  -30.6940 N.3   198  PHE198     -0.1227
     86  CA        24.6030  235.8160  -30.7580 C.3   198  PHE198      0.1736
     87  C         24.9480  236.4520  -29.4180 C.2   198  PHE198      0.2595
     88  O         26.0640  236.2920  -28.9100 O.2   198  PHE198     -0.2718
     89  CB        24.5620  236.8780  -31.8570 C.3   198  PHE198      0.0547
     90  CG        25.7290  237.8260  -31.8250 C.ar  198  PHE198     -0.0202
     91  CD1       27.0150  237.3700  -32.0710 C.ar  198  PHE198     -0.0042
     92  CD2       25.5410  239.1720  -31.5510 C.ar  198  PHE198     -0.0042
     93  CE1       28.0920  238.2390  -32.0440 C.ar  198  PHE198     -0.0003
     94  CE2       26.6160  240.0460  -31.5200 C.ar  198  PHE198     -0.0003
     95  CZ        27.8910  239.5790  -31.7680 C.ar  198  PHE198     -0.0000
     96  N         24.0000  237.1830  -28.8280 N.am  199  PHE199     -0.1976
     97  CA        24.2770  237.8540  -27.5650 C.3   199  PHE199      0.1639
     98  C         24.3030  236.8840  -26.3920 C.2   199  PHE199      0.2290
     99  O         24.8930  237.2020  -25.3540 O.2   199  PHE199     -0.2864
    100  CB        23.2540  238.9630  -27.3200 C.3   199  PHE199      0.0560
    101  CG        23.4340  240.1570  -28.2140 C.ar  199  PHE199     -0.0200
    102  CD1       24.4910  241.0340  -28.0180 C.ar  199  PHE199     -0.0042
    103  CD2       22.5490  240.4040  -29.2480 C.ar  199  PHE199     -0.0042
    104  CE1       24.6600  242.1360  -28.8390 C.ar  199  PHE199     -0.0003
    105  CE2       22.7100  241.5020  -30.0710 C.ar  199  PHE199     -0.0003
    106  CZ        23.7670  242.3700  -29.8670 C.ar  199  PHE199     -0.0000
    107  N         28.1070  235.4760  -26.9440 N.3   202  LEU202     -0.1245
    108  CA        29.2090  236.4400  -26.9840 C.3   202  LEU202      0.1561
    109  C         30.0000  236.5430  -25.6840 C.2   202  LEU202      0.2260
    110  O         31.2380  236.4790  -25.7430 O.2   202  LEU202     -0.2867
    111  CB        28.6700  237.8180  -27.3930 C.3   202  LEU202      0.0270
    112  CG        29.7340  238.9150  -27.4980 C.3   202  LEU202      0.0019
    113  CD1       30.8160  238.5070  -28.4860 C.3   202  LEU202      0.0001
    114  CD2       29.1140  240.2480  -27.8960 C.3   202  LEU202      0.0001
@<TRIPOS>BOND
     1    64    63    2
     2    63    62    1
     3    50    49    2
     4    47    48    1
     5    49    61   am
     6    49    48    1
     7    62    61    1
     8    62    65    1
     9    66    65    1
    10    48    51    1
    11    65    67    1
    12    68    69    1
    13    76    75    1
    14    43    42    2
    15    53    55   ar
    16    53    52   ar
    17    42    41    1
    18    25    24    1
    19    51    52    1
    20    35    34    2
    21    55    56   ar
    22    52    54   ar
    23    34    33    1
    24    73    72    1
    25    73    74    1
    26    69    72    1
    27    69    70    1
    28    23    22    2
    29    75    74    1
    30    40    41    1
    31    39    37    1
    32    37    38    1
    33    37    36    1
    34    41    44    1
    35    24    26    1
    36    24    21    1
    37    56    54   ar
    38    56    58   ar
    39    71    70    2
    40    54    57   ar
    41    22    21    1
    42    36    33    1
    43    45    44    1
    44    33    32    1
    45    21    20    1
    46    44    46    1
    47    58    60   ar
    48    57    59   ar
    49    32    29   am
    50    30    29    2
    51    29    28    1
    52    27    28    1
    53    20    18   am
    54    60    59   ar
    55    28    31    1
    56    14    12    1
    57    19    18    2
    58    11    10    2
    59    18    17    1
    60    10     9    1
    61    12     9    1
    62    12    13    1
    63    17    16    1
    64    15    13    1
    65     9     8    1
    66    84    82    1
    67    82    81    1
    68     8     3   am
    69     4     3    2
    70    77    78    1
    71     3     2    1
    72    81    78    1
    73    81    83    1
    74    78    79    1
    75     1     2    1
    76     2     5    1
    77    91    93   ar
    78    91    90   ar
    79    93    95   ar
    80    89    90    1
    81    89    86    1
    82    90    92   ar
    83    95    94   ar
    84    92    94   ar
    85    79    80    2
    86     5     7    1
    87     5     6    1
    88    86    85    1
    89    86    87    1
    90   105   106   ar
    91   105   103   ar
    92   106   104   ar
    93    87    88    2
    94    87    96   am
    95   103   101   ar
    96   104   102   ar
    97    96    97    1
    98   113   112    1
    99   101   102   ar
   100   101   100    1
   101   114   112    1
   102    97   100    1
   103    97    98    1
   104   112   111    1
   105   111   108    1
   106   108   107    1
   107   108   109    1
   108    98    99    2
   109   110   109    2
