@<TRIPOS>MOLECULE
tmp/5y78B00.pdb
 88 87 0 0 0
SMALL
GASTEIGER

@<TRIPOS>ATOM
      1  N         34.7330  228.7450  -29.9380 N.3    39  TRP39      -0.1241
      2  CA        33.7880  229.6400  -29.2730 C.3    39  TRP39       0.1605
      3  C         33.6270  230.9430  -30.0470 C.2    39  TRP39       0.2264
      4  O         32.5040  231.3890  -30.3130 O.2    39  TRP39      -0.2867
      5  CB        34.2430  229.9260  -27.8410 C.3    39  TRP39       0.0550
      6  CG        33.9400  228.8310  -26.8600 C.ar   39  TRP39       0.0003
      7  CD1       34.8130  227.9010  -26.3720 C.ar   39  TRP39       0.0946
      8  CD2       32.6770  228.5610  -26.2390 C.ar   39  TRP39       0.0152
      9  NE1       34.1700  227.0670  -25.4890 N.ar   39  TRP39      -0.2442
     10  CE2       32.8580  227.4500  -25.3900 C.ar   39  TRP39       0.0810
     11  CE3       31.4100  229.1490  -26.3200 C.ar   39  TRP39       0.0012
     12  CZ2       31.8200  226.9150  -24.6290 C.ar   39  TRP39       0.0191
     13  CZ3       30.3810  228.6160  -25.5630 C.ar   39  TRP39       0.0001
     14  CH2       30.5930  227.5110  -24.7290 C.ar   39  TRP39       0.0015
     15  N         18.3250  229.1880  -26.6880 N.3    80  LEU80      -0.1245
     16  CA        19.1940  228.4270  -25.7960 C.3    80  LEU80       0.1561
     17  C         19.6370  227.1230  -26.4470 C.2    80  LEU80       0.2260
     18  O         20.8200  226.7690  -26.4110 O.2    80  LEU80      -0.2867
     19  CB        18.4800  228.1520  -24.4720 C.3    80  LEU80       0.0270
     20  CG        18.3510  229.3140  -23.4860 C.3    80  LEU80       0.0019
     21  CD1       17.4080  228.9470  -22.3500 C.3    80  LEU80       0.0001
     22  CD2       19.7140  229.7110  -22.9420 C.3    80  LEU80       0.0001
     23  N         22.0830  228.0450  -29.3830 N.3    83  THR83      -0.1203
     24  CA        23.4040  228.4800  -28.9390 C.3    83  THR83       0.1994
     25  C         24.2170  227.3080  -28.4040 C.2    83  THR83       0.2617
     26  O         25.3940  227.1440  -28.7460 O.2    83  THR83      -0.2717
     27  CB        23.2670  229.5660  -27.8710 C.3    83  THR83       0.1784
     28  OG1       22.4790  230.6450  -28.3850 O.3    83  THR83      -0.2211
     29  CG2       24.6330  230.0950  -27.4710 C.3    83  THR83       0.0376
     30  N         23.6000  226.4780  -27.5630 N.am   84  LEU84      -0.1979
     31  CA        24.3160  225.3500  -26.9780 C.3    84  LEU84       0.1596
     32  C         24.6970  224.3240  -28.0400 C.2    84  LEU84       0.2287
     33  O         25.8140  223.7950  -28.0250 O.2    84  LEU84      -0.2864
     34  CB        23.4650  224.7090  -25.8830 C.3    84  LEU84       0.0297
     35  CG        24.0790  223.5270  -25.1340 C.3    84  LEU84       0.0022
     36  CD1       25.4870  223.8530  -24.6580 C.3    84  LEU84       0.0001
     37  CD2       23.1960  223.1470  -23.9600 C.3    84  LEU84       0.0001
     38  N         27.5050  225.9670  -30.3370 N.3    87  ALA87      -0.1245
     39  CA        28.7980  226.0250  -29.6590 C.3    87  ALA87       0.1562
     40  C         29.3760  224.6300  -29.4400 C.2    87  ALA87       0.2260
     41  O         30.5920  224.4320  -29.5520 O.2    87  ALA87      -0.2867
     42  CB        28.6630  226.7690  -28.3310 C.3    87  ALA87       0.0290
     43  N         24.0000  237.1830  -28.8280 N.3   199  PHE199     -0.1227
     44  CA        24.2770  237.8540  -27.5650 C.3   199  PHE199      0.1736
     45  C         24.3030  236.8840  -26.3920 C.2   199  PHE199      0.2595
     46  O         24.8930  237.2020  -25.3540 O.2   199  PHE199     -0.2718
     47  CB        23.2540  238.9630  -27.3200 C.3   199  PHE199      0.0547
     48  CG        23.4340  240.1570  -28.2140 C.ar  199  PHE199     -0.0202
     49  CD1       24.4910  241.0340  -28.0180 C.ar  199  PHE199     -0.0042
     50  CD2       22.5490  240.4040  -29.2480 C.ar  199  PHE199     -0.0042
     51  CE1       24.6600  242.1360  -28.8390 C.ar  199  PHE199     -0.0003
     52  CE2       22.7100  241.5020  -30.0710 C.ar  199  PHE199     -0.0003
     53  CZ        23.7670  242.3700  -29.8670 C.ar  199  PHE199     -0.0000
     54  N         23.6840  235.7110  -26.5320 N.am  200  MET200     -0.1965
     55  CA        23.8310  234.6870  -25.5050 C.3   200  MET200      0.1736
     56  C         25.2420  234.1140  -25.5000 C.2   200  MET200      0.2616
     57  O         25.8090  233.8530  -24.4330 O.2   200  MET200     -0.2715
     58  CB        22.8090  233.5730  -25.7170 C.3   200  MET200      0.0427
     59  CG        21.3990  233.8970  -25.2510 C.3   200  MET200      0.0599
     60  SD        20.2870  232.5120  -25.5700 S.3   200  MET200     -0.1393
     61  CE        18.8320  233.0010  -24.6450 C.3   200  MET200      0.0692
     62  N         25.8300  233.9160  -26.6810 N.am  201  GLU201     -0.1977
     63  CA        27.1210  233.2440  -26.7510 C.3   201  GLU201      0.1602
     64  C         28.2890  234.2050  -26.5790 C.2   201  GLU201      0.2287
     65  O         29.3540  233.7910  -26.1060 O.2   201  GLU201     -0.2864
     66  CB        27.2600  232.5010  -28.0810 C.3   201  GLU201      0.0415
     67  CG        28.2730  231.3700  -28.0340 C.3   201  GLU201      0.1163
     68  CD        28.6210  230.8310  -29.4050 C.2   201  GLU201      0.3649
     69  OE1       29.6690  230.1590  -29.5270 O.co2 201  GLU201     -0.2457
     70  OE2       27.8580  231.0840  -30.3590 O.co2 201  GLU201     -0.2457
     71  N         29.3860  236.7110  -24.5050 N.3   203  PRO203     -0.2102
     72  CA        30.2180  236.8310  -23.2960 C.3   203  PRO203      0.1504
     73  C         30.9610  235.5520  -22.9590 C.2   203  PRO203      0.2575
     74  O         32.1040  235.6150  -22.4900 O.2   203  PRO203     -0.2718
     75  CB        29.2030  237.2140  -22.2110 C.3   203  PRO203      0.0282
     76  CG        27.9220  236.6430  -22.6870 C.3   203  PRO203      0.0208
     77  CD        27.9490  236.7980  -24.1820 C.3   203  PRO203      0.0893
     78  N         30.3470  234.3870  -23.1870 N.am  204  PHE204     -0.1977
     79  CA        31.0520  233.1300  -22.9580 C.3   204  PHE204      0.1639
     80  C         32.2380  232.9840  -23.9030 C.2   204  PHE204      0.2290
     81  O         33.3160  232.5410  -23.4910 O.2   204  PHE204     -0.2864
     82  CB        30.0940  231.9490  -23.1160 C.3   204  PHE204      0.0560
     83  CG        29.0230  231.8900  -22.0640 C.ar  204  PHE204     -0.0200
     84  CD1       29.2430  231.2310  -20.8650 C.ar  204  PHE204     -0.0042
     85  CD2       27.7930  232.4900  -22.2770 C.ar  204  PHE204     -0.0042
     86  CE1       28.2550  231.1740  -19.8960 C.ar  204  PHE204     -0.0003
     87  CE2       26.8020  232.4370  -21.3140 C.ar  204  PHE204     -0.0003
     88  CZ        27.0330  231.7780  -20.1220 C.ar  204  PHE204     -0.0000
@<TRIPOS>BOND
     1    70    68   ar
     2    38    39    1
     3     4     3    2
     4    52    53   ar
     5    52    50   ar
     6     3     2    1
     7     1     2    1
     8    53    51   ar
     9    39    40    1
    10    39    42    1
    11    41    40    2
    12    69    68   ar
    13    68    67    1
    14    23    24    1
    15     2     5    1
    16    50    48   ar
    17    24    25    1
    18    24    27    1
    19    51    49   ar
    20    43    44    1
    21    26    25    2
    22    25    30   am
    23    28    27    1
    24    48    49   ar
    25    48    47    1
    26    66    67    1
    27    66    63    1
    28    32    33    2
    29    32    31    1
    30    27    29    1
    31     5     6    1
    32    44    47    1
    33    44    45    1
    34    30    31    1
    35    31    34    1
    36     6     7   ar
    37     6     8   ar
    38    63    62    1
    39    63    64    1
    40    15    16    1
    41    62    56   am
    42    64    65    2
    43    54    45   am
    44    54    55    1
    45    17    18    2
    46    17    16    1
    47    45    46    2
    48     7     9   ar
    49    11     8   ar
    50    11    13   ar
    51     8    10   ar
    52    34    35    1
    53    16    19    1
    54    58    55    1
    55    58    59    1
    56    60    59    1
    57    60    61    1
    58    13    14   ar
    59    55    56    1
    60    56    57    2
    61     9    10   ar
    62    10    12   ar
    63    35    36    1
    64    35    37    1
    65    14    12   ar
    66    71    77    1
    67    71    72    1
    68    19    20    1
    69    77    76    1
    70    80    81    2
    71    80    79    1
    72    20    22    1
    73    20    21    1
    74    72    73    1
    75    72    75    1
    76    78    73   am
    77    78    79    1
    78    82    79    1
    79    82    83    1
    80    73    74    2
    81    76    75    1
    82    85    83   ar
    83    85    87   ar
    84    83    84   ar
    85    87    88   ar
    86    84    86   ar
    87    88    86   ar
