@<TRIPOS>MOLECULE
tmp/5y78B17.pdb
 91 86 0 0 0
SMALL
GASTEIGER

@<TRIPOS>ATOM
      1  N         16.6880  210.0090  -33.2000 N.3   110  VAL110     -0.1231
      2  CA        16.2930  209.2740  -32.0010 C.3   110  VAL110      0.1692
      3  C         15.9580  210.2440  -30.8760 C.2   110  VAL110      0.2592
      4  O         14.9030  210.1420  -30.2390 O.2   110  VAL110     -0.2718
      5  CB        17.3920  208.2800  -31.5830 C.3   110  VAL110      0.0266
      6  CG1       16.9910  207.5750  -30.3000 C.3   110  VAL110      0.0020
      7  CG2       17.6380  207.2700  -32.6900 C.3   110  VAL110      0.0020
      8  N         16.8520  211.2020  -30.6190 N.am  111  PHE111     -0.1976
      9  CA        16.5700  212.2400  -29.6330 C.3   111  PHE111      0.1639
     10  C         15.3160  213.0210  -30.0040 C.2   111  PHE111      0.2290
     11  O         14.5160  213.3780  -29.1320 O.2   111  PHE111     -0.2864
     12  CB        17.7680  213.1850  -29.5050 C.3   111  PHE111      0.0560
     13  CG        19.0250  212.5180  -29.0150 C.ar  111  PHE111     -0.0200
     14  CD1       19.8660  211.8540  -29.8960 C.ar  111  PHE111     -0.0042
     15  CD2       19.3730  212.5680  -27.6760 C.ar  111  PHE111     -0.0042
     16  CE1       21.0230  211.2430  -29.4460 C.ar  111  PHE111     -0.0003
     17  CE2       20.5280  211.9610  -27.2210 C.ar  111  PHE111     -0.0003
     18  CZ        21.3540  211.2970  -28.1080 C.ar  111  PHE111     -0.0000
     19  N         12.1180  210.9750  -29.1680 N.3   114  VAL114     -0.1231
     20  CA        11.8630  210.9490  -27.7290 C.3   114  VAL114      0.1692
     21  C         11.3120  212.2910  -27.2630 C.2   114  VAL114      0.2592
     22  O         10.3310  212.3540  -26.5130 O.2   114  VAL114     -0.2718
     23  CB        13.1420  210.5620  -26.9640 C.3   114  VAL114      0.0266
     24  CG1       12.9260  210.6820  -25.4630 C.3   114  VAL114      0.0020
     25  CG2       13.5660  209.1490  -27.3330 C.3   114  VAL114      0.0020
     26  N         11.9270  213.3870  -27.7160 N.am  115  GLY115     -0.1957
     27  CA        11.4600  214.7060  -27.3140 C.3   115  GLY115      0.1869
     28  C         10.0380  214.9910  -27.7610 C.2   115  GLY115      0.2309
     29  O          9.2520  215.5870  -27.0200 O.2   115  GLY115     -0.2863
     30  N          7.6230  212.6920  -25.7570 N.3   118  LEU118     -0.1231
     31  CA         7.5400  213.1840  -24.3870 C.3   118  LEU118      0.1693
     32  C          6.5710  214.3560  -24.2840 C.2   118  LEU118      0.2591
     33  O          5.7830  214.4410  -23.3350 O.2   118  LEU118     -0.2718
     34  CB         8.9350  213.5830  -23.9070 C.3   118  LEU118      0.0284
     35  CG         9.2260  213.6830  -22.4120 C.3   118  LEU118      0.0019
     36  CD1        8.7410  212.4420  -21.6850 C.3   118  LEU118      0.0001
     37  CD2       10.7190  213.8740  -22.1980 C.3   118  LEU118      0.0001
     38  N          6.6040  215.2600  -25.2640 N.am  119  VAL119     -0.1980
     39  CA         5.7090  216.4120  -25.2460 C.3   119  VAL119      0.1595
     40  C          4.2910  215.9970  -25.6140 C.2   119  VAL119      0.2287
     41  O          3.3160  216.4540  -25.0040 O.2   119  VAL119     -0.2864
     42  CB         6.2320  217.5060  -26.1910 C.3   119  VAL119      0.0276
     43  CG1        5.1850  218.5840  -26.3560 C.3   119  VAL119      0.0022
     44  CG2        7.5280  218.0880  -25.6620 C.3   119  VAL119      0.0022
     45  N         20.8910  216.8340  -28.2770 N.3   162  VAL162     -0.1245
     46  CA        19.8630  217.2230  -27.3180 C.3   162  VAL162      0.1561
     47  C         19.4980  218.6920  -27.4880 C.2   162  VAL162      0.2260
     48  O         18.3180  219.0610  -27.4500 O.2   162  VAL162     -0.2867
     49  CB        20.3380  216.9120  -25.8880 C.3   162  VAL162      0.0252
     50  CG1       19.3260  217.4050  -24.8650 C.3   162  VAL162      0.0019
     51  CG2       20.5810  215.4210  -25.7330 C.3   162  VAL162      0.0019
     52  N         17.5270  219.3240  -30.8690 N.3   165  VAL165     -0.1231
     53  CA        16.1750  218.7860  -30.7450 C.3   165  VAL165      0.1692
     54  C         15.3190  219.7040  -29.8820 C.2   165  VAL165      0.2592
     55  O         14.1560  219.9810  -30.2030 O.2   165  VAL165     -0.2718
     56  CB        16.2200  217.3510  -30.1850 C.3   165  VAL165      0.0266
     57  CG1       14.8610  216.9450  -29.6360 C.3   165  VAL165      0.0020
     58  CG2       16.6700  216.3790  -31.2660 C.3   165  VAL165      0.0020
     59  N         15.8840  220.1950  -28.7760 N.am  166  THR166     -0.1953
     60  CA        15.1960  221.1970  -27.9700 C.3   166  THR166      0.1897
     61  C         14.8800  222.4380  -28.7940 C.2   166  THR166      0.2313
     62  O         13.7730  222.9850  -28.7110 O.2   166  THR166     -0.2863
     63  CB        16.0460  221.5620  -26.7530 C.3   166  THR166      0.1794
     64  OG1       16.2900  220.3880  -25.9680 O.3   166  THR166     -0.2208
     65  CG2       15.3370  222.5970  -25.8950 C.3   166  THR166      0.0378
     66  N         11.9700  221.5530  -31.4440 N.3   169  ILE169     -0.1231
     67  CA        10.6450  221.3620  -30.8620 C.3   169  ILE169      0.1692
     68  C         10.0790  222.6900  -30.3750 C.2   169  ILE169      0.2592
     69  O          8.9510  223.0650  -30.7180 O.2   169  ILE169     -0.2718
     70  CB        10.7000  220.3180  -29.7320 C.3   169  ILE169      0.0266
     71  CG1       11.0230  218.9370  -30.3070 C.3   169  ILE169      0.0019
     72  CG2        9.3860  220.2910  -28.9640 C.3   169  ILE169      0.0020
     73  CD1       11.2120  217.8680  -29.2580 C.3   169  ILE169      0.0001
     74  N         10.8530  223.4240  -29.5730 N.am  170  THR170     -0.1953
     75  CA        10.3620  224.6950  -29.0480 C.3   170  THR170      0.1897
     76  C         10.1670  225.7240  -30.1550 C.2   170  THR170      0.2313
     77  O          9.2530  226.5540  -30.0690 O.2   170  THR170     -0.2863
     78  CB        11.3150  225.2320  -27.9790 C.3   170  THR170      0.1794
     79  OG1       12.6260  225.3910  -28.5340 O.3   170  THR170     -0.2208
     80  CG2       11.3810  224.2740  -26.7980 C.3   170  THR170      0.0378
     81  N          6.7760  224.9660  -31.8320 N.3   173  PHE173     -0.1241
     82  CA         5.6910  225.4990  -31.0120 C.3   173  PHE173      0.1605
     83  C          5.4810  226.9820  -31.2830 C.2   173  PHE173      0.2264
     84  O          4.3630  227.4220  -31.5750 O.2   173  PHE173     -0.2867
     85  CB         5.9870  225.2730  -29.5300 C.3   173  PHE173      0.0534
     86  CG         5.9230  223.8390  -29.1110 C.ar  173  PHE173     -0.0203
     87  CD1        5.1820  222.9250  -29.8390 C.ar  173  PHE173     -0.0042
     88  CD2        6.6010  223.4040  -27.9870 C.ar  173  PHE173     -0.0042
     89  CE1        5.1200  221.6060  -29.4540 C.ar  173  PHE173     -0.0003
     90  CE2        6.5420  222.0850  -27.5980 C.ar  173  PHE173     -0.0003
     91  CZ         5.8030  221.1870  -28.3350 C.ar  173  PHE173     -0.0000
@<TRIPOS>BOND
     1     1     2    1
     2     7     5    1
     3     2     5    1
     4     2     3    1
     5    81    82    1
     6     5     6    1
     7    84    83    2
     8    66    67    1
     9    83    82    1
    10    58    56    1
    11    82    85    1
    12     3     8   am
    13     3     4    2
    14    52    53    1
    15    67    68    1
    16    67    70    1
    17    53    56    1
    18    53    54    1
    19    69    68    2
    20     8     9    1
    21    68    74   am
    22    71    70    1
    23    71    73    1
    24    55    54    2
    25    56    57    1
    26    76    77    2
    27    76    75    1
    28    10     9    1
    29    10    11    2
    30    14    16   ar
    31    14    13   ar
    32    54    59   am
    33    87    89   ar
    34    87    86   ar
    35    70    72    1
    36     9    12    1
    37    74    75    1
    38    85    86    1
    39    12    13    1
    40    89    91   ar
    41    16    18   ar
    42    19    20    1
    43    86    88   ar
    44    75    78    1
    45    13    15   ar
    46    61    62    2
    47    61    60    1
    48    59    60    1
    49    79    78    1
    50    91    90   ar
    51    45    46    1
    52    18    17   ar
    53    88    90   ar
    54    78    80    1
    55    60    63    1
    56    28    27    1
    57    28    29    2
    58    20    21    1
    59    20    23    1
    60    26    27    1
    61    26    21   am
    62    15    17   ar
    63    47    48    2
    64    47    46    1
    65    25    23    1
    66    46    49    1
    67    21    22    2
    68    23    24    1
    69    63    64    1
    70    63    65    1
    71    43    42    1
    72    42    44    1
    73    42    39    1
    74    49    51    1
    75    49    50    1
    76    30    31    1
    77    40    39    1
    78    40    41    2
    79    38    39    1
    80    38    32   am
    81    31    32    1
    82    31    34    1
    83    32    33    2
    84    34    35    1
    85    35    37    1
    86    35    36    1
