@<TRIPOS>MOLECULE
tmp/5y78A12.pdb
 166 157 0 0 0
SMALL
GASTEIGER

@<TRIPOS>ATOM
      1  N         33.8700  191.0930  -11.8330 N.3    99  SER99      -0.1202
      2  CA        33.1200  192.2750  -11.4220 C.3    99  SER99       0.2020
      3  C         32.6670  193.0830  -12.6320 C.2    99  SER99       0.2618
      4  O         31.5690  193.6510  -12.6330 O.2    99  SER99      -0.2717
      5  CB        33.9680  193.1320  -10.4810 C.3    99  SER99       0.2103
      6  OG        35.2520  193.3730  -11.0320 O.3    99  SER99      -0.2182
      7  N         33.4950  193.1360  -13.6800 N.am  100  PHE100     -0.1975
      8  CA        33.0960  193.8390  -14.8950 C.3   100  PHE100      0.1639
      9  C         32.0430  193.0530  -15.6670 C.2   100  PHE100      0.2290
     10  O         31.1410  193.6440  -16.2730 O.2   100  PHE100     -0.2864
     11  CB        34.3160  194.1160  -15.7720 C.3   100  PHE100      0.0560
     12  CG        33.9770  194.7710  -17.0800 C.ar  100  PHE100     -0.0200
     13  CD1       33.4280  196.0420  -17.1090 C.ar  100  PHE100     -0.0042
     14  CD2       34.2040  194.1160  -18.2790 C.ar  100  PHE100     -0.0042
     15  CE1       33.1080  196.6500  -18.3100 C.ar  100  PHE100     -0.0003
     16  CE2       33.8910  194.7180  -19.4850 C.ar  100  PHE100     -0.0003
     17  CZ        33.3410  195.9870  -19.5010 C.ar  100  PHE100     -0.0000
     18  N         28.8130  193.8580  -14.1100 N.3   103  VAL103     -0.1245
     19  CA        28.3770  195.2090  -14.4430 C.3   103  VAL103      0.1561
     20  C         27.6370  195.2080  -15.7740 C.2   103  VAL103      0.2260
     21  O         26.5610  195.8060  -15.9040 O.2   103  VAL103     -0.2867
     22  CB        29.5790  196.1760  -14.4550 C.3   103  VAL103      0.0252
     23  CG1       29.2180  197.4720  -15.1590 C.3   103  VAL103      0.0019
     24  CG2       30.0400  196.4670  -13.0360 C.3   103  VAL103      0.0019
     25  N         32.3670  202.7380  -17.3710 N.3   142  SER142     -0.1217
     26  CA        32.9510  201.6090  -16.6570 C.3   142  SER142      0.1889
     27  C         33.9030  200.8280  -17.5530 C.2   142  SER142      0.2288
     28  O         35.0080  200.4660  -17.1330 O.2   142  SER142     -0.2866
     29  CB        31.8430  200.7020  -16.1220 C.3   142  SER142      0.2089
     30  OG        32.3840  199.5510  -15.4980 O.3   142  SER142     -0.2183
     31  N         37.9420  200.1690  -17.0360 N.3   146  GLU146     -0.1245
     32  CA        38.1850  198.8230  -16.5280 C.3   146  GLU146      0.1567
     33  C         39.5600  198.3450  -16.9830 C.2   146  GLU146      0.2260
     34  O         39.8410  198.3010  -18.1850 O.2   146  GLU146     -0.2867
     35  CB        37.0910  197.8710  -17.0080 C.3   146  GLU146      0.0388
     36  CG        37.3480  196.3970  -16.7080 C.3   146  GLU146      0.1160
     37  CD        37.5710  196.1240  -15.2330 C.2   146  GLU146      0.3649
     38  OE1       38.5230  195.3870  -14.9000 O.co2 146  GLU146     -0.2457
     39  OE2       36.7960  196.6500  -14.4070 O.co2 146  GLU146     -0.2457
     40  N         20.1780  193.2290   -8.3430 N.3   262  ILE262     -0.1245
     41  CA        20.5230  193.3050   -6.9260 C.3   262  ILE262      0.1561
     42  C         21.6020  192.2820   -6.5940 C.2   262  ILE262      0.2260
     43  O         22.5460  192.5700   -5.8470 O.2   262  ILE262     -0.2867
     44  CB        19.2630  193.1100   -6.0610 C.3   262  ILE262      0.0252
     45  CG1       18.3080  194.2940   -6.2340 C.3   262  ILE262      0.0019
     46  CG2       19.6310  192.9290   -4.5970 C.3   262  ILE262      0.0019
     47  CD1       16.9910  194.1200   -5.5120 C.3   262  ILE262      0.0001
     48  N         25.1700  193.5510   -7.5990 N.3   265  VAL265     -0.1231
     49  CA        25.7860  194.4760   -6.6500 C.3   265  VAL265      0.1692
     50  C         26.4810  193.7020   -5.5380 C.2   265  VAL265      0.2591
     51  O         27.5820  194.0620   -5.1030 O.2   265  VAL265     -0.2718
     52  CB        24.7370  195.4540   -6.0880 C.3   265  VAL265      0.0266
     53  CG1       25.3980  196.4660   -5.1590 C.3   265  VAL265      0.0020
     54  CG2       24.0050  196.1580   -7.2180 C.3   265  VAL265      0.0020
     55  N         25.8590  192.6180   -5.0730 N.am  266  ILE266     -0.1980
     56  CA        26.4610  191.7970   -4.0270 C.3   266  ILE266      0.1595
     57  C         27.7100  191.0980   -4.5480 C.2   266  ILE266      0.2287
     58  O         28.7490  191.0660   -3.8780 O.2   266  ILE266     -0.2864
     59  CB        25.4320  190.7880   -3.4850 C.3   266  ILE266      0.0276
     60  CG1       24.2720  191.5250   -2.8120 C.3   266  ILE266      0.0022
     61  CG2       26.0890  189.8160   -2.5170 C.3   266  ILE266      0.0022
     62  CD1       23.1530  190.6110   -2.3530 C.3   266  ILE266      0.0001
     63  N         29.5590  191.9770   -7.1430 N.3   268  ILE268     -0.1231
     64  CA        30.5800  192.9710   -7.4660 C.3   268  ILE268      0.1692
     65  C         31.3320  193.3870   -6.2080 C.2   268  ILE268      0.2592
     66  O         32.5680  193.3990   -6.1790 O.2   268  ILE268     -0.2718
     67  CB        29.9480  194.1790   -8.1790 C.3   268  ILE268      0.0266
     68  CG1       29.5780  193.8060   -9.6160 C.3   268  ILE268      0.0019
     69  CG2       30.8940  195.3750   -8.1560 C.3   268  ILE268      0.0020
     70  CD1       28.5430  194.7200  -10.2380 C.3   268  ILE268      0.0001
     71  N         30.5960  193.7220   -5.1450 N.am  269  PHE269     -0.1976
     72  CA        31.2390  194.1080   -3.8920 C.3   269  PHE269      0.1639
     73  C         32.0710  192.9630   -3.3260 C.2   269  PHE269      0.2290
     74  O         33.2180  193.1590   -2.9070 O.2   269  PHE269     -0.2864
     75  CB        30.1900  194.5580   -2.8740 C.3   269  PHE269      0.0560
     76  CG        29.6940  195.9580   -3.0910 C.ar  269  PHE269     -0.0200
     77  CD1       30.3030  196.7900   -4.0160 C.ar  269  PHE269     -0.0042
     78  CD2       28.6250  196.4460   -2.3580 C.ar  269  PHE269     -0.0042
     79  CE1       29.8490  198.0800   -4.2130 C.ar  269  PHE269     -0.0003
     80  CE2       28.1650  197.7350   -2.5490 C.ar  269  PHE269     -0.0003
     81  CZ        28.7790  198.5540   -3.4780 C.ar  269  PHE269     -0.0000
     82  N         35.3370  192.0110   -5.6460 N.3   272  ILE272     -0.1245
     83  CA        36.4580  192.9460   -5.6160 C.3   272  ILE272      0.1561
     84  C         37.1630  192.8950   -4.2670 C.2   272  ILE272      0.2260
     85  O         38.3670  193.1650   -4.1820 O.2   272  ILE272     -0.2867
     86  CB        36.0070  194.3770   -5.9680 C.3   272  ILE272      0.0252
     87  CG1       35.0780  194.9440   -4.8950 C.3   272  ILE272      0.0019
     88  CG2       35.3540  194.4100   -7.3460 C.3   272  ILE272      0.0019
     89  CD1       34.6880  196.3850   -5.1380 C.3   272  ILE272      0.0001
     90  N         40.4530  193.4580   -6.3680 N.3   277  THR277     -0.1204
     91  CA        40.3900  194.0090   -7.7150 C.3   277  THR277      0.1979
     92  C         40.6640  195.5080   -7.6770 C.2   277  THR277      0.2460
     93  O         40.0280  196.2300   -6.9000 O.2   277  THR277     -0.2732
     94  CB        39.0200  193.7360   -8.3320 C.3   277  THR277      0.1783
     95  OG1       38.7650  192.3250   -8.3240 O.3   277  THR277     -0.2211
     96  CG2       38.9650  194.2470   -9.7630 C.3   277  THR277      0.0376
     97  N         41.6040  196.0130   -8.4760 N.am  278  PRO278     -0.2717
     98  CA        41.8410  197.4630   -8.5060 C.3   278  PRO278      0.1535
     99  C         40.6610  198.1850   -9.1390 C.2   278  PRO278      0.2598
    100  O         40.2250  197.8420  -10.2410 O.2   278  PRO278     -0.2715
    101  CB        43.1120  197.6040   -9.3530 C.3   278  PRO278      0.0310
    102  CG        43.7180  196.2280   -9.3940 C.3   278  PRO278      0.0237
    103  CD        42.5670  195.2790   -9.3120 C.3   278  PRO278      0.0939
    104  N         40.1410  199.1860   -8.4290 N.am  279  VAL279     -0.1978
    105  CA        38.9980  199.9750   -8.8770 C.3   279  VAL279      0.1596
    106  C         39.3260  201.4480   -8.6710 C.2   279  VAL279      0.2287
    107  O         39.6170  201.8700   -7.5460 O.2   279  VAL279     -0.2864
    108  CB        37.7070  199.6080   -8.1240 C.3   279  VAL279      0.0276
    109  CG1       36.5360  200.4300   -8.6470 C.3   279  VAL279      0.0022
    110  CG2       37.4130  198.1170   -8.2330 C.3   279  VAL279      0.0022
    111  N         35.8990  204.4580  -12.3900 N.3   283  ASN283     -0.1225
    112  CA        35.3340  203.1430  -12.6620 C.3   283  ASN283      0.1785
    113  C         34.2050  202.8180  -11.6940 C.2   283  ASN283      0.2597
    114  O         33.1730  202.2710  -12.0990 O.2   283  ASN283     -0.2718
    115  CB        36.4270  202.0790  -12.5990 C.3   283  ASN283      0.1169
    116  CG        35.9170  200.7070  -12.9750 C.2   283  ASN283      0.2627
    117  OD1       35.7170  199.8550  -12.1150 O.2   283  ASN283     -0.2716
    118  ND2       35.6890  200.4910  -14.2660 N.am  283  ASN283     -0.0877
    119  N         34.3780  203.1520  -10.4130 N.am  284  PHE284     -0.1976
    120  CA        33.2950  202.9510   -9.4570 C.3   284  PHE284      0.1639
    121  C         32.0990  203.8340   -9.7920 C.2   284  PHE284      0.2290
    122  O         30.9460  203.3970   -9.6900 O.2   284  PHE284     -0.2864
    123  CB        33.7820  203.2280   -8.0340 C.3   284  PHE284      0.0560
    124  CG        32.7190  203.0470   -6.9890 C.ar  284  PHE284     -0.0200
    125  CD1       32.3940  201.7830   -6.5280 C.ar  284  PHE284     -0.0042
    126  CD2       32.0370  204.1400   -6.4750 C.ar  284  PHE284     -0.0042
    127  CE1       31.4090  201.6100   -5.5710 C.ar  284  PHE284     -0.0003
    128  CE2       31.0540  203.9740   -5.5170 C.ar  284  PHE284     -0.0003
    129  CZ        30.7410  202.7060   -5.0640 C.ar  284  PHE284     -0.0000
    130  N         30.2240  202.4320  -12.9990 N.3   287  SER287     -0.1202
    131  CA        29.4190  201.2510  -12.7020 C.3   287  SER287      0.2020
    132  C         28.2070  201.6090  -11.8520 C.2   287  SER287      0.2619
    133  O         27.1160  201.0590  -12.0470 O.2   287  SER287     -0.2717
    134  CB        30.2720  200.1930  -12.0000 C.3   287  SER287      0.2103
    135  OG        31.3840  199.8210  -12.7950 O.3   287  SER287     -0.2182
    136  N         28.3760  202.5360  -10.9060 N.am  288  THR288     -0.1952
    137  CA        27.2690  202.9170  -10.0360 C.3   288  THR288      0.1897
    138  C         26.1890  203.6650  -10.8100 C.2   288  THR288      0.2313
    139  O         24.9930  203.4410  -10.5910 O.2   288  THR288     -0.2863
    140  CB        27.7860  203.7660   -8.8730 C.3   288  THR288      0.1794
    141  OG1       28.7710  203.0250   -8.1420 O.3   288  THR288     -0.2208
    142  CG2       26.6480  204.1470   -7.9340 C.3   288  THR288      0.0378
    143  N         24.0280  201.1570  -12.8530 N.3   291  ILE291     -0.1231
    144  CA        23.0850  200.3400  -12.0950 C.3   291  ILE291      0.1692
    145  C         21.9550  201.1970  -11.5350 C.2   291  ILE291      0.2591
    146  O         20.7970  200.7640  -11.4900 O.2   291  ILE291     -0.2718
    147  CB        23.8340  199.5630  -10.9970 C.3   291  ILE291      0.0266
    148  CG1       24.7270  198.5000  -11.6420 C.3   291  ILE291      0.0019
    149  CG2       22.8580  198.9290  -10.0150 C.3   291  ILE291      0.0020
    150  CD1       25.7590  197.8950  -10.7130 C.3   291  ILE291      0.0001
    151  N         22.2640  202.4250  -11.1120 N.am  292  ILE292     -0.1980
    152  CA        21.2080  203.3650  -10.7420 C.3   292  ILE292      0.1595
    153  C         20.2850  203.6120  -11.9270 C.2   292  ILE292      0.2287
    154  O         19.0560  203.6510  -11.7810 O.2   292  ILE292     -0.2864
    155  CB        21.8160  204.6800  -10.2160 C.3   292  ILE292      0.0276
    156  CG1       22.5080  204.4550   -8.8700 C.3   292  ILE292      0.0022
    157  CG2       20.7450  205.7560  -10.0980 C.3   292  ILE292      0.0022
    158  CD1       23.2430  205.6750   -8.3540 C.3   292  ILE292      0.0001
    159  N         17.8730  200.7470  -12.3800 N.3   295  MET295     -0.1245
    160  CA        16.7740  200.8050  -11.4210 C.3   295  MET295      0.1570
    161  C         15.7780  201.8990  -11.7900 C.2   295  MET295      0.2261
    162  O         14.5620  201.6910  -11.7060 O.2   295  MET295     -0.2867
    163  CB        17.3200  201.0250  -10.0090 C.3   295  MET295      0.0387
    164  CG        18.2370  199.9140   -9.5180 C.3   295  MET295      0.0595
    165  SD        17.4810  198.2850   -9.6950 S.3   295  MET295     -0.1393
    166  CE        18.6780  197.2530   -8.8550 C.3   295  MET295      0.0692
@<TRIPOS>BOND
     1    17    16   ar
     2    17    15   ar
     3    16    14   ar
     4    15    13   ar
     5    14    12   ar
     6    34    33    2
     7    27    28    2
     8    27    26    1
     9    25    26    1
    10    13    12   ar
    11    12    11    1
    12    31    32    1
    13    35    36    1
    14    35    32    1
    15    33    32    1
    16    36    37    1
    17    26    29    1
    18    10     9    2
    19    29    30    1
    20    21    20    2
    21    20    19    1
    22    11     8    1
    23     9     8    1
    24    37    38   ar
    25    37    39   ar
    26    23    22    1
    27     8     7    1
    28    22    19    1
    29    22    24    1
    30    19    18    1
    31   118   116   am
    32     7     3   am
    33   130   131    1
    34   116   115    1
    35   116   117    2
    36   143   144    1
    37   135   134    1
    38   131   134    1
    39   131   132    1
    40   112   115    1
    41   112   111    1
    42   112   113    1
    43     4     3    2
    44     3     2    1
    45   159   160    1
    46   114   113    2
    47   144   145    1
    48   144   147    1
    49   133   132    2
    50   153   154    2
    51   153   152    1
    52   132   136   am
    53     1     2    1
    54   161   162    2
    55   161   160    1
    56   113   119   am
    57   148   147    1
    58   148   150    1
    59   145   146    2
    60   145   151   am
    61     2     5    1
    62   160   163    1
    63   151   152    1
    64     6     5    1
    65   147   149    1
    66   136   137    1
    67   138   139    2
    68   138   137    1
    69   152   155    1
    70   119   120    1
    71   100    99    2
    72    70    68    1
    73   155   157    1
    74   155   156    1
    75   137   140    1
    76   163   164    1
    77   121   122    2
    78   121   120    1
    79    96    94    1
    80   165   164    1
    81   165   166    1
    82    68    67    1
    83   120   123    1
    84   102   101    1
    85   102   103    1
    86   101    98    1
    87   103    97    1
    88    99    98    1
    89    99   104   am
    90   105   106    1
    91   105   104    1
    92   105   108    1
    93   140   141    1
    94   140   142    1
    95   156   158    1
    96   106   107    2
    97   109   108    1
    98    98    97    1
    99    97    92   am
   100    40    41    1
   101    94    95    1
   102    94    91    1
   103   110   108    1
   104    67    69    1
   105    67    64    1
   106   123   124    1
   107    91    92    1
   108    91    90    1
   109    92    93    2
   110    48    49    1
   111    64    63    1
   112    64    65    1
   113    88    86    1
   114    54    52    1
   115   124   125   ar
   116   124   126   ar
   117    41    42    1
   118    41    44    1
   119    49    52    1
   120    49    50    1
   121    42    43    2
   122   125   127   ar
   123   126   128   ar
   124    45    44    1
   125    45    47    1
   126    65    66    2
   127    65    71   am
   128    52    53    1
   129    44    46    1
   130    86    83    1
   131    86    87    1
   132    82    83    1
   133    83    84    1
   134   127   129   ar
   135    50    51    2
   136    50    55   am
   137   128   129   ar
   138    71    72    1
   139    89    87    1
   140    55    56    1
   141    57    56    1
   142    57    58    2
   143    84    85    2
   144    79    77   ar
   145    79    81   ar
   146    56    59    1
   147    77    76   ar
   148    72    73    1
   149    72    75    1
   150    59    60    1
   151    59    61    1
   152    81    80   ar
   153    73    74    2
   154    76    75    1
   155    76    78   ar
   156    60    62    1
   157    80    78   ar
