@<TRIPOS>MOLECULE
tmp/5y78B09.pdb
 87 83 0 0 0
SMALL
GASTEIGER

@<TRIPOS>ATOM
      1  N         19.5520  242.0010  -40.4590 N.3    54  THR54      -0.1218
      2  CA        19.2240  243.4020  -40.2220 C.3    54  THR54       0.1862
      3  C         19.3700  244.2340  -41.4890 C.2    54  THR54       0.2287
      4  O         18.6140  245.1910  -41.6900 O.2    54  THR54      -0.2866
      5  CB        20.1010  243.9750  -39.1100 C.3    54  THR54       0.1770
      6  OG1       21.4790  243.8700  -39.4840 O.3    54  THR54      -0.2211
      7  CG2       19.8760  243.2130  -37.8200 C.3    54  THR54       0.0375
      8  N         16.2010  243.8280  -43.4540 N.3    57  TRP57      -0.1241
      9  CA        15.1250  244.6110  -42.8520 C.3    57  TRP57       0.1605
     10  C         15.2980  246.0990  -43.1400 C.2    57  TRP57       0.2264
     11  O         14.3390  246.7860  -43.5110 O.2    57  TRP57      -0.2867
     12  CB        15.0770  244.3640  -41.3430 C.3    57  TRP57       0.0550
     13  CG        14.5530  243.0190  -40.9500 C.ar   57  TRP57       0.0003
     14  CD1       13.6680  242.2450  -41.6420 C.ar   57  TRP57       0.0946
     15  CD2       14.8900  242.2840  -39.7690 C.ar   57  TRP57       0.0152
     16  NE1       13.4300  241.0740  -40.9630 N.ar   57  TRP57      -0.2442
     17  CE2       14.1690  241.0740  -39.8090 C.ar   57  TRP57       0.0810
     18  CE3       15.7310  242.5330  -38.6800 C.ar   57  TRP57       0.0012
     19  CZ2       14.2660  240.1140  -38.8040 C.ar   57  TRP57       0.0191
     20  CZ3       15.8240  241.5810  -37.6830 C.ar   57  TRP57       0.0001
     21  CH2       15.0950  240.3870  -37.7510 C.ar   57  TRP57       0.0015
     22  N          9.5960  243.1770  -41.9820 N.3    64  LYS64      -0.1231
     23  CA        10.0690  243.2450  -40.6060 C.3    64  LYS64       0.1678
     24  C          9.0780  242.5550  -39.6720 C.2    64  LYS64       0.2434
     25  O          7.8660  242.7440  -39.8010 O.2    64  LYS64      -0.2733
     26  CB        10.2650  244.6950  -40.1700 C.3    64  LYS64       0.0284
     27  CG        11.4910  245.3560  -40.7720 C.3    64  LYS64       0.0035
     28  CD        11.9110  246.5710  -39.9630 C.3    64  LYS64       0.0206
     29  CE        11.4010  247.8560  -40.5850 C.3    64  LYS64       0.1093
     30  NZ        12.1020  248.1590  -41.8640 N.3    64  LYS64      -0.1314
     31  N          9.5620  241.7520  -38.7280 N.am   65  PRO65      -0.2729
     32  CA         8.6470  241.0730  -37.8060 C.3    65  PRO65       0.1401
     33  C          8.1490  242.0120  -36.7200 C.2    65  PRO65       0.2269
     34  O          8.8720  242.8910  -36.2440 O.2    65  PRO65      -0.2865
     35  CB         9.5140  239.9550  -37.2160 C.3    65  PRO65       0.0296
     36  CG        10.8890  240.5230  -37.2410 C.3    65  PRO65       0.0237
     37  CD        10.9680  241.3940  -38.4730 C.3    65  PRO65       0.0939
     38  N          7.8080  242.4110  -33.2930 N.3    67  VAL67      -0.1245
     39  CA         8.4070  241.8220  -32.1020 C.3    67  VAL67       0.1561
     40  C          7.6110  242.2700  -30.8830 C.2    67  VAL67       0.2260
     41  O          7.4840  243.4700  -30.6180 O.2    67  VAL67      -0.2867
     42  CB         9.8860  242.2130  -31.9730 C.3    67  VAL67       0.0252
     43  CG1       10.4850  241.6070  -30.7160 C.3    67  VAL67       0.0019
     44  CG2       10.6600  241.7690  -33.2070 C.3    67  VAL67       0.0019
     45  N          9.3830  237.2320  -27.7260 N.3    72  ILE72      -0.1245
     46  CA        10.7420  237.1310  -27.2000 C.3    72  ILE72       0.1561
     47  C         10.8290  236.0350  -26.1440 C.2    72  ILE72       0.2260
     48  O         11.7980  235.2670  -26.1050 O.2    72  ILE72      -0.2867
     49  CB        11.2040  238.4950  -26.6510 C.3    72  ILE72       0.0252
     50  CG1       11.3870  239.4950  -27.7960 C.3    72  ILE72       0.0019
     51  CG2       12.4960  238.3510  -25.8560 C.3    72  ILE72       0.0019
     52  CD1       11.7170  240.8990  -27.3360 C.3    72  ILE72       0.0001
     53  N         15.4290  236.1880  -35.6510 N.3   192  LEU192     -0.1245
     54  CA        15.3690  236.5720  -34.2460 C.3   192  LEU192      0.1561
     55  C         16.1530  235.6050  -33.3710 C.2   192  LEU192      0.2260
     56  O         16.7350  236.0180  -32.3620 O.2   192  LEU192     -0.2867
     57  CB        13.9110  236.6530  -33.7900 C.3   192  LEU192      0.0270
     58  CG        13.0600  237.7390  -34.4560 C.3   192  LEU192      0.0019
     59  CD1       11.5970  237.6140  -34.0530 C.3   192  LEU192      0.0001
     60  CD2       13.5930  239.1190  -34.1110 C.3   192  LEU192      0.0001
     61  N         19.8830  236.4050  -33.6050 N.3   195  ILE195     -0.1231
     62  CA        20.1940  237.6340  -32.8800 C.3   195  ILE195      0.1692
     63  C         20.3080  237.3510  -31.3880 C.2   195  ILE195      0.2591
     64  O         21.3010  237.7090  -30.7450 O.2   195  ILE195     -0.2718
     65  CB        19.1360  238.7150  -33.1650 C.3   195  ILE195      0.0266
     66  CG1       19.2340  239.1970  -34.6130 C.3   195  ILE195      0.0019
     67  CG2       19.2870  239.8790  -32.2000 C.3   195  ILE195      0.0020
     68  CD1       18.1850  240.2270  -34.9820 C.3   195  ILE195      0.0001
     69  N         19.2910  236.7000  -30.8190 N.am  196  ILE196     -0.1980
     70  CA        19.3320  236.3370  -29.4040 C.3   196  ILE196      0.1595
     71  C         20.5060  235.4060  -29.1310 C.2   196  ILE196      0.2287
     72  O         21.2410  235.5750  -28.1520 O.2   196  ILE196     -0.2864
     73  CB        17.9990  235.6990  -28.9740 C.3   196  ILE196      0.0276
     74  CG1       16.8410  236.6690  -29.2180 C.3   196  ILE196      0.0022
     75  CG2       18.0600  235.2790  -27.5110 C.3   196  ILE196      0.0022
     76  CD1       15.4770  236.0230  -29.1170 C.3   196  ILE196      0.0001
     77  N         24.0000  237.1830  -28.8280 N.3   199  PHE199     -0.1241
     78  CA        24.2770  237.8540  -27.5650 C.3   199  PHE199      0.1605
     79  C         24.3030  236.8840  -26.3920 C.2   199  PHE199      0.2264
     80  O         24.8930  237.2020  -25.3540 O.2   199  PHE199     -0.2867
     81  CB        23.2540  238.9630  -27.3200 C.3   199  PHE199      0.0534
     82  CG        23.4340  240.1570  -28.2140 C.ar  199  PHE199     -0.0203
     83  CD1       24.4910  241.0340  -28.0180 C.ar  199  PHE199     -0.0042
     84  CD2       22.5490  240.4040  -29.2480 C.ar  199  PHE199     -0.0042
     85  CE1       24.6600  242.1360  -28.8390 C.ar  199  PHE199     -0.0003
     86  CE2       22.7100  241.5020  -30.0710 C.ar  199  PHE199     -0.0003
     87  CZ        23.7670  242.3700  -29.8670 C.ar  199  PHE199     -0.0000
@<TRIPOS>BOND
     1    11    10    2
     2     8     9    1
     3    10     9    1
     4     9    12    1
     5    22    23    1
     6    30    29    1
     7     4     3    2
     8    14    16   ar
     9    14    13   ar
    10     3     2    1
    11    12    13    1
    12    16    17   ar
    13    13    15   ar
    14    27    26    1
    15    27    28    1
    16    23    26    1
    17    23    24    1
    18    29    28    1
    19     1     2    1
    20     2     5    1
    21    17    15   ar
    22    17    19   ar
    23    25    24    2
    24    15    18   ar
    25    24    31   am
    26     6     5    1
    27     5     7    1
    28    19    21   ar
    29    31    37    1
    30    31    32    1
    31    18    20   ar
    32    37    36    1
    33    32    35    1
    34    32    33    1
    35    21    20   ar
    36    36    35    1
    37    33    34    2
    38    53    54    1
    39    68    66    1
    40    66    65    1
    41    58    60    1
    42    58    59    1
    43    58    57    1
    44    54    57    1
    45    54    55    1
    46    61    62    1
    47    55    56    2
    48    38    39    1
    49    44    42    1
    50    65    62    1
    51    65    67    1
    52    62    63    1
    53    39    42    1
    54    39    40    1
    55    42    43    1
    56    63    69   am
    57    63    64    2
    58    40    41    2
    59    69    70    1
    60    86    87   ar
    61    86    84   ar
    62    87    85   ar
    63    70    71    1
    64    70    73    1
    65    84    82   ar
    66    74    76    1
    67    74    73    1
    68    71    72    2
    69    73    75    1
    70    85    83   ar
    71    77    78    1
    72    82    83   ar
    73    82    81    1
    74    50    52    1
    75    50    49    1
    76    45    46    1
    77    78    81    1
    78    78    79    1
    79    46    49    1
    80    46    47    1
    81    49    51    1
    82    79    80    2
    83    47    48    2
