@<TRIPOS>MOLECULE
tmp/5y79A14.pdb
 91 86 0 0 0
SMALL
GASTEIGER

@<TRIPOS>ATOM
      1  N         16.6550  196.4990  -18.3980 N.3   110  VAL110     -0.1231
      2  CA        16.2160  197.2040  -19.6010 C.3   110  VAL110      0.1692
      3  C         15.8950  196.2090  -20.7070 C.2   110  VAL110      0.2592
      4  O         14.8450  196.2930  -21.3580 O.2   110  VAL110     -0.2718
      5  CB        17.2710  198.2260  -20.0580 C.3   110  VAL110      0.0266
      6  CG1       16.7860  198.9340  -21.3150 C.3   110  VAL110      0.0020
      7  CG2       17.5610  199.2310  -18.9560 C.3   110  VAL110      0.0020
      8  N         16.8000  195.2540  -20.9400 N.am  111  PHE111     -0.1976
      9  CA        16.5170  194.1770  -21.8830 C.3   111  PHE111      0.1639
     10  C         15.2890  193.3860  -21.4570 C.2   111  PHE111      0.2290
     11  O         14.5030  192.9440  -22.3020 O.2   111  PHE111     -0.2864
     12  CB        17.7250  193.2440  -22.0030 C.3   111  PHE111      0.0560
     13  CG        18.9660  193.9110  -22.5330 C.ar  111  PHE111     -0.0200
     14  CD1       19.8710  194.5130  -21.6710 C.ar  111  PHE111     -0.0042
     15  CD2       19.2380  193.9190  -23.8920 C.ar  111  PHE111     -0.0042
     16  CE1       21.0210  195.1170  -22.1580 C.ar  111  PHE111     -0.0003
     17  CE2       20.3880  194.5230  -24.3820 C.ar  111  PHE111     -0.0003
     18  CZ        21.2770  195.1220  -23.5130 C.ar  111  PHE111     -0.0000
     19  N         12.0550  195.4720  -22.2310 N.3   114  VAL114     -0.1231
     20  CA        11.8110  195.5740  -23.6680 C.3   114  VAL114      0.1692
     21  C         11.2580  194.2610  -24.2150 C.2   114  VAL114      0.2592
     22  O         10.2650  194.2460  -24.9520 O.2   114  VAL114     -0.2718
     23  CB        13.0990  195.9940  -24.4010 C.3   114  VAL114      0.0266
     24  CG1       12.9330  195.8360  -25.9080 C.3   114  VAL114      0.0020
     25  CG2       13.4690  197.4300  -24.0480 C.3   114  VAL114      0.0020
     26  N         11.8980  193.1420  -23.8720 N.am  115  GLY115     -0.1957
     27  CA        11.4110  191.8550  -24.3460 C.3   115  GLY115      0.1869
     28  C         10.0310  191.5160  -23.8140 C.2   115  GLY115      0.2309
     29  O          9.1950  190.9680  -24.5370 O.2   115  GLY115     -0.2863
     30  N          7.4890  193.7880  -25.5690 N.3   118  LEU118     -0.1231
     31  CA         7.3150  193.2670  -26.9220 C.3   118  LEU118      0.1693
     32  C          6.3040  192.1280  -26.9320 C.2   118  LEU118      0.2591
     33  O          5.4150  192.0740  -27.7890 O.2   118  LEU118     -0.2718
     34  CB         8.6630  192.7860  -27.4660 C.3   118  LEU118      0.0284
     35  CG         9.0340  192.8870  -28.9530 C.3   118  LEU118      0.0019
     36  CD1        7.8260  192.7330  -29.8720 C.3   118  LEU118      0.0001
     37  CD2        9.7910  194.1800  -29.2590 C.3   118  LEU118      0.0001
     38  N          6.4230  191.2090  -25.9750 N.am  119  VAL119     -0.1980
     39  CA         5.5630  190.0320  -25.9600 C.3   119  VAL119      0.1595
     40  C          4.1550  190.3950  -25.5090 C.2   119  VAL119      0.2287
     41  O          3.1630  189.8650  -26.0260 O.2   119  VAL119     -0.2864
     42  CB         6.1800  188.9540  -25.0540 C.3   119  VAL119      0.0276
     43  CG1        5.1140  187.9940  -24.5960 C.3   119  VAL119      0.0022
     44  CG2        7.2910  188.2210  -25.7980 C.3   119  VAL119      0.0022
     45  N         20.8310  189.5650  -23.3720 N.3   162  VAL162     -0.1245
     46  CA        19.7630  189.1790  -24.2890 C.3   162  VAL162      0.1561
     47  C         19.3760  187.7220  -24.0710 C.2   162  VAL162      0.2260
     48  O         18.1910  187.3850  -23.9770 O.2   162  VAL162     -0.2867
     49  CB        20.1880  189.4360  -25.7470 C.3   162  VAL162      0.0252
     50  CG1       19.0630  189.0470  -26.7100 C.3   162  VAL162      0.0019
     51  CG2       20.5870  190.8950  -25.9400 C.3   162  VAL162      0.0019
     52  N         17.4060  187.0300  -20.7840 N.3   165  VAL165     -0.1231
     53  CA        16.0690  187.6100  -20.7840 C.3   165  VAL165      0.1692
     54  C         15.1060  186.7340  -21.5780 C.2   165  VAL165      0.2592
     55  O         13.9750  186.4870  -21.1420 O.2   165  VAL165     -0.2718
     56  CB        16.1160  189.0550  -21.3150 C.3   165  VAL165      0.0266
     57  CG1       14.7380  189.5040  -21.7810 C.3   165  VAL165      0.0020
     58  CG2       16.6340  189.9860  -20.2300 C.3   165  VAL165      0.0020
     59  N         15.5330  186.2400  -22.7450 N.am  166  THR166     -0.1953
     60  CA        14.6880  185.3050  -23.4850 C.3   166  THR166      0.1897
     61  C         14.4370  184.0420  -22.6730 C.2   166  THR166      0.2313
     62  O         13.3160  183.5210  -22.6510 O.2   166  THR166     -0.2863
     63  CB        15.3150  184.9440  -24.8320 C.3   166  THR166      0.1794
     64  OG1       16.3960  184.0290  -24.6240 O.3   166  THR166     -0.2208
     65  CG2       15.8280  186.1820  -25.5480 C.3   166  THR166      0.0378
     66  N         11.8430  184.9090  -19.9030 N.3   169  ILE169     -0.1231
     67  CA        10.5070  185.1430  -20.4450 C.3   169  ILE169      0.1692
     68  C          9.8940  183.8380  -20.9410 C.2   169  ILE169      0.2592
     69  O          8.7420  183.5170  -20.6250 O.2   169  ILE169     -0.2718
     70  CB        10.5590  186.2060  -21.5570 C.3   169  ILE169      0.0266
     71  CG1       10.7940  187.5980  -20.9620 C.3   169  ILE169      0.0019
     72  CG2        9.2850  186.1890  -22.3850 C.3   169  ILE169      0.0020
     73  CD1       11.0460  188.6720  -22.0060 C.3   169  ILE169      0.0001
     74  N         10.6510  183.0630  -21.7270 N.am  170  THR170     -0.1953
     75  CA        10.1130  181.8070  -22.2410 C.3   170  THR170      0.1897
     76  C          9.9060  180.7940  -21.1210 C.2   170  THR170      0.2313
     77  O          8.9090  180.0630  -21.1200 O.2   170  THR170     -0.2863
     78  CB        11.0220  181.2300  -23.3290 C.3   170  THR170      0.1794
     79  OG1       12.3490  181.0540  -22.8140 O.3   170  THR170     -0.2208
     80  CG2       11.0600  182.1540  -24.5440 C.3   170  THR170      0.0378
     81  N          6.6780  181.6440  -19.4850 N.3   173  PHE173     -0.1241
     82  CA         5.5640  181.1140  -20.2660 C.3   173  PHE173      0.1605
     83  C          5.2590  179.6780  -19.8640 C.2   173  PHE173      0.2264
     84  O          4.1280  179.3400  -19.4980 O.2   173  PHE173     -0.2867
     85  CB         5.8870  181.1560  -21.7610 C.3   173  PHE173      0.0534
     86  CG         5.8770  182.5190  -22.3590 C.ar  173  PHE173     -0.0203
     87  CD1        5.2570  183.5750  -21.7180 C.ar  173  PHE173     -0.0042
     88  CD2        6.4900  182.7430  -23.5790 C.ar  173  PHE173     -0.0042
     89  CE1        5.2580  184.8300  -22.2830 C.ar  173  PHE173     -0.0003
     90  CE2        6.4900  183.9910  -24.1460 C.ar  173  PHE173     -0.0003
     91  CZ         5.8760  185.0320  -23.4970 C.ar  173  PHE173     -0.0000
@<TRIPOS>BOND
     1    36    35    1
     2    37    35    1
     3    35    34    1
     4    33    32    2
     5    34    31    1
     6    32    31    1
     7    32    38   am
     8    31    30    1
     9    50    49    1
    10    41    40    2
    11    38    39    1
    12    39    40    1
    13    39    42    1
    14    51    49    1
    15    24    23    1
    16    44    42    1
    17    49    46    1
    18    65    63    1
    19    42    43    1
    20    22    21    2
    21    63    64    1
    22    63    60    1
    23    80    78    1
    24    29    28    2
    25    23    25    1
    26    23    20    1
    27    17    15   ar
    28    17    18   ar
    29    27    26    1
    30    27    28    1
    31    46    47    1
    32    46    45    1
    33    21    26   am
    34    21    20    1
    35    90    88   ar
    36    90    91   ar
    37    47    48    2
    38    15    13   ar
    39    20    19    1
    40    88    86   ar
    41    18    16   ar
    42    91    89   ar
    43    60    59    1
    44    60    61    1
    45    78    79    1
    46    78    75    1
    47    59    54   am
    48    61    62    2
    49    13    12    1
    50    13    14   ar
    51    72    70    1
    52    86    85    1
    53    86    87   ar
    54    11    10    2
    55    89    87   ar
    56    75    74    1
    57    75    76    1
    58    16    14   ar
    59    73    71    1
    60    12     9    1
    61     9    10    1
    62     9     8    1
    63    57    56    1
    64    85    82    1
    65    74    68   am
    66    54    55    2
    67    54    53    1
    68    70    71    1
    69    70    67    1
    70     4     3    2
    71    56    53    1
    72    56    58    1
    73     6     5    1
    74    76    77    2
    75    68    69    2
    76    68    67    1
    77     8     3   am
    78    52    53    1
    79     3     2    1
    80    67    66    1
    81    82    83    1
    82    82    81    1
    83     5     2    1
    84     5     7    1
    85    83    84    2
    86     2     1    1
