@<TRIPOS>MOLECULE
tmp/5y79A05.pdb
 188 179 0 0 0
SMALL
GASTEIGER

@<TRIPOS>ATOM
      1  N         25.0870  182.3550   -5.1480 N.3    21  ASN21      -0.1240
      2  CA        25.6920  182.9820   -6.3190 C.3    21  ASN21       0.1653
      3  C         27.0170  183.6500   -5.9700 C.2    21  ASN21       0.2266
      4  O         27.9490  183.6560   -6.7850 O.2    21  ASN21      -0.2867
      5  CB        24.7240  183.9910   -6.9350 C.3    21  ASN21       0.1155
      6  CG        25.2800  184.6390   -8.1850 C.2    21  ASN21       0.2627
      7  OD1       25.9210  185.6950   -8.1200 O.2    21  ASN21      -0.2716
      8  ND2       25.0420  184.0090   -9.3340 N.am   21  ASN21      -0.0877
      9  N         29.5020  180.9210   -5.6100 N.3    24  PHE24      -0.1227
     10  CA        29.8400  180.4520   -6.9510 C.3    24  PHE24       0.1736
     11  C         30.8180  181.3950   -7.6430 C.2    24  PHE24       0.2595
     12  O         31.8340  180.9560   -8.1920 O.2    24  PHE24      -0.2718
     13  CB        28.5820  180.2980   -7.8030 C.3    24  PHE24       0.0547
     14  CG        28.8540  180.3610   -9.2780 C.ar   24  PHE24      -0.0202
     15  CD1       29.4160  179.2810   -9.9360 C.ar   24  PHE24      -0.0042
     16  CD2       28.5790  181.5090  -10.0010 C.ar   24  PHE24      -0.0042
     17  CE1       29.6860  179.3390  -11.2880 C.ar   24  PHE24      -0.0003
     18  CE2       28.8470  181.5710  -11.3560 C.ar   24  PHE24      -0.0003
     19  CZ        29.4010  180.4840  -11.9980 C.ar   24  PHE24      -0.0000
     20  N         30.5130  182.6980   -7.6480 N.am   25  ASN25      -0.1974
     21  CA        31.3140  183.6420   -8.4230 C.3    25  ASN25       0.1688
     22  C         32.7680  183.6400   -7.9710 C.2    25  ASN25       0.2292
     23  O         33.6810  183.6380   -8.8040 O.2    25  ASN25      -0.2864
     24  CB        30.7230  185.0490   -8.3280 C.3    25  ASN25       0.1181
     25  CG        29.7600  185.3630   -9.4610 C.2    25  ASN25       0.2629
     26  OD1       30.1790  185.7290  -10.5610 O.2    25  ASN25      -0.2716
     27  ND2       28.4650  185.2250   -9.1950 N.am   25  ASN25      -0.0877
     28  N         34.2820  180.2530   -8.9700 N.3    28  ASN28      -0.1240
     29  CA        34.3610  180.1390  -10.4220 C.3    28  ASN28       0.1653
     30  C         35.5250  180.9480  -10.9790 C.2    28  ASN28       0.2266
     31  O         36.2490  180.4770  -11.8660 O.2    28  ASN28      -0.2867
     32  CB        33.0440  180.5890  -11.0530 C.3    28  ASN28       0.1155
     33  CG        33.0090  180.3700  -12.5480 C.2    28  ASN28       0.2627
     34  OD1       33.0990  179.2400  -13.0220 O.2    28  ASN28      -0.2716
     35  ND2       32.8690  181.4500  -13.3000 N.am   28  ASN28      -0.0877
     36  N         29.7570  172.5480  -15.5940 N.3    45  GLN45      -0.1245
     37  CA        28.8280  173.0570  -14.5890 C.3    45  GLN45       0.1566
     38  C         27.3980  172.6240  -14.8900 C.2    45  GLN45       0.2260
     39  O         26.6460  172.2670  -13.9750 O.2    45  GLN45      -0.2867
     40  CB        28.9380  174.5800  -14.5000 C.3    45  GLN45       0.0367
     41  CG        30.2450  175.0540  -13.8670 C.3    45  GLN45       0.0905
     42  CD        30.5470  176.5190  -14.1430 C.2    45  GLN45       0.2608
     43  OE1       29.9160  177.1470  -14.9930 O.2    45  GLN45      -0.2717
     44  NE2       31.5230  177.0660  -13.4280 N.am   45  GLN45      -0.0878
     45  N         24.9750  181.3620  -20.5180 N.3    86  HIS86      -0.1241
     46  CA        25.9510  180.6860  -19.6700 C.3    86  HIS86       0.1621
     47  C         27.3330  180.6980  -20.3100 C.2    86  HIS86       0.2264
     48  O         28.3220  181.0730  -19.6700 O.2    86  HIS86      -0.2867
     49  CB        25.4900  179.2530  -19.3970 C.3    86  HIS86       0.0745
     50  CG        26.4020  178.4790  -18.4970 C.ar   86  HIS86       0.0817
     51  ND1       26.9310  179.0060  -17.3390 N.ar   86  HIS86      -0.2268
     52  CD2       26.8600  177.2090  -18.5760 C.ar   86  HIS86       0.1154
     53  CE1       27.6880  178.0960  -16.7520 C.ar   86  HIS86       0.1986
     54  NE2       27.6560  176.9950  -17.4780 N.ar   86  HIS86      -0.2212
     55  N         28.6930  184.4060  -20.5480 N.3    89  THR89      -0.1203
     56  CA        29.1220  184.9980  -19.2850 C.3    89  THR89       0.1994
     57  C         30.4020  184.3470  -18.7800 C.2    89  THR89       0.2618
     58  O         31.2890  185.0320  -18.2600 O.2    89  THR89      -0.2717
     59  CB        28.0170  184.8860  -18.2370 C.3    89  THR89       0.1784
     60  OG1       26.7900  185.3770  -18.7870 O.3    89  THR89      -0.2211
     61  CG2       28.3740  185.7160  -17.0150 C.3    89  THR89       0.0376
     62  N         30.5210  183.0260  -18.9360 N.am   90  CYS90      -0.1969
     63  CA        31.7550  182.3530  -18.5460 C.3    90  CYS90       0.1712
     64  C         32.9350  182.8470  -19.3750 C.2    90  CYS90       0.2296
     65  O         34.0340  183.0480  -18.8440 O.2    90  CYS90      -0.2864
     66  CB        31.5980  180.8400  -18.6820 C.3    90  CYS90       0.0983
     67  SG        32.9160  179.9110  -17.8780 S.3    90  CYS90      -0.0798
     68  N         33.7860  186.1210  -17.8780 N.3    93  PHE93      -0.1241
     69  CA        34.5050  185.8580  -16.6330 C.3    93  PHE93       0.1605
     70  C         35.9640  185.5040  -16.8950 C.2    93  PHE93       0.2264
     71  O         36.8540  185.8980  -16.1320 O.2    93  PHE93      -0.2867
     72  CB        33.8270  184.7250  -15.8580 C.3    93  PHE93       0.0534
     73  CG        32.5380  185.1180  -15.1800 C.ar   93  PHE93      -0.0203
     74  CD1       32.2350  186.4470  -14.9310 C.ar   93  PHE93      -0.0042
     75  CD2       31.6350  184.1440  -14.7760 C.ar   93  PHE93      -0.0042
     76  CE1       31.0520  186.7960  -14.2990 C.ar   93  PHE93      -0.0003
     77  CE2       30.4490  184.4890  -14.1460 C.ar   93  PHE93      -0.0003
     78  CZ        30.1590  185.8170  -13.9090 C.ar   93  PHE93      -0.0000
     79  N         29.7190  191.8400  -14.2670 N.3   102  HIS102     -0.1241
     80  CA        28.4470  192.0470  -13.5890 C.3   102  HIS102      0.1621
     81  C         27.9360  193.4760  -13.7480 C.2   102  HIS102      0.2264
     82  O         26.7220  193.7030  -13.6780 O.2   102  HIS102     -0.2867
     83  CB        28.5820  191.6780  -12.1110 C.3   102  HIS102      0.0745
     84  CG        28.6100  190.2020  -11.8580 C.ar  102  HIS102      0.0817
     85  ND1       27.4900  189.4060  -11.9690 N.ar  102  HIS102     -0.2268
     86  CD2       29.6230  189.3760  -11.5030 C.ar  102  HIS102      0.1154
     87  CE1       27.8110  188.1550  -11.6900 C.ar  102  HIS102      0.1986
     88  NE2       29.1000  188.1100  -11.4050 N.ar  102  HIS102     -0.2212
     89  N         26.2020  193.2880  -16.9970 N.3   105  LYS105     -0.1245
     90  CA        24.9660  192.5370  -16.8450 C.3   105  LYS105      0.1561
     91  C         23.9670  193.2320  -15.9290 C.2   105  LYS105      0.2260
     92  O         22.8130  192.8060  -15.8670 O.2   105  LYS105     -0.2867
     93  CB        25.2750  191.1200  -16.3440 C.3   105  LYS105      0.0271
     94  CG        25.9840  190.2650  -17.3950 C.3   105  LYS105      0.0035
     95  CD        26.6290  189.0130  -16.8160 C.3   105  LYS105      0.0206
     96  CE        25.6130  188.0680  -16.1900 C.3   105  LYS105      0.1093
     97  NZ        24.5750  187.6040  -17.1550 N.3   105  LYS105     -0.1314
     98  N         20.5850  194.3590  -17.3470 N.3   108  GLU108     -0.1245
     99  CA        19.6080  193.3350  -17.7080 C.3   108  GLU108      0.1567
    100  C         18.1490  193.7750  -17.5880 C.2   108  GLU108      0.2260
    101  O         17.3520  193.3820  -18.4560 O.2   108  GLU108     -0.2867
    102  CB        19.8640  192.0810  -16.8580 C.3   108  GLU108      0.0388
    103  CG        19.2120  190.8230  -17.3820 C.3   108  GLU108      0.1160
    104  CD        19.2820  189.6770  -16.3820 C.2   108  GLU108      0.3649
    105  OE1       18.2230  189.2870  -15.8400 O.co2 108  GLU108     -0.2457
    106  OE2       20.4000  189.1770  -16.1250 O.co2 108  GLU108     -0.2457
    107  N         19.7080  185.6400  -21.4760 N.3   164  PHE164     -0.1241
    108  CA        19.0480  185.3040  -20.2190 C.3   164  PHE164      0.1605
    109  C         17.6400  185.8800  -20.1480 C.2   164  PHE164      0.2264
    110  O         16.7580  185.2820  -19.5220 O.2   164  PHE164     -0.2867
    111  CB        19.8890  185.7890  -19.0410 C.3   164  PHE164      0.0534
    112  CG        21.0690  184.9040  -18.7330 C.ar  164  PHE164     -0.0203
    113  CD1       20.9170  183.5260  -18.6530 C.ar  164  PHE164     -0.0042
    114  CD2       22.3260  185.4460  -18.5340 C.ar  164  PHE164     -0.0042
    115  CE1       21.9960  182.7100  -18.3720 C.ar  164  PHE164     -0.0003
    116  CE2       23.4100  184.6320  -18.2520 C.ar  164  PHE164     -0.0003
    117  CZ        23.2430  183.2640  -18.1680 C.ar  164  PHE164     -0.0000
    118  N         15.4710  183.5400  -21.9890 N.3   167  ARG167     -0.1245
    119  CA        15.2990  182.3850  -21.1110 C.3   167  ARG167      0.1563
    120  C         14.2440  182.6570  -20.0460 C.2   167  ARG167      0.2260
    121  O         13.3250  181.8550  -19.8500 O.2   167  ARG167     -0.2867
    122  CB        16.6280  182.0120  -20.4520 C.3   167  ARG167      0.0307
    123  CG        16.5130  180.8560  -19.4570 C.3   167  ARG167      0.0489
    124  CD        17.6680  180.8340  -18.4650 C.3   167  ARG167      0.2205
    125  NE        17.5450  181.8680  -17.4400 N.pl3 167  ARG167     -0.0865
    126  CZ        18.4020  182.0310  -16.4350 C.cat 167  ARG167      0.5346
    127  NH1       18.2100  182.9950  -15.5430 N.pl3 167  ARG167      0.1354
    128  NH2       19.4530  181.2320  -16.3220 N.pl3 167  ARG167      0.1354
    129  N         27.1350  176.6260   -8.7350 N.3   237  TYR237     -0.1241
    130  CA        26.4970  177.1180   -9.9520 C.3   237  TYR237      0.1605
    131  C         25.0790  176.5780  -10.0690 C.2   237  TYR237      0.2264
    132  O         24.1360  177.3250  -10.3580 O.2   237  TYR237     -0.2867
    133  CB        27.3010  176.7300  -11.1940 C.3   237  TYR237      0.0534
    134  CG        26.5300  176.9850  -12.4790 C.ar  237  TYR237     -0.0201
    135  CD1       26.5050  178.2500  -13.0560 C.ar  237  TYR237     -0.0009
    136  CD2       25.8060  175.9650  -13.1020 C.ar  237  TYR237     -0.0009
    137  CE1       25.7920  178.4910  -14.2170 C.ar  237  TYR237      0.0417
    138  CE2       25.0880  176.1980  -14.2630 C.ar  237  TYR237      0.0417
    139  CZ        25.0860  177.4630  -14.8180 C.ar  237  TYR237      0.1957
    140  OH        24.3730  177.7040  -15.9730 O.3   237  TYR237     -0.2866
    141  N         22.5610  177.9050   -7.0830 N.3   240  TYR240     -0.1227
    142  CA        22.0530  179.2700   -7.2010 C.3   240  TYR240      0.1736
    143  C         21.0440  179.3770   -8.3360 C.2   240  TYR240      0.2595
    144  O         20.0170  180.0460   -8.1960 O.2   240  TYR240     -0.2718
    145  CB        23.2050  180.2760   -7.3620 C.3   240  TYR240      0.0548
    146  CG        23.5950  180.7090   -8.7710 C.ar  240  TYR240     -0.0200
    147  CD1       22.7850  181.5650   -9.5180 C.ar  240  TYR240     -0.0009
    148  CD2       24.8140  180.3210   -9.3190 C.ar  240  TYR240     -0.0009
    149  CE1       23.1460  181.9640  -10.7940 C.ar  240  TYR240      0.0417
    150  CE2       25.1900  180.7270  -10.5880 C.ar  240  TYR240      0.0417
    151  CZ        24.3540  181.5510  -11.3200 C.ar  240  TYR240      0.1957
    152  OH        24.7250  181.9610  -12.5810 O.3   240  TYR240     -0.2866
    153  N         21.3130  178.7260   -9.4700 N.am  241  ASN241     -0.1974
    154  CA        20.3580  178.7660  -10.5730 C.3   241  ASN241      0.1688
    155  C         19.0600  178.0660  -10.1990 C.2   241  ASN241      0.2292
    156  O         17.9700  178.5500  -10.5220 O.2   241  ASN241     -0.2864
    157  CB        20.9640  178.1320  -11.8180 C.3   241  ASN241      0.1181
    158  CG        21.8780  179.0710  -12.5640 C.2   241  ASN241      0.2629
    159  OD1       21.4180  179.9710  -13.2670 O.2   241  ASN241     -0.2716
    160  ND2       23.1840  178.8650  -12.4220 N.am  241  ASN241     -0.0877
    161  N         18.0750  190.4610  -10.0870 N.3   260  ASN260     -0.1240
    162  CA        19.4320  190.1440  -10.5260 C.3   260  ASN260      0.1653
    163  C         20.3660  191.3390  -10.3620 C.2   260  ASN260      0.2266
    164  O         21.5340  191.1710   -9.9940 O.2   260  ASN260     -0.2867
    165  CB        19.4200  189.6760  -11.9820 C.3   260  ASN260      0.1155
    166  CG        19.9170  188.2480  -12.1440 C.2   260  ASN260      0.2627
    167  OD1       20.7090  187.7510  -11.3380 O.2   260  ASN260     -0.2716
    168  ND2       19.4490  187.5800  -13.1930 N.am  260  ASN260     -0.0877
    169  N         21.3400  191.5670   -6.8700 N.3   263  LYS263     -0.1231
    170  CA        22.3550  190.5390   -6.6680 C.3   263  LYS263      0.1693
    171  C         23.7280  191.0260   -7.1150 C.2   263  LYS263      0.2591
    172  O         24.7350  190.7750   -6.4420 O.2   263  LYS263     -0.2718
    173  CB        21.9720  189.2690   -7.4280 C.3   263  LYS263      0.0285
    174  CG        22.9210  188.0940   -7.2120 C.3   263  LYS263      0.0035
    175  CD        22.5900  186.9380   -8.1450 C.3   263  LYS263      0.0206
    176  CE        23.2150  187.1410   -9.5190 C.3   263  LYS263      0.1093
    177  NZ        22.8330  186.0510  -10.4630 N.3   263  LYS263     -0.1314
    178  N         23.7860  191.7480   -8.2360 N.am  264  ARG264     -0.1980
    179  CA        25.0790  192.0800   -8.8240 C.3   264  ARG264      0.1597
    180  C         25.8060  193.1570   -8.0310 C.2   264  ARG264      0.2287
    181  O         27.0430  193.1590   -7.9910 O.2   264  ARG264     -0.2864
    182  CB        24.8950  192.4910  -10.2830 C.3   264  ARG264      0.0334
    183  CG        24.4260  191.3220  -11.1250 C.3   264  ARG264      0.0492
    184  CD        24.2770  191.6370  -12.5970 C.3   264  ARG264      0.2205
    185  NE        23.3100  190.7330  -13.2140 N.pl3 264  ARG264     -0.0865
    186  CZ        23.5250  189.4400  -13.4510 C.cat 264  ARG264      0.5346
    187  NH1       22.5730  188.7050  -14.0140 N.pl3 264  ARG264      0.1354
    188  NH2       24.6840  188.8760  -13.1250 N.pl3 264  ARG264      0.1354
@<TRIPOS>BOND
     1   118   119    1
     2   107   108    1
     3   119   122    1
     4   119   120    1
     5    55    56    1
     6    45    46    1
     7   122   123    1
     8    47    46    1
     9    47    48    2
    10   108   109    1
    11   108   111    1
    12   109   110    2
    13   120   121    2
    14    46    49    1
    15   123   124    1
    16    49    50    1
    17    64    65    2
    18    64    63    1
    19    56    57    1
    20    56    59    1
    21   111   112    1
    22    62    57   am
    23    62    63    1
    24    60    59    1
    25    57    58    2
    26   112   113   ar
    27   112   114   ar
    28    66    63    1
    29    66    67    1
    30   113   115   ar
    31    52    50   ar
    32    52    54   ar
    33   114   116   ar
    34    50    51   ar
    35   124   125    1
    36   101   100    2
    37   115   117   ar
    38   116   117   ar
    39    59    61    1
    40    68    69    1
    41    99   100    1
    42    99    98    1
    43    99   102    1
    44    54    53   ar
    45   125   126    2
    46    94    95    1
    47    94    93    1
    48   103   102    1
    49   103   104    1
    50    51    53   ar
    51    97    96    1
    52    89    90    1
    53    70    69    1
    54    70    71    2
    55    90    93    1
    56    90    91    1
    57    95    96    1
    58    69    72    1
    59   126   128    1
    60   126   127    1
    61   104   106   ar
    62   104   105   ar
    63   140   139    1
    64    91    92    2
    65    72    73    1
    66    36    37    1
    67    73    74   ar
    68    73    75   ar
    69    43    42    2
    70    74    76   ar
    71    38    37    1
    72    38    39    2
    73   139   138   ar
    74   139   137   ar
    75    75    77   ar
    76    37    40    1
    77    40    41    1
    78    76    78   ar
    79    79    80    1
    80   138   136   ar
    81   137   135   ar
    82    77    78   ar
    83    42    41    1
    84    42    44   am
    85   187   186    1
    86    81    82    2
    87    81    80    1
    88    80    83    1
    89   186   185    2
    90   186   188    1
    91    35    33   am
    92   159   158    2
    93   185   184    1
    94   168   166   am
    95   136   134   ar
    96   135   134   ar
    97    34    33    2
    98   184   183    1
    99   152   151    1
   100   158   160   am
   101   158   157    1
   102    33    32    1
   103   134   133    1
   104   166   165    1
   105   166   167    2
   106    83    84    1
   107    19    18   ar
   108    19    17   ar
   109   165   162    1
   110    85    84   ar
   111    85    87   ar
   112    31    30    2
   113    84    86   ar
   114   157   154    1
   115    87    88   ar
   116    86    88   ar
   117    18    16   ar
   118   151   149   ar
   119   151   150   ar
   120    17    15   ar
   121   133   130    1
   122   183   182    1
   123    32    29    1
   124    30    29    1
   125   149   147   ar
   126   150   148   ar
   127   154   155    1
   128   154   153    1
   129    26    25    2
   130   162   163    1
   131   162   161    1
   132   156   155    2
   133   177   176    1
   134    29    28    1
   135   163   164    2
   136   132   131    2
   137   182   179    1
   138   131   130    1
   139    16    14   ar
   140   130   129    1
   141    15    14   ar
   142   176   175    1
   143   147   146   ar
   144   153   143   am
   145    25    27   am
   146    25    24    1
   147     8     6   am
   148   148   146   ar
   149    14    13    1
   150   179   178    1
   151   179   180    1
   152    23    22    2
   153   146   145    1
   154    21    24    1
   155    21    22    1
   156    21    20    1
   157   143   144    2
   158   143   142    1
   159   178   171   am
   160    12    11    2
   161     6     7    2
   162     6     5    1
   163   175   174    1
   164   180   181    2
   165    13    10    1
   166    20    11   am
   167    11    10    1
   168   173   174    1
   169   173   170    1
   170   145   142    1
   171   142   141    1
   172   171   170    1
   173   171   172    2
   174    10     9    1
   175     5     2    1
   176   169   170    1
   177     4     3    2
   178     2     3    1
   179     2     1    1
