@<TRIPOS>MOLECULE
tmp/5y79A12.pdb
 158 149 0 0 0
SMALL
GASTEIGER

@<TRIPOS>ATOM
      1  N         33.8040  191.6030  -11.6060 N.3    99  SER99      -0.1202
      2  CA        33.0680  192.7990  -11.2090 C.3    99  SER99       0.2020
      3  C         32.6440  193.6120  -12.4230 C.2    99  SER99       0.2618
      4  O         31.5570  194.2000  -12.4290 O.2    99  SER99      -0.2717
      5  CB        33.9130  193.6460  -10.2550 C.3    99  SER99       0.2103
      6  OG        35.2050  193.8800  -10.7830 O.3    99  SER99      -0.2182
      7  N         33.4700  193.6340  -13.4710 N.am  100  PHE100     -0.1975
      8  CA        33.0910  194.3400  -14.6890 C.3   100  PHE100      0.1639
      9  C         32.0250  193.5810  -15.4740 C.2   100  PHE100      0.2290
     10  O         31.0870  194.1920  -15.9970 O.2   100  PHE100     -0.2864
     11  CB        34.3180  194.5890  -15.5630 C.3   100  PHE100      0.0560
     12  CG        34.0050  195.3090  -16.8380 C.ar  100  PHE100     -0.0200
     13  CD1       33.4640  196.5840  -16.8080 C.ar  100  PHE100     -0.0042
     14  CD2       34.2420  194.7150  -18.0620 C.ar  100  PHE100     -0.0042
     15  CE1       33.1640  197.2500  -17.9750 C.ar  100  PHE100     -0.0003
     16  CE2       33.9430  195.3800  -19.2370 C.ar  100  PHE100     -0.0003
     17  CZ        33.4030  196.6500  -19.1900 C.ar  100  PHE100     -0.0000
     18  N         28.8320  194.4470  -13.9530 N.3   103  VAL103     -0.1245
     19  CA        28.3950  195.8080  -14.2570 C.3   103  VAL103      0.1561
     20  C         27.6570  195.8350  -15.5890 C.2   103  VAL103      0.2260
     21  O         26.5830  196.4350  -15.7160 O.2   103  VAL103     -0.2867
     22  CB        29.5960  196.7730  -14.2600 C.3   103  VAL103      0.0252
     23  CG1       29.2060  198.0930  -14.9050 C.3   103  VAL103      0.0019
     24  CG2       30.0960  197.0110  -12.8470 C.3   103  VAL103      0.0019
     25  N         32.3740  203.2860  -17.1480 N.3   142  SER142     -0.1217
     26  CA        32.9030  202.1070  -16.4700 C.3   142  SER142      0.1889
     27  C         33.8770  201.3570  -17.3720 C.2   142  SER142      0.2288
     28  O         34.9930  201.0200  -16.9600 O.2   142  SER142     -0.2866
     29  CB        31.7490  201.2020  -16.0350 C.3   142  SER142      0.2089
     30  OG        32.2100  200.1050  -15.2640 O.3   142  SER142     -0.2183
     31  N         37.9720  200.7610  -16.9480 N.3   146  GLU146     -0.1245
     32  CA        38.1890  199.4190  -16.4230 C.3   146  GLU146      0.1567
     33  C         39.5660  198.9250  -16.8490 C.2   146  GLU146      0.2260
     34  O         39.8680  198.8640  -18.0450 O.2   146  GLU146     -0.2867
     35  CB        37.0930  198.4770  -16.9160 C.3   146  GLU146      0.0388
     36  CG        37.3250  197.0030  -16.6000 C.3   146  GLU146      0.1160
     37  CD        37.4950  196.7420  -15.1120 C.2   146  GLU146      0.3649
     38  OE1       38.4960  196.1000  -14.7290 O.co2 146  GLU146     -0.2457
     39  OE2       36.6320  197.1880  -14.3260 O.co2 146  GLU146     -0.2457
     40  N         20.1340  193.7670   -8.1280 N.3   262  ILE262     -0.1245
     41  CA        20.4400  193.8300   -6.7020 C.3   262  ILE262      0.1561
     42  C         21.4900  192.7850   -6.3430 C.2   262  ILE262      0.2260
     43  O         22.4420  193.0680   -5.6050 O.2   262  ILE262     -0.2867
     44  CB        19.1510  193.6570   -5.8790 C.3   262  ILE262      0.0252
     45  CG1       18.2160  194.8470   -6.1160 C.3   262  ILE262      0.0019
     46  CG2       19.4710  193.4890   -4.3990 C.3   262  ILE262      0.0019
     47  CD1       16.8610  194.6940   -5.4750 C.3   262  ILE262      0.0001
     48  N         25.0710  194.0620   -7.3790 N.3   265  VAL265     -0.1245
     49  CA        25.7160  194.9900   -6.4550 C.3   265  VAL265      0.1561
     50  C         26.4620  194.2190   -5.3710 C.2   265  VAL265      0.2260
     51  O         27.6040  194.5450   -5.0260 O.2   265  VAL265     -0.2867
     52  CB        24.6820  195.9540   -5.8480 C.3   265  VAL265      0.0252
     53  CG1       25.3680  196.9140   -4.8880 C.3   265  VAL265      0.0019
     54  CG2       23.9470  196.7190   -6.9450 C.3   265  VAL265      0.0019
     55  N         29.5050  192.4840   -6.9790 N.3   268  ILE268     -0.1231
     56  CA        30.5440  193.4550   -7.3080 C.3   268  ILE268      0.1692
     57  C         31.2970  193.8690   -6.0500 C.2   268  ILE268      0.2592
     58  O         32.5330  193.8510   -6.0110 O.2   268  ILE268     -0.2718
     59  CB        29.9340  194.6690   -8.0310 C.3   268  ILE268      0.0266
     60  CG1       29.5320  194.2890   -9.4600 C.3   268  ILE268      0.0019
     61  CG2       30.9150  195.8350   -8.0290 C.3   268  ILE268      0.0020
     62  CD1       28.4720  195.1860  -10.0650 C.3   268  ILE268      0.0001
     63  N         30.5590  194.2340   -4.9960 N.am  269  PHE269     -0.1976
     64  CA        31.1970  194.6040   -3.7370 C.3   269  PHE269      0.1639
     65  C         32.0240  193.4530   -3.1780 C.2   269  PHE269      0.2290
     66  O         33.1670  193.6510   -2.7470 O.2   269  PHE269     -0.2864
     67  CB        30.1410  195.0530   -2.7260 C.3   269  PHE269      0.0560
     68  CG        29.6560  196.4640   -2.9370 C.ar  269  PHE269     -0.0200
     69  CD1       30.2470  197.2750   -3.8890 C.ar  269  PHE269     -0.0042
     70  CD2       28.6230  196.9800   -2.1770 C.ar  269  PHE269     -0.0042
     71  CE1       29.8150  198.5730   -4.0820 C.ar  269  PHE269     -0.0003
     72  CE2       28.1820  198.2760   -2.3670 C.ar  269  PHE269     -0.0003
     73  CZ        28.7810  199.0760   -3.3200 C.ar  269  PHE269     -0.0000
     74  N         35.2900  192.5690   -5.5430 N.3   272  ILE272     -0.1245
     75  CA        36.4020  193.5170   -5.5170 C.3   272  ILE272      0.1561
     76  C         37.1280  193.4480   -4.1800 C.2   272  ILE272      0.2260
     77  O         38.3310  193.7090   -4.1100 O.2   272  ILE272     -0.2867
     78  CB        35.9530  194.9590   -5.8310 C.3   272  ILE272      0.0252
     79  CG1       35.0140  195.5020   -4.7530 C.3   272  ILE272      0.0019
     80  CG2       35.3290  195.0420   -7.2160 C.3   272  ILE272      0.0019
     81  CD1       34.6550  196.9570   -4.9440 C.3   272  ILE272      0.0001
     82  N         40.4160  194.0280   -6.2840 N.3   277  THR277     -0.1204
     83  CA        40.3550  194.6020   -7.6180 C.3   277  THR277      0.1979
     84  C         40.6280  196.1020   -7.5540 C.2   277  THR277      0.2460
     85  O         39.9560  196.8110   -6.7910 O.2   277  THR277     -0.2732
     86  CB        38.9810  194.3410   -8.2330 C.3   277  THR277      0.1783
     87  OG1       38.6700  192.9440   -8.1300 O.3   277  THR277     -0.2211
     88  CG2       38.9540  194.7560   -9.6970 C.3   277  THR277      0.0376
     89  N         41.5960  196.6230   -8.3100 N.am  278  PRO278     -0.2717
     90  CA        41.8030  198.0790   -8.3370 C.3   278  PRO278      0.1535
     91  C         40.6060  198.7730   -8.9720 C.2   278  PRO278      0.2598
     92  O         40.1420  198.3810  -10.0450 O.2   278  PRO278     -0.2715
     93  CB        43.0690  198.2490   -9.1860 C.3   278  PRO278      0.0310
     94  CG        43.7150  196.8900   -9.2110 C.3   278  PRO278      0.0237
     95  CD        42.5950  195.9030   -9.1180 C.3   278  PRO278      0.0939
     96  N         40.0960  199.8010   -8.2940 N.am  279  VAL279     -0.1978
     97  CA        38.9510  200.5660   -8.7820 C.3   279  VAL279      0.1596
     98  C         39.2470  202.0490   -8.6050 C.2   279  VAL279      0.2287
     99  O         39.4220  202.5170   -7.4760 O.2   279  VAL279     -0.2864
    100  CB        37.6450  200.2040   -8.0510 C.3   279  VAL279      0.0276
    101  CG1       36.4940  201.0200   -8.6140 C.3   279  VAL279      0.0022
    102  CG2       37.3510  198.7110   -8.1610 C.3   279  VAL279      0.0022
    103  N         35.8200  204.9910  -12.2060 N.3   283  ASN283     -0.1225
    104  CA        35.2300  203.6800  -12.4410 C.3   283  ASN283      0.1785
    105  C         34.1050  203.3960  -11.4500 C.2   283  ASN283      0.2597
    106  O         33.0450  202.8870  -11.8350 O.2   283  ASN283     -0.2718
    107  CB        36.3120  202.6100  -12.3730 C.3   283  ASN283      0.1169
    108  CG        35.8230  201.2720  -12.8510 C.2   283  ASN283      0.2627
    109  OD1       35.5330  200.3920  -12.0530 O.2   283  ASN283     -0.2716
    110  ND2       35.7100  201.1160  -14.1660 N.am  283  ASN283     -0.0877
    111  N         34.3180  203.7190  -10.1710 N.am  284  PHE284     -0.1976
    112  CA        33.2410  203.6530   -9.1850 C.3   284  PHE284      0.1639
    113  C         32.0380  204.4680   -9.6330 C.2   284  PHE284      0.2290
    114  O         30.8930  204.0030   -9.5660 O.2   284  PHE284     -0.2864
    115  CB        33.7310  204.1700   -7.8330 C.3   284  PHE284      0.0560
    116  CG        34.2210  203.1000   -6.9140 C.ar  284  PHE284     -0.0200
    117  CD1       33.5220  201.9120   -6.7750 C.ar  284  PHE284     -0.0042
    118  CD2       35.3840  203.2810   -6.1840 C.ar  284  PHE284     -0.0042
    119  CE1       33.9820  200.9220   -5.9250 C.ar  284  PHE284     -0.0003
    120  CE2       35.8450  202.2970   -5.3350 C.ar  284  PHE284     -0.0003
    121  CZ        35.1430  201.1170   -5.2040 C.ar  284  PHE284     -0.0000
    122  N         30.1550  203.0310  -12.8260 N.3   287  SER287     -0.1202
    123  CA        29.3840  201.8250  -12.5350 C.3   287  SER287      0.2020
    124  C         28.1670  202.1430  -11.6760 C.2   287  SER287      0.2619
    125  O         27.0780  201.6040  -11.9050 O.2   287  SER287     -0.2717
    126  CB        30.2690  200.7860  -11.8460 C.3   287  SER287      0.2103
    127  OG        31.3870  200.4490  -12.6450 O.3   287  SER287     -0.2182
    128  N         28.3330  203.0210  -10.6840 N.am  288  THR288     -0.1952
    129  CA        27.2170  203.3950   -9.8210 C.3   288  THR288      0.1897
    130  C         26.1390  204.1380  -10.6040 C.2   288  THR288      0.2313
    131  O         24.9430  203.8770  -10.4230 O.2   288  THR288     -0.2863
    132  CB        27.7300  204.2430   -8.6550 C.3   288  THR288      0.1794
    133  OG1       28.7510  203.5210   -7.9540 O.3   288  THR288     -0.2208
    134  CG2       26.6090  204.5960   -7.6880 C.3   288  THR288      0.0378
    135  N         24.0540  201.7330  -12.6510 N.3   291  ILE291     -0.1231
    136  CA        23.1030  200.9400  -11.8820 C.3   291  ILE291      0.1692
    137  C         21.9690  201.8110  -11.3330 C.2   291  ILE291      0.2591
    138  O         20.8140  201.3690  -11.2920 O.2   291  ILE291     -0.2718
    139  CB        23.8550  200.1700  -10.7840 C.3   291  ILE291      0.0266
    140  CG1       24.7300  199.0950  -11.4420 C.3   291  ILE291      0.0019
    141  CG2       22.8860  199.5530   -9.7840 C.3   291  ILE291      0.0020
    142  CD1       25.6820  198.3780  -10.5100 C.3   291  ILE291      0.0001
    143  N         22.2550  203.0570  -10.9360 N.am  292  ILE292     -0.1980
    144  CA        21.1780  203.9830  -10.5820 C.3   292  ILE292      0.1595
    145  C         20.2460  204.1850  -11.7690 C.2   292  ILE292      0.2287
    146  O         19.0190  204.2330  -11.6150 O.2   292  ILE292     -0.2864
    147  CB        21.7520  205.3260  -10.0890 C.3   292  ILE292      0.0276
    148  CG1       22.5020  205.1490   -8.7690 C.3   292  ILE292      0.0022
    149  CG2       20.6380  206.3610   -9.9260 C.3   292  ILE292      0.0022
    150  CD1       23.2610  206.3930   -8.3330 C.3   292  ILE292      0.0001
    151  N         17.7910  201.2840  -12.3200 N.3   295  MET295     -0.1245
    152  CA        16.7340  201.3140  -11.3150 C.3   295  MET295      0.1570
    153  C         15.7480  202.4410  -11.5970 C.2   295  MET295      0.2261
    154  O         14.5310  202.2410  -11.5290 O.2   295  MET295     -0.2867
    155  CB        17.3330  201.4480   -9.9160 C.3   295  MET295      0.0387
    156  CG        18.2450  200.2950   -9.5240 C.3   295  MET295      0.0595
    157  SD        17.4280  198.6820   -9.5510 S.3   295  MET295     -0.1393
    158  CE        18.5830  197.7160   -8.5810 C.3   295  MET295      0.0692
@<TRIPOS>BOND
     1    16    17   ar
     2    16    14   ar
     3    17    15   ar
     4    14    12   ar
     5    34    33    2
     6    15    13   ar
     7    27    28    2
     8    27    26    1
     9    25    26    1
    10    31    32    1
    11    35    36    1
    12    35    32    1
    13    33    32    1
    14    12    13   ar
    15    12    11    1
    16    36    37    1
    17    26    29    1
    18    29    30    1
    19    10     9    2
    20    21    20    2
    21    20    19    1
    22    11     8    1
    23     9     8    1
    24    37    38   ar
    25    37    39   ar
    26    23    22    1
    27     8     7    1
    28    22    19    1
    29    22    24    1
    30    19    18    1
    31   110   108   am
    32     7     3   am
    33   108   107    1
    34   108   109    2
    35   122   123    1
    36   135   136    1
    37   127   126    1
    38   123   126    1
    39   123   124    1
    40   104   107    1
    41   104   103    1
    42   104   105    1
    43     4     3    2
    44     3     2    1
    45   151   152    1
    46   125   124    2
    47   136   137    1
    48   136   139    1
    49   106   105    2
    50   145   146    2
    51   145   144    1
    52   124   128   am
    53     1     2    1
    54   153   154    2
    55   153   152    1
    56   105   111   am
    57   140   139    1
    58   140   142    1
    59   137   138    2
    60   137   143   am
    61   152   155    1
    62     2     5    1
    63   143   144    1
    64   139   141    1
    65     6     5    1
    66   128   129    1
    67   130   131    2
    68   130   129    1
    69   144   147    1
    70   111   112    1
    71   147   149    1
    72   147   148    1
    73    62    60    1
    74    92    91    2
    75   155   156    1
    76   129   132    1
    77    88    86    1
    78   113   114    2
    79   113   112    1
    80   157   156    1
    81   157   158    1
    82    60    59    1
    83    94    93    1
    84    94    95    1
    85    93    90    1
    86   112   115    1
    87    95    89    1
    88    91    90    1
    89    91    96   am
    90    97    98    1
    91    97    96    1
    92    97   100    1
    93   148   150    1
    94   132   133    1
    95   132   134    1
    96   101   100    1
    97    98    99    2
    98    90    89    1
    99    89    84   am
   100    86    87    1
   101    86    83    1
   102   102   100    1
   103    40    41    1
   104    59    61    1
   105    59    56    1
   106   115   116    1
   107    83    84    1
   108    83    82    1
   109    84    85    2
   110    48    49    1
   111    56    55    1
   112    56    57    1
   113    80    78    1
   114    54    52    1
   115   116   117   ar
   116   116   118   ar
   117   117   119   ar
   118    41    42    1
   119    41    44    1
   120    49    52    1
   121    49    50    1
   122    42    43    2
   123   118   120   ar
   124    45    44    1
   125    45    47    1
   126    57    58    2
   127    57    63   am
   128   119   121   ar
   129    44    46    1
   130    52    53    1
   131    78    75    1
   132    78    79    1
   133    74    75    1
   134    75    76    1
   135    50    51    2
   136   120   121   ar
   137    63    64    1
   138    81    79    1
   139    76    77    2
   140    71    69   ar
   141    71    73   ar
   142    69    68   ar
   143    64    65    1
   144    64    67    1
   145    73    72   ar
   146    65    66    2
   147    68    67    1
   148    68    70   ar
   149    72    70   ar
