@<TRIPOS>MOLECULE
tmp/5y79A13.pdb
 103 98 0 0 0
SMALL
GASTEIGER

@<TRIPOS>ATOM
      1  N         13.4460  184.7520    1.4850 N.3    12  PHE12      -0.1227
      2  CA        14.4950  183.8090    1.8530 C.3    12  PHE12       0.1736
      3  C         15.0250  183.0520    0.6390 C.2    12  PHE12       0.2595
      4  O         16.2160  182.7250    0.5890 O.2    12  PHE12      -0.2718
      5  CB        13.9740  182.8390    2.9130 C.3    12  PHE12       0.0547
      6  CG        14.9340  181.7380    3.2450 C.ar   12  PHE12      -0.0202
      7  CD1       16.0600  181.9910    4.0100 C.ar   12  PHE12      -0.0042
      8  CD2       14.7140  180.4500    2.7890 C.ar   12  PHE12      -0.0042
      9  CE1       16.9480  180.9770    4.3140 C.ar   12  PHE12      -0.0003
     10  CE2       15.5970  179.4310    3.0910 C.ar   12  PHE12      -0.0003
     11  CZ        16.7150  179.6950    3.8550 C.ar   12  PHE12      -0.0000
     12  N         14.1650  182.7630   -0.3440 N.am   13  TYR13      -0.1976
     13  CA        14.6530  182.2250   -1.6100 C.3    13  TYR13       0.1639
     14  C         15.6340  183.1880   -2.2690 C.2    13  TYR13       0.2290
     15  O         16.6640  182.7660   -2.8060 O.2    13  TYR13      -0.2864
     16  CB        13.4890  181.9410   -2.5620 C.3    13  TYR13       0.0560
     17  CG        12.5250  180.8520   -2.1320 C.ar   13  TYR13      -0.0198
     18  CD1       12.9040  179.8610   -1.2340 C.ar   13  TYR13      -0.0009
     19  CD2       11.2300  180.8150   -2.6410 C.ar   13  TYR13      -0.0009
     20  CE1       12.0150  178.8680   -0.8510 C.ar   13  TYR13       0.0417
     21  CE2       10.3380  179.8300   -2.2640 C.ar   13  TYR13       0.0417
     22  CZ        10.7320  178.8600   -1.3710 C.ar   13  TYR13       0.1957
     23  OH         9.8360  177.8810   -1.0000 O.3    13  TYR13      -0.2866
     24  N         19.0170  183.0380   -0.4810 N.3    16  LEU16      -0.1245
     25  CA        19.7340  181.8290   -0.8780 C.3    16  LEU16       0.1561
     26  C         20.2990  181.9680   -2.2840 C.2    16  LEU16       0.2260
     27  O         21.4440  181.5800   -2.5470 O.2    16  LEU16      -0.2867
     28  CB        18.8000  180.6240   -0.7970 C.3    16  LEU16       0.0270
     29  CG        19.2070  179.4250    0.0560 C.3    16  LEU16       0.0019
     30  CD1       19.6840  179.8720    1.4240 C.3    16  LEU16       0.0001
     31  CD2       18.0110  178.4910    0.1850 C.3    16  LEU16       0.0001
     32  N         24.2790  181.6250   -2.5860 N.3    20  PHE20      -0.1241
     33  CA        24.9080  180.6200   -3.4370 C.3    20  PHE20       0.1605
     34  C         25.6400  181.2650   -4.6060 C.2    20  PHE20       0.2264
     35  O         26.6900  180.7750   -5.0380 O.2    20  PHE20      -0.2867
     36  CB        23.8650  179.6340   -3.9600 C.3    20  PHE20       0.0534
     37  CG        23.2980  178.7170   -2.9160 C.ar   20  PHE20      -0.0203
     38  CD1       23.9950  178.4420   -1.7500 C.ar   20  PHE20      -0.0042
     39  CD2       22.0630  178.1200   -3.1090 C.ar   20  PHE20      -0.0042
     40  CE1       23.4650  177.5870   -0.7990 C.ar   20  PHE20      -0.0003
     41  CE2       21.5300  177.2700   -2.1650 C.ar   20  PHE20      -0.0003
     42  CZ        22.2300  177.0030   -1.0080 C.ar   20  PHE20      -0.0000
     43  N         23.2670  165.8860  -10.7300 N.3    52  TYR52      -0.1241
     44  CA        22.6720  166.1060   -9.4140 C.3    52  TYR52       0.1605
     45  C         21.1520  165.9730   -9.4550 C.2    52  TYR52       0.2264
     46  O         20.5430  165.4050   -8.5390 O.2    52  TYR52      -0.2867
     47  CB        23.0860  167.4870   -8.9010 C.3    52  TYR52       0.0534
     48  CG        22.4390  167.9310   -7.6060 C.ar   52  TYR52      -0.0201
     49  CD1       22.9960  167.6000   -6.3780 C.ar   52  TYR52      -0.0009
     50  CD2       21.2900  168.7140   -7.6120 C.ar   52  TYR52      -0.0009
     51  CE1       22.4170  168.0160   -5.1930 C.ar   52  TYR52       0.0417
     52  CE2       20.7020  169.1350   -6.4310 C.ar   52  TYR52       0.0417
     53  CZ        21.2700  168.7840   -5.2250 C.ar   52  TYR52       0.1957
     54  OH        20.6940  169.1960   -4.0470 O.3    52  TYR52      -0.2866
     55  N         11.9410  173.7620   -9.4220 N.3   187  GLN187     -0.1245
     56  CA        13.2380  173.0960   -9.5500 C.3   187  GLN187      0.1566
     57  C         13.2530  172.1010  -10.7040 C.2   187  GLN187      0.2260
     58  O         14.3080  171.8610  -11.3000 O.2   187  GLN187     -0.2867
     59  CB        13.6130  172.3790   -8.2530 C.3   187  GLN187      0.0367
     60  CG        13.6880  173.2690   -7.0320 C.3   187  GLN187      0.0905
     61  CD        12.3830  173.3090   -6.2680 C.2   187  GLN187      0.2608
     62  OE1       11.2990  173.3430   -6.8600 O.2   187  GLN187     -0.2717
     63  NE2       12.4770  173.2920   -4.9420 N.am  187  GLN187     -0.0878
     64  N         28.9380  172.7720   -8.3040 N.3   235  LEU235     -0.1245
     65  CA        27.8320  172.5090   -7.3920 C.3   235  LEU235      0.1561
     66  C         27.0720  173.7880   -7.0680 C.2   235  LEU235      0.2260
     67  O         25.8370  173.8240   -7.1280 O.2   235  LEU235     -0.2867
     68  CB        28.3600  171.8610   -6.1100 C.3   235  LEU235      0.0270
     69  CG        27.3490  171.7390   -4.9700 C.3   235  LEU235      0.0019
     70  CD1       26.1930  170.8400   -5.3920 C.3   235  LEU235      0.0001
     71  CD2       28.0300  171.1950   -3.7270 C.3   235  LEU235      0.0001
     72  N         23.1600  175.1830   -7.6510 N.3   239  LEU239     -0.1245
     73  CA        22.2990  175.5250   -6.5220 C.3   239  LEU239      0.1561
     74  C         21.7380  176.9400   -6.6500 C.2   239  LEU239      0.2260
     75  O         20.5590  177.1700   -6.3600 O.2   239  LEU239     -0.2867
     76  CB        23.0610  175.3620   -5.2070 C.3   239  LEU239      0.0270
     77  CG        23.3220  173.9190   -4.7640 C.3   239  LEU239      0.0019
     78  CD1       24.1150  173.8780   -3.4600 C.3   239  LEU239      0.0001
     79  CD2       22.0090  173.1470   -4.6240 C.3   239  LEU239      0.0001
     80  N         19.1630  176.9270   -9.5140 N.3   242  GLU242     -0.1231
     81  CA        17.9800  176.1730   -9.1200 C.3   242  GLU242      0.1699
     82  C         17.0990  176.9840   -8.1750 C.2   242  GLU242      0.2592
     83  O         15.8770  177.0490   -8.3480 O.2   242  GLU242     -0.2718
     84  CB        18.4100  174.8610   -8.4720 C.3   242  GLU242      0.0402
     85  CG        17.2860  174.0260   -7.9310 C.3   242  GLU242      0.1161
     86  CD        17.8090  172.8230   -7.1870 C.2   242  GLU242      0.3649
     87  OE1       18.0330  172.9400   -5.9660 O.co2 242  GLU242     -0.2457
     88  OE2       18.0330  171.7750   -7.8290 O.co2 242  GLU242     -0.2457
     89  N         17.7060  177.6010   -7.1570 N.am  243  VAL243     -0.1980
     90  CA        16.9510  178.4340   -6.2270 C.3   243  VAL243      0.1595
     91  C         16.4050  179.6710   -6.9320 C.2   243  VAL243      0.2287
     92  O         15.3130  180.1520   -6.6030 O.2   243  VAL243     -0.2864
     93  CB        17.8300  178.8050   -5.0180 C.3   243  VAL243      0.0276
     94  CG1       17.1500  179.8610   -4.1550 C.3   243  VAL243      0.0022
     95  CG2       18.1350  177.5700   -4.1900 C.3   243  VAL243      0.0022
     96  N         12.9820  179.1410   -8.2680 N.3   246  LEU246     -0.1245
     97  CA        11.9430  179.3660   -7.2660 C.3   246  LEU246      0.1561
     98  C         11.5680  180.8400   -7.1970 C.2   246  LEU246      0.2260
     99  O         10.3880  181.1830   -7.0660 O.2   246  LEU246     -0.2867
    100  CB        12.4060  178.8780   -5.8940 C.3   246  LEU246      0.0270
    101  CG        12.4120  177.3790   -5.5950 C.3   246  LEU246      0.0019
    102  CD1       13.0850  177.1290   -4.2540 C.3   246  LEU246      0.0001
    103  CD2       10.9910  176.8110   -5.5980 C.3   246  LEU246      0.0001
@<TRIPOS>BOND
     1    58    57    2
     2    43    44    1
     3    57    56    1
     4    56    55    1
     5    56    59    1
     6    80    81    1
     7    45    44    1
     8    45    46    2
     9    44    47    1
    10    81    84    1
    11    81    82    1
    12    47    48    1
    13    84    85    1
    14    83    82    2
    15    64    65    1
    16    96    97    1
    17    59    60    1
    18    82    89   am
    19    85    86    1
    20    88    86   ar
    21    72    73    1
    22    50    48   ar
    23    50    52   ar
    24    48    49   ar
    25    65    66    1
    26    65    68    1
    27    97    98    1
    28    97   100    1
    29    98    99    2
    30    86    87   ar
    31    89    90    1
    32    67    66    2
    33    60    61    1
    34    91    92    2
    35    91    90    1
    36    62    61    2
    37    74    73    1
    38    74    75    2
    39    73    76    1
    40    52    53   ar
    41    49    51   ar
    42    61    63   am
    43    90    93    1
    44    68    69    1
    45   100   101    1
    46   103   101    1
    47   101   102    1
    48    70    69    1
    49    53    51   ar
    50    53    54    1
    51    76    77    1
    52    35    34    2
    53    93    95    1
    54    93    94    1
    55    69    71    1
    56    77    79    1
    57    77    78    1
    58    34    33    1
    59    36    33    1
    60    36    37    1
    61    33    32    1
    62    39    37   ar
    63    39    41   ar
    64    37    38   ar
    65    15    14    2
    66    19    21   ar
    67    19    17   ar
    68    16    17    1
    69    16    13    1
    70    27    26    2
    71    26    25    1
    72    14    13    1
    73    21    22   ar
    74    41    42   ar
    75    17    18   ar
    76    38    40   ar
    77    13    12    1
    78    22    23    1
    79    22    20   ar
    80    18    20   ar
    81    42    40   ar
    82    25    28    1
    83    25    24    1
    84    28    29    1
    85    12     3   am
    86    29    31    1
    87    29    30    1
    88     4     3    2
    89     3     2    1
    90     1     2    1
    91     2     5    1
    92     8    10   ar
    93     8     6   ar
    94     5     6    1
    95    10    11   ar
    96     6     7   ar
    97    11     9   ar
    98     7     9   ar
