@<TRIPOS>MOLECULE
tmp/5y79B03.pdb
 80 75 0 0 0
SMALL
GASTEIGER

@<TRIPOS>ATOM
      1  N         26.7480  222.6530  -46.7520 N.3    22  PHE22      -0.1227
      2  CA        27.9920  222.0340  -47.2030 C.3    22  PHE22       0.1736
      3  C         29.0730  223.0820  -47.4120 C.2    22  PHE22       0.2595
      4  O         30.2030  222.9290  -46.9300 O.2    22  PHE22      -0.2718
      5  CB        27.7710  221.2400  -48.4890 C.3    22  PHE22       0.0547
      6  CG        29.0500  220.7840  -49.1390 C.ar   22  PHE22      -0.0202
      7  CD1       29.7400  219.6860  -48.6460 C.ar   22  PHE22      -0.0042
      8  CD2       29.5700  221.4550  -50.2320 C.ar   22  PHE22      -0.0042
      9  CE1       30.9220  219.2670  -49.2380 C.ar   22  PHE22      -0.0003
     10  CE2       30.7490  221.0380  -50.8280 C.ar   22  PHE22      -0.0003
     11  CZ        31.4250  219.9450  -50.3280 C.ar   22  PHE22      -0.0000
     12  N         28.7470  224.1500  -48.1450 N.am   23  ILE23      -0.1980
     13  CA        29.6920  225.2460  -48.3280 C.3    23  ILE23       0.1595
     14  C         30.1530  225.7760  -46.9790 C.2    23  ILE23       0.2287
     15  O         31.3430  226.0430  -46.7740 O.2    23  ILE23      -0.2864
     16  CB        29.0570  226.3540  -49.1860 C.3    23  ILE23       0.0276
     17  CG1       28.7600  225.8240  -50.5890 C.3    23  ILE23       0.0022
     18  CG2       29.9610  227.5740  -49.2390 C.3    23  ILE23       0.0022
     19  CD1       27.9900  226.7890  -51.4450 C.3    23  ILE23       0.0001
     20  N         32.7080  223.1960  -45.0620 N.3    26  ILE26      -0.1231
     21  CA        34.0590  223.2150  -45.6200 C.3    26  ILE26       0.1692
     22  C         34.7960  224.4740  -45.1810 C.2    26  ILE26       0.2591
     23  O         35.9250  224.4130  -44.6790 O.2    26  ILE26      -0.2718
     24  CB        34.0120  223.1050  -47.1540 C.3    26  ILE26       0.0266
     25  CG1       33.2640  221.8370  -47.5850 C.3    26  ILE26       0.0019
     26  CG2       35.4190  223.1450  -47.7270 C.3    26  ILE26       0.0020
     27  CD1       33.8590  220.5570  -47.0400 C.3    26  ILE26       0.0001
     28  N         34.1640  225.6370  -45.3640 N.am   27  ALA27      -0.1980
     29  CA        34.8260  226.8990  -45.0470 C.3    27  ALA27       0.1597
     30  C         35.0520  227.0410  -43.5480 C.2    27  ALA27       0.2287
     31  O         36.1040  227.5270  -43.1150 O.2    27  ALA27      -0.2864
     32  CB        34.0050  228.0700  -45.5810 C.3    27  ALA27       0.0319
     33  N         38.0130  224.9150  -42.5280 N.3    30  ARG30      -0.1245
     34  CA        39.2270  225.5750  -43.0010 C.3    30  ARG30       0.1563
     35  C         39.5760  226.7780  -42.1320 C.2    30  ARG30       0.2260
     36  O         40.7560  227.0490  -41.8800 O.2    30  ARG30      -0.2867
     37  CB        39.0650  225.9890  -44.4640 C.3    30  ARG30       0.0307
     38  CG        39.1420  224.8090  -45.4200 C.3    30  ARG30       0.0489
     39  CD        38.8640  225.2020  -46.8610 C.3    30  ARG30       0.2205
     40  NE        39.3070  224.1510  -47.7740 N.pl3  30  ARG30      -0.0865
     41  CZ        38.9230  224.0410  -49.0410 C.cat  30  ARG30       0.5346
     42  NH1       39.3840  223.0500  -49.7920 N.pl3  30  ARG30       0.1354
     43  NH2       38.0720  224.9140  -49.5540 N.pl3  30  ARG30       0.1354
     44  N         43.0710  237.5620  -45.9860 N.3   225  LYS225     -0.1245
     45  CA        42.5370  236.2680  -46.3960 C.3   225  LYS225      0.1561
     46  C         41.8880  235.5430  -45.2230 C.2   225  LYS225      0.2260
     47  O         40.8510  234.8880  -45.3880 O.2   225  LYS225     -0.2867
     48  CB        43.6430  235.4110  -47.0160 C.3   225  LYS225      0.0271
     49  CG        43.0230  234.2230  -47.7100 C.3   225  LYS225      0.0035
     50  CD        43.8640  233.6330  -48.8130 C.3   225  LYS225      0.0206
     51  CE        45.0860  232.9320  -48.2810 C.3   225  LYS225      0.1093
     52  NZ        45.8700  232.3630  -49.4230 N.3   225  LYS225     -0.1314
     53  N         38.6310  237.3480  -44.6360 N.3   228  GLY228     -0.1210
     54  CA        37.6620  236.9620  -45.6480 C.3   228  GLY228      0.1956
     55  C         37.1150  235.5640  -45.4290 C.2   228  GLY228      0.2612
     56  O         35.9410  235.2970  -45.6980 O.2   228  GLY228     -0.2717
     57  N         37.9600  234.6530  -44.9410 N.am  229  SER229     -0.1952
     58  CA        37.5010  233.3010  -44.6370 C.3   229  SER229      0.1924
     59  C         36.5090  233.2990  -43.4780 C.2   229  SER229      0.2314
     60  O         35.5510  232.5180  -43.4750 O.2   229  SER229     -0.2863
     61  CB        38.6950  232.4010  -44.3190 C.3   229  SER229      0.2116
     62  OG        38.2640  231.0960  -43.9660 O.3   229  SER229     -0.2180
     63  N         33.2300  234.6460  -44.8670 N.3   232  PHE232     -0.1241
     64  CA        32.6250  233.7180  -45.8160 C.3   232  PHE232      0.1605
     65  C         31.8470  232.6200  -45.0970 C.2   232  PHE232      0.2264
     66  O         30.6720  232.3790  -45.3970 O.2   232  PHE232     -0.2867
     67  CB        33.7100  233.1250  -46.7180 C.3   232  PHE232      0.0534
     68  CG        33.1790  232.2450  -47.8180 C.ar  232  PHE232     -0.0203
     69  CD1       32.9730  230.8910  -47.6040 C.ar  232  PHE232     -0.0042
     70  CD2       32.8940  232.7700  -49.0680 C.ar  232  PHE232     -0.0042
     71  CE1       32.4900  230.0800  -48.6130 C.ar  232  PHE232     -0.0003
     72  CE2       32.4100  231.9630  -50.0800 C.ar  232  PHE232     -0.0003
     73  CZ        32.2100  230.6150  -49.8520 C.ar  232  PHE232     -0.0000
     74  N         37.1510  216.3130  -49.3510 N.3   274  VAL274     -0.1245
     75  CA        37.8520  217.5950  -49.3750 C.3   274  VAL274      0.1561
     76  C         39.0770  217.5580  -48.4690 C.2   274  VAL274      0.2260
     77  O         40.1610  218.0180  -48.8480 O.2   274  VAL274     -0.2867
     78  CB        36.8890  218.7320  -48.9810 C.3   274  VAL274      0.0252
     79  CG1       37.6550  220.0200  -48.7100 C.3   274  VAL274      0.0019
     80  CG2       35.8480  218.9430  -50.0740 C.3   274  VAL274      0.0019
@<TRIPOS>BOND
     1    19    17    1
     2    10    11   ar
     3    10     8   ar
     4    17    16    1
     5    11     9   ar
     6     8     6   ar
     7    72    73   ar
     8    72    70   ar
     9    80    78    1
    10    73    71   ar
    11    42    41    1
    12    43    41    1
    13    52    51    1
    14    75    74    1
    15    75    78    1
    16    75    76    1
    17    18    16    1
    18     9     7   ar
    19    16    13    1
    20     6     7   ar
    21     6     5    1
    22    70    68   ar
    23    41    40    2
    24    78    79    1
    25    77    76    2
    26    50    51    1
    27    50    49    1
    28    71    69   ar
    29     5     2    1
    30    13    12    1
    31    13    14    1
    32    12     3   am
    33    68    69   ar
    34    68    67    1
    35    40    39    1
    36    26    24    1
    37    49    48    1
    38    25    24    1
    39    25    27    1
    40     3     2    1
    41     3     4    2
    42     2     1    1
    43    24    21    1
    44    48    45    1
    45    14    15    2
    46    39    38    1
    47    67    64    1
    48    45    44    1
    49    45    46    1
    50    64    65    1
    51    64    63    1
    52    56    55    2
    53    54    55    1
    54    54    53    1
    55    21    22    1
    56    21    20    1
    57    32    29    1
    58    55    57   am
    59    38    37    1
    60    66    65    2
    61    47    46    2
    62    28    22   am
    63    28    29    1
    64    22    23    2
    65    29    30    1
    66    57    58    1
    67    58    61    1
    68    58    59    1
    69    37    34    1
    70    61    62    1
    71    30    31    2
    72    59    60    2
    73    34    33    1
    74    34    35    1
    75    35    36    2
