@<TRIPOS>MOLECULE
tmp/5y79A09.pdb
 128 123 0 0 0
SMALL
GASTEIGER

@<TRIPOS>ATOM
      1  N         22.5990  195.9670  -16.5230 N.3   107  ALA107     -0.1245
      2  CA        21.6150  196.5720  -17.4140 C.3   107  ALA107      0.1562
      3  C         20.5540  195.5830  -17.8750 C.2   107  ALA107      0.2260
      4  O         19.7090  195.9430  -18.7030 O.2   107  ALA107     -0.2867
      5  CB        22.3080  197.1890  -18.6300 C.3   107  ALA107      0.0290
      6  N         16.6550  196.4990  -18.3980 N.3   110  VAL110     -0.1231
      7  CA        16.2160  197.2040  -19.6010 C.3   110  VAL110      0.1692
      8  C         15.8950  196.2090  -20.7070 C.2   110  VAL110      0.2592
      9  O         14.8450  196.2930  -21.3580 O.2   110  VAL110     -0.2718
     10  CB        17.2710  198.2260  -20.0580 C.3   110  VAL110      0.0266
     11  CG1       16.7860  198.9340  -21.3150 C.3   110  VAL110      0.0020
     12  CG2       17.5610  199.2310  -18.9560 C.3   110  VAL110      0.0020
     13  N         16.8000  195.2540  -20.9400 N.am  111  PHE111     -0.1976
     14  CA        16.5170  194.1770  -21.8830 C.3   111  PHE111      0.1639
     15  C         15.2890  193.3860  -21.4570 C.2   111  PHE111      0.2290
     16  O         14.5030  192.9440  -22.3020 O.2   111  PHE111     -0.2864
     17  CB        17.7250  193.2440  -22.0030 C.3   111  PHE111      0.0560
     18  CG        18.9660  193.9110  -22.5330 C.ar  111  PHE111     -0.0200
     19  CD1       19.8710  194.5130  -21.6710 C.ar  111  PHE111     -0.0042
     20  CD2       19.2380  193.9190  -23.8920 C.ar  111  PHE111     -0.0042
     21  CE1       21.0210  195.1170  -22.1580 C.ar  111  PHE111     -0.0003
     22  CE2       20.3880  194.5230  -24.3820 C.ar  111  PHE111     -0.0003
     23  CZ        21.2770  195.1220  -23.5130 C.ar  111  PHE111     -0.0000
     24  N         17.8650  206.2000  -20.0180 N.3   132  LEU132     -0.1245
     25  CA        18.9330  205.5340  -20.7550 C.3   132  LEU132      0.1561
     26  C         20.2110  206.3580  -20.7660 C.2   132  LEU132      0.2260
     27  O         21.3060  205.7950  -20.8900 O.2   132  LEU132     -0.2867
     28  CB        18.4940  205.2480  -22.1880 C.3   132  LEU132      0.0270
     29  CG        17.4780  204.1290  -22.3790 C.3   132  LEU132      0.0019
     30  CD1       17.2550  203.9160  -23.8610 C.3   132  LEU132      0.0001
     31  CD2       17.9720  202.8590  -21.7160 C.3   132  LEU132      0.0001
     32  N         22.4130  205.3320  -17.9830 N.3   135  ILE135     -0.1231
     33  CA        22.7890  203.9300  -18.1630 C.3   135  ILE135      0.1692
     34  C         23.8980  203.8050  -19.1970 C.2   135  ILE135      0.2591
     35  O         24.9460  203.2010  -18.9400 O.2   135  ILE135     -0.2718
     36  CB        21.5670  203.0870  -18.5690 C.3   135  ILE135      0.0266
     37  CG1       20.4930  203.1070  -17.4850 C.3   135  ILE135      0.0019
     38  CG2       21.9860  201.6570  -18.8580 C.3   135  ILE135      0.0020
     39  CD1       19.2250  202.3920  -17.8960 C.3   135  ILE135      0.0001
     40  N         23.6740  204.3630  -20.3880 N.am  136  VAL136     -0.1980
     41  CA        24.6720  204.2910  -21.4510 C.3   136  VAL136      0.1595
     42  C         25.9410  205.0340  -21.0440 C.2   136  VAL136      0.2287
     43  O         27.0580  204.5380  -21.2370 O.2   136  VAL136     -0.2864
     44  CB        24.0780  204.8350  -22.7650 C.3   136  VAL136      0.0276
     45  CG1       25.1560  204.9690  -23.8270 C.3   136  VAL136      0.0022
     46  CG2       22.9610  203.9230  -23.2520 C.3   136  VAL136      0.0022
     47  N         27.8400  202.9100  -18.1180 N.3   139  VAL139     -0.1231
     48  CA        28.5400  201.7420  -18.6490 C.3   139  VAL139      0.1692
     49  C         29.7280  202.1730  -19.5030 C.2   139  VAL139      0.2591
     50  O         30.8110  201.5790  -19.4330 O.2   139  VAL139     -0.2718
     51  CB        27.5640  200.8490  -19.4390 C.3   139  VAL139      0.0266
     52  CG1       28.3090  199.6950  -20.0920 C.3   139  VAL139      0.0020
     53  CG2       26.4540  200.3280  -18.5300 C.3   139  VAL139      0.0020
     54  N         29.5460  203.2120  -20.3210 N.am  140  ALA140     -0.1980
     55  CA        30.6410  203.6960  -21.1570 C.3   140  ALA140      0.1597
     56  C         31.8030  204.1840  -20.3050 C.2   140  ALA140      0.2287
     57  O         32.9670  203.8840  -20.5940 O.2   140  ALA140     -0.2864
     58  CB        30.1510  204.8060  -22.0820 C.3   140  ALA140      0.0319
     59  N         33.4730  201.1040  -18.6190 N.3   143  ALA143     -0.1231
     60  CA        34.3270  200.3740  -19.5500 C.3   143  ALA143      0.1694
     61  C         35.5920  201.1560  -19.8840 C.2   143  ALA143      0.2591
     62  O         36.6800  200.5760  -19.9700 O.2   143  ALA143     -0.2718
     63  CB        33.5480  200.0450  -20.8240 C.3   143  ALA143      0.0304
     64  N         35.4730  202.4730  -20.0720 N.am  144  ALA144     -0.1980
     65  CA        36.6210  203.2840  -20.4650 C.3   144  ALA144      0.1597
     66  C         37.6540  203.4170  -19.3550 C.2   144  ALA144      0.2287
     67  O         38.7950  203.7940  -19.6340 O.2   144  ALA144     -0.2864
     68  CB        36.1590  204.6720  -20.9070 C.3   144  ALA144      0.0319
     69  N         37.9720  200.7610  -16.9480 N.3   146  GLU146     -0.1245
     70  CA        38.1890  199.4190  -16.4230 C.3   146  GLU146      0.1567
     71  C         39.5660  198.9250  -16.8490 C.2   146  GLU146      0.2260
     72  O         39.8680  198.8640  -18.0450 O.2   146  GLU146     -0.2867
     73  CB        37.0930  198.4770  -16.9160 C.3   146  GLU146      0.0388
     74  CG        37.3250  197.0030  -16.6000 C.3   146  GLU146      0.1160
     75  CD        37.4950  196.7420  -15.1120 C.2   146  GLU146      0.3649
     76  OE1       38.4960  196.1000  -14.7290 O.co2 146  GLU146     -0.2457
     77  OE2       36.6320  197.1880  -14.3260 O.co2 146  GLU146     -0.2457
     78  N         39.7040  195.7910  -19.1850 N.3   149  PHE149     -0.1227
     79  CA        38.7590  195.8320  -20.2960 C.3   149  PHE149      0.1736
     80  C         39.3130  195.1480  -21.5410 C.2   149  PHE149      0.2596
     81  O         40.4510  195.3920  -21.9500 O.2   149  PHE149     -0.2718
     82  CB        38.3890  197.2830  -20.6290 C.3   149  PHE149      0.0547
     83  CG        37.4560  197.4160  -21.8070 C.ar  149  PHE149     -0.0202
     84  CD1       37.9500  197.5020  -23.1040 C.ar  149  PHE149     -0.0042
     85  CD2       36.0860  197.4440  -21.6200 C.ar  149  PHE149     -0.0042
     86  CE1       37.0940  197.6130  -24.1840 C.ar  149  PHE149     -0.0003
     87  CE2       35.2230  197.5580  -22.7000 C.ar  149  PHE149     -0.0003
     88  CZ        35.7290  197.6420  -23.9820 C.ar  149  PHE149     -0.0000
     89  N         38.4910  194.2920  -22.1460 N.am  150  THR150     -0.1939
     90  CA        38.6850  193.8330  -23.5140 C.3   150  THR150      0.2028
     91  C         37.3370  193.8810  -24.2200 C.2   150  THR150      0.2642
     92  O         36.2870  193.7430  -23.5870 O.2   150  THR150     -0.2714
     93  CB        39.2580  192.4030  -23.6030 C.3   150  THR150      0.1808
     94  OG1       38.2120  191.4460  -23.3950 O.3   150  THR150     -0.2208
     95  CG2       40.3570  192.1750  -22.5650 C.3   150  THR150      0.0379
     96  N         37.3700  194.0790  -25.5410 N.am  151  TRP151     -0.1973
     97  CA        36.1220  194.1840  -26.2950 C.3   151  TRP151      0.1640
     98  C         35.3210  192.8910  -26.2290 C.2   151  TRP151      0.2290
     99  O         34.0960  192.9210  -26.0660 O.2   151  TRP151     -0.2864
    100  CB        36.4050  194.5640  -27.7470 C.3   151  TRP151      0.0576
    101  CG        36.6440  196.0180  -27.9270 C.ar  151  TRP151      0.0006
    102  CD1       37.8340  196.6230  -28.1980 C.ar  151  TRP151      0.0946
    103  CD2       35.6710  197.0670  -27.8290 C.ar  151  TRP151      0.0152
    104  NE1       37.6650  197.9830  -28.2830 N.ar  151  TRP151     -0.2442
    105  CE2       36.3460  198.2820  -28.0610 C.ar  151  TRP151      0.0810
    106  CE3       34.2950  197.0970  -27.5720 C.ar  151  TRP151      0.0012
    107  CZ2       35.6960  199.5140  -28.0450 C.ar  151  TRP151      0.0191
    108  CZ3       33.6490  198.3220  -27.5560 C.ar  151  TRP151      0.0001
    109  CH2       34.3510  199.5130  -27.7930 C.ar  151  TRP151      0.0015
    110  N         33.6500  192.5030  -22.9410 N.3   154  PHE154     -0.1241
    111  CA        32.5030  193.3970  -22.8340 C.3   154  PHE154      0.1605
    112  C         31.3200  192.8820  -23.6430 C.2   154  PHE154      0.2264
    113  O         30.1770  192.9130  -23.1720 O.2   154  PHE154     -0.2867
    114  CB        32.8970  194.7970  -23.2990 C.3   154  PHE154      0.0534
    115  CG        31.7670  195.7780  -23.3100 C.ar  154  PHE154     -0.0203
    116  CD1       31.2670  196.2860  -22.1250 C.ar  154  PHE154     -0.0042
    117  CD2       31.2140  196.2040  -24.5040 C.ar  154  PHE154     -0.0042
    118  CE1       30.2320  197.1970  -22.1290 C.ar  154  PHE154     -0.0003
    119  CE2       30.1710  197.1160  -24.5140 C.ar  154  PHE154     -0.0003
    120  CZ        29.6830  197.6120  -23.3240 C.ar  154  PHE154     -0.0000
    121  N         27.4690  191.6020  -22.5930 N.3   158  MET158     -0.1245
    122  CA        26.2870  192.2820  -23.1170 C.3   158  MET158      0.1570
    123  C         25.3580  191.3030  -23.8250 C.2   158  MET158      0.2261
    124  O         24.1310  191.4150  -23.7220 O.2   158  MET158     -0.2867
    125  CB        26.7090  193.4040  -24.0670 C.3   158  MET158      0.0387
    126  CG        25.5760  194.3180  -24.4900 C.3   158  MET158      0.0595
    127  SD        24.9780  195.3440  -23.1300 S.3   158  MET158     -0.1393
    128  CE        26.3610  196.4500  -22.9090 C.3   158  MET158      0.0692
@<TRIPOS>BOND
     1   104   102   ar
     2   104   105   ar
     3   102   101   ar
     4   105   107   ar
     5   105   103   ar
     6   107   109   ar
     7   101   103   ar
     8   101   100    1
     9   103   106   ar
    10   109   108   ar
    11   100    97    1
    12   106   108   ar
    13    97    98    1
    14    97    96    1
    15    98    99    2
    16    96    91   am
    17   119   117   ar
    18   119   120   ar
    19   117   115   ar
    20   126   125    1
    21   126   127    1
    22    22    20   ar
    23    22    23   ar
    24    91    92    2
    25    91    90    1
    26    86    88   ar
    27    86    84   ar
    28   125   122    1
    29    88    87   ar
    30    20    18   ar
    31    30    29    1
    32    45    44    1
    33   123   124    2
    34   123   122    1
    35   112   113    2
    36   112   111    1
    37    93    90    1
    38    93    94    1
    39    93    95    1
    40    90    89    1
    41    23    21   ar
    42   120   118   ar
    43   115   114    1
    44   115   116   ar
    45   114   111    1
    46    46    44    1
    47   127   128    1
    48   122   121    1
    49    84    83   ar
    50   110   111    1
    51    44    41    1
    52    87    85   ar
    53    18    17    1
    54    18    19   ar
    55    29    28    1
    56    29    31    1
    57    16    15    2
    58    28    25    1
    59    21    19   ar
    60    89    80   am
    61   118   116   ar
    62    58    55    1
    63    17    14    1
    64    81    80    2
    65    14    15    1
    66    14    13    1
    67    83    85   ar
    68    83    82    1
    69    80    79    1
    70    41    42    1
    71    41    40    1
    72     9     8    2
    73    11    10    1
    74    43    42    2
    75    55    54    1
    76    55    56    1
    77    13     8   am
    78    68    65    1
    79    27    26    2
    80    63    60    1
    81    26    25    1
    82    25    24    1
    83     8     7    1
    84    82    79    1
    85    57    56    2
    86    65    64    1
    87    65    66    1
    88    40    34   am
    89    54    49   am
    90    79    78    1
    91    52    51    1
    92    64    61   am
    93    10     7    1
    94    10    12    1
    95    62    61    2
    96    61    60    1
    97    67    66    2
    98     7     6    1
    99    60    59    1
   100    49    50    2
   101    49    48    1
   102    51    48    1
   103    51    53    1
   104    34    35    2
   105    34    33    1
   106    38    36    1
   107     4     3    2
   108    48    47    1
   109     5     2    1
   110    36    33    1
   111    36    37    1
   112    33    32    1
   113    72    71    2
   114    39    37    1
   115     3     2    1
   116     2     1    1
   117    69    70    1
   118    73    74    1
   119    73    70    1
   120    71    70    1
   121    74    75    1
   122    75    76   ar
   123    75    77   ar
