@<TRIPOS>MOLECULE
tmp/5y79A08.pdb
 73 68 0 0 0
SMALL
GASTEIGER

@<TRIPOS>ATOM
      1  N         13.2820  206.6620  -22.0110 N.3   129  TYR129     -0.1241
      2  CA        14.4090  207.0370  -22.8570 C.3   129  TYR129      0.1605
      3  C         15.3430  208.0050  -22.1470 C.2   129  TYR129      0.2264
      4  O         16.5560  207.9770  -22.3810 O.2   129  TYR129     -0.2867
      5  CB        13.9130  207.6450  -24.1680 C.3   129  TYR129      0.0534
      6  CG        13.6770  206.6190  -25.2500 C.ar  129  TYR129     -0.0201
      7  CD1       12.4410  206.0040  -25.3960 C.ar  129  TYR129     -0.0009
      8  CD2       14.6970  206.2550  -26.1200 C.ar  129  TYR129     -0.0009
      9  CE1       12.2260  205.0560  -26.3820 C.ar  129  TYR129      0.0417
     10  CE2       14.4920  205.3120  -27.1080 C.ar  129  TYR129      0.0417
     11  CZ        13.2550  204.7150  -27.2360 C.ar  129  TYR129      0.1957
     12  OH        13.0450  203.7730  -28.2180 O.3   129  TYR129     -0.2866
     13  N         17.8650  206.2000  -20.0180 N.3   132  LEU132     -0.1231
     14  CA        18.9330  205.5340  -20.7550 C.3   132  LEU132      0.1693
     15  C         20.2110  206.3580  -20.7660 C.2   132  LEU132      0.2591
     16  O         21.3060  205.7950  -20.8900 O.2   132  LEU132     -0.2718
     17  CB        18.4940  205.2480  -22.1880 C.3   132  LEU132      0.0284
     18  CG        17.4780  204.1290  -22.3790 C.3   132  LEU132      0.0019
     19  CD1       17.2550  203.9160  -23.8610 C.3   132  LEU132      0.0001
     20  CD2       17.9720  202.8590  -21.7160 C.3   132  LEU132      0.0001
     21  N         20.0920  207.6840  -20.6540 N.am  133  VAL133     -0.1980
     22  CA        21.2820  208.5330  -20.6820 C.3   133  VAL133      0.1595
     23  C         22.2580  208.1880  -19.5690 C.2   133  VAL133      0.2287
     24  O         23.4490  207.9810  -19.8650 O.2   133  VAL133     -0.2864
     25  CB        20.8670  210.0240  -20.6820 C.3   133  VAL133      0.0276
     26  CG1       22.0800  210.9070  -20.4610 C.3   133  VAL133      0.0022
     27  CG2       20.1730  210.3750  -21.9930 C.3   133  VAL133      0.0022
     28  N         23.6740  204.3630  -20.3880 N.3   136  VAL136     -0.1231
     29  CA        24.6720  204.2910  -21.4510 C.3   136  VAL136      0.1692
     30  C         25.9410  205.0340  -21.0440 C.2   136  VAL136      0.2592
     31  O         27.0580  204.5380  -21.2370 O.2   136  VAL136     -0.2718
     32  CB        24.0780  204.8350  -22.7650 C.3   136  VAL136      0.0266
     33  CG1       25.1560  204.9690  -23.8270 C.3   136  VAL136      0.0020
     34  CG2       22.9610  203.9230  -23.2520 C.3   136  VAL136      0.0020
     35  N         25.7910  206.2190  -20.4440 N.am  137  SER137     -0.1952
     36  CA        26.9550  206.9840  -20.0030 C.3   137  SER137      0.1924
     37  C         27.7170  206.2520  -18.9050 C.2   137  SER137      0.2314
     38  O         28.9560  206.2390  -18.9030 O.2   137  SER137     -0.2863
     39  CB        26.5290  208.3690  -19.5190 C.3   137  SER137      0.2116
     40  OG        25.8790  209.0990  -20.5400 O.3   137  SER137     -0.2180
     41  N         29.5460  203.2120  -20.3210 N.3   140  ALA140     -0.1231
     42  CA        30.6410  203.6960  -21.1570 C.3   140  ALA140      0.1694
     43  C         31.8030  204.1840  -20.3050 C.2   140  ALA140      0.2591
     44  O         32.9670  203.8840  -20.5940 O.2   140  ALA140     -0.2718
     45  CB        30.1510  204.8060  -22.0820 C.3   140  ALA140      0.0304
     46  N         31.5040  204.9320  -19.2430 N.am  141  LEU141     -0.1980
     47  CA        32.5500  205.4060  -18.3440 C.3   141  LEU141      0.1596
     48  C         33.1880  204.2490  -17.5840 C.2   141  LEU141      0.2287
     49  O         34.4080  204.2270  -17.3810 O.2   141  LEU141     -0.2864
     50  CB        31.9670  206.4310  -17.3760 C.3   141  LEU141      0.0297
     51  CG        32.9380  207.0640  -16.3870 C.3   141  LEU141      0.0022
     52  CD1       34.1460  207.6090  -17.1290 C.3   141  LEU141      0.0001
     53  CD2       32.2320  208.1680  -15.6210 C.3   141  LEU141      0.0001
     54  N         35.4730  202.4730  -20.0720 N.3   144  ALA144     -0.1231
     55  CA        36.6210  203.2840  -20.4650 C.3   144  ALA144      0.1694
     56  C         37.6540  203.4170  -19.3550 C.2   144  ALA144      0.2592
     57  O         38.7950  203.7940  -19.6340 O.2   144  ALA144     -0.2718
     58  CB        36.1590  204.6720  -20.9070 C.3   144  ALA144      0.0304
     59  N         37.2830  203.1250  -18.1110 N.am  145  THR145     -0.1953
     60  CA        38.2020  203.2020  -16.9870 C.3   145  THR145      0.1897
     61  C         38.5000  201.8400  -16.3740 C.2   145  THR145      0.2313
     62  O         39.2140  201.7710  -15.3680 O.2   145  THR145     -0.2863
     63  CB        37.6410  204.1420  -15.9120 C.3   145  THR145      0.1794
     64  OG1       36.3400  203.6880  -15.5160 O.3   145  THR145     -0.2208
     65  CG2       37.5320  205.5680  -16.4480 C.3   145  THR145      0.0378
     66  N         36.6760  207.3390  -11.0040 N.3   282  LEU282     -0.1245
     67  CA        35.8070  207.4250  -12.1740 C.3   282  LEU282      0.1561
     68  C         35.1210  206.0970  -12.4530 C.2   282  LEU282      0.2260
     69  O         33.9660  206.0650  -12.8930 O.2   282  LEU282     -0.2867
     70  CB        36.6110  207.8720  -13.3960 C.3   282  LEU282      0.0270
     71  CG        36.7540  209.3780  -13.6080 C.3   282  LEU282      0.0019
     72  CD1       37.5390  209.6500  -14.8780 C.3   282  LEU282      0.0001
     73  CD2       35.3800  210.0150  -13.6710 C.3   282  LEU282      0.0001
@<TRIPOS>BOND
     1    12    11    1
     2    11    10   ar
     3    11     9   ar
     4    10     8   ar
     5     9     7   ar
     6     8     6   ar
     7     7     6   ar
     8     6     5    1
     9     5     2    1
    10    19    18    1
    11    33    32    1
    12    34    32    1
    13     2     3    1
    14     2     1    1
    15    32    29    1
    16     4     3    2
    17    18    17    1
    18    18    20    1
    19    17    14    1
    20    45    42    1
    21    27    25    1
    22    29    30    1
    23    29    28    1
    24    31    30    2
    25    42    41    1
    26    42    43    1
    27    30    35   am
    28    58    55    1
    29    16    15    2
    30    15    14    1
    31    15    21   am
    32    14    13    1
    33    25    22    1
    34    25    26    1
    35    22    21    1
    36    22    23    1
    37    44    43    2
    38    40    39    1
    39    55    54    1
    40    55    56    1
    41    35    36    1
    42    43    46   am
    43    36    39    1
    44    36    37    1
    45    24    23    2
    46    57    56    2
    47    56    59   am
    48    46    47    1
    49    37    38    2
    50    47    48    1
    51    47    50    1
    52    59    60    1
    53    48    49    2
    54    50    51    1
    55    52    51    1
    56    60    61    1
    57    60    63    1
    58    65    63    1
    59    51    53    1
    60    61    62    2
    61    63    64    1
    62    72    71    1
    63    73    71    1
    64    71    70    1
    65    70    67    1
    66    69    68    2
    67    68    67    1
    68    67    66    1
