@<TRIPOS>MOLECULE
tmp/5y79A04.pdb
 144 138 0 0 0
SMALL
GASTEIGER

@<TRIPOS>ATOM
      1  N         42.7030  177.6270  -14.5720 N.3    35  TRP35      -0.1241
      2  CA        42.2470  176.6990  -15.6100 C.3    35  TRP35       0.1605
      3  C         41.3660  177.4320  -16.6180 C.2    35  TRP35       0.2264
      4  O         40.1370  177.3400  -16.5610 O.2    35  TRP35      -0.2867
      5  CB        41.4980  175.5480  -14.9580 C.3    35  TRP35       0.0550
      6  CG        41.4210  174.2990  -15.7750 C.ar   35  TRP35       0.0003
      7  CD1       42.4690  173.5790  -16.2760 C.ar   35  TRP35       0.0946
      8  CD2       40.2330  173.6040  -16.1670 C.ar   35  TRP35       0.0152
      9  NE1       42.0050  172.4900  -16.9730 N.ar   35  TRP35      -0.2442
     10  CE2       40.6360  172.4800  -16.9180 C.ar   35  TRP35       0.0810
     11  CE3       38.8680  173.8260  -15.9630 C.ar   35  TRP35       0.0012
     12  CZ2       39.7240  171.5830  -17.4650 C.ar   35  TRP35       0.0191
     13  CZ3       37.9610  172.9320  -16.5090 C.ar   35  TRP35       0.0001
     14  CH2       38.3950  171.8230  -17.2500 C.ar   35  TRP35       0.0015
     15  N         34.6520  174.5540  -21.6670 N.3    40  VAL40      -0.1245
     16  CA        34.5840  173.2510  -21.0120 C.3    40  VAL40       0.1561
     17  C         34.1040  173.3950  -19.5720 C.2    40  VAL40       0.2260
     18  O         33.3010  172.5880  -19.0900 O.2    40  VAL40      -0.2867
     19  CB        35.9460  172.5390  -21.0950 C.3    40  VAL40       0.0252
     20  CG1       35.9760  171.3320  -20.1700 C.3    40  VAL40       0.0019
     21  CG2       36.2210  172.1000  -22.5290 C.3    40  VAL40       0.0019
     22  N         30.3950  173.9820  -19.5350 N.3    43  THR43      -0.1203
     23  CA        29.7270  172.7270  -19.8780 C.3    43  THR43       0.1994
     24  C         29.7330  171.7530  -18.7040 C.2    43  THR43       0.2617
     25  O         28.7260  171.0840  -18.4400 O.2    43  THR43      -0.2717
     26  CB        30.3950  172.0960  -21.1010 C.3    43  THR43       0.1784
     27  OG1       30.1770  172.9280  -22.2470 O.3    43  THR43      -0.2211
     28  CG2       29.8310  170.7050  -21.3710 C.3    43  THR43       0.0376
     29  N         30.8590  171.6600  -17.9890 N.am   44  ILE44      -0.1979
     30  CA        30.9320  170.7920  -16.8150 C.3    44  ILE44       0.1595
     31  C         29.9230  171.2330  -15.7620 C.2    44  ILE44       0.2287
     32  O         29.2860  170.4020  -15.1020 O.2    44  ILE44      -0.2864
     33  CB        32.3660  170.7780  -16.2490 C.3    44  ILE44       0.0276
     34  CG1       33.3220  170.0730  -17.2130 C.3    44  ILE44       0.0022
     35  CG2       32.4030  170.1270  -14.8720 C.3    44  ILE44       0.0022
     36  CD1       34.7920  170.2560  -16.8550 C.3    44  ILE44       0.0001
     37  N         26.6630  169.8990  -16.6300 N.3    47  GLY47      -0.1210
     38  CA        26.6360  168.4560  -16.4450 C.3    47  GLY47       0.1956
     39  C         26.5350  168.0500  -14.9880 C.2    47  GLY47       0.2611
     40  O         25.7970  167.1230  -14.6430 O.2    47  GLY47      -0.2717
     41  N         27.2660  168.7410  -14.1120 N.am   48  VAL48      -0.1979
     42  CA        27.1860  168.4490  -12.6830 C.3    48  VAL48       0.1595
     43  C         25.7740  168.7030  -12.1710 C.2    48  VAL48       0.2287
     44  O         25.2250  167.9090  -11.3950 O.2    48  VAL48      -0.2864
     45  CB        28.2380  169.2710  -11.9140 C.3    48  VAL48       0.0276
     46  CG1       27.9900  169.2050  -10.4140 C.3    48  VAL48       0.0022
     47  CG2       29.6390  168.7660  -12.2480 C.3    48  VAL48       0.0022
     48  N         23.5290  165.8810  -13.5630 N.3    51  LEU51      -0.1245
     49  CA        23.7080  164.6550  -12.7870 C.3    51  LEU51       0.1561
     50  C         23.0400  164.7670  -11.4220 C.2    51  LEU51       0.2260
     51  O         22.3340  163.8510  -10.9860 O.2    51  LEU51      -0.2867
     52  CB        25.1990  164.3440  -12.6230 C.3    51  LEU51       0.0270
     53  CG        25.9910  163.9030  -13.8550 C.3    51  LEU51       0.0019
     54  CD1       27.4180  163.5390  -13.4730 C.3    51  LEU51       0.0001
     55  CD2       25.3080  162.7290  -14.5390 C.3    51  LEU51       0.0001
     56  N         23.0860  171.2090  -21.2550 N.3   198  PHE198     -0.1241
     57  CA        24.3530  170.4860  -21.2630 C.3   198  PHE198      0.1605
     58  C         24.6420  169.9100  -22.6440 C.2   198  PHE198      0.2264
     59  O         25.7060  170.1570  -23.2210 O.2   198  PHE198     -0.2867
     60  CB        24.3410  169.3810  -20.2090 C.3   198  PHE198      0.0534
     61  CG        25.4840  168.4180  -20.3410 C.ar  198  PHE198     -0.0203
     62  CD1       26.7440  168.7500  -19.8760 C.ar  198  PHE198     -0.0042
     63  CD2       25.3020  167.1820  -20.9410 C.ar  198  PHE198     -0.0042
     64  CE1       27.7980  167.8670  -20.0010 C.ar  198  PHE198     -0.0003
     65  CE2       26.3510  166.2990  -21.0720 C.ar  198  PHE198     -0.0003
     66  CZ        27.6000  166.6400  -20.6000 C.ar  198  PHE198     -0.0000
     67  N         27.6550  170.9460  -25.1950 N.3   202  LEU202     -0.1245
     68  CA        28.7220  169.9480  -25.2550 C.3   202  LEU202      0.1561
     69  C         29.4560  169.9060  -26.5920 C.2   202  LEU202      0.2260
     70  O         30.6970  169.9240  -26.5820 O.2   202  LEU202     -0.2867
     71  CB        28.1540  168.5670  -24.8980 C.3   202  LEU202      0.0270
     72  CG        29.1910  167.4470  -24.9580 C.3   202  LEU202      0.0019
     73  CD1       30.2920  167.6930  -23.9360 C.3   202  LEU202      0.0001
     74  CD2       28.5390  166.0880  -24.7430 C.3   202  LEU202      0.0001
     75  N         31.7370  173.0180  -26.8870 N.3   205  ALA205     -0.1231
     76  CA        32.8490  173.0080  -25.9410 C.3   205  ALA205      0.1694
     77  C         33.9380  172.0380  -26.3780 C.2   205  ALA205      0.2591
     78  O         35.1320  172.3340  -26.2500 O.2   205  ALA205     -0.2718
     79  CB        32.3450  172.6530  -24.5430 C.3   205  ALA205      0.0304
     80  N         33.5480  170.8730  -26.8980 N.am  206  LEU206     -0.1980
     81  CA        34.5410  169.9220  -27.3810 C.3   206  LEU206      0.1596
     82  C         35.2400  170.4320  -28.6360 C.2   206  LEU206      0.2287
     83  O         36.4120  170.1120  -28.8620 O.2   206  LEU206     -0.2864
     84  CB        33.8840  168.5660  -27.6410 C.3   206  LEU206      0.0297
     85  CG        33.2500  167.9000  -26.4150 C.3   206  LEU206      0.0022
     86  CD1       32.4890  166.6400  -26.8040 C.3   206  LEU206      0.0001
     87  CD2       34.3120  167.5870  -25.3620 C.3   206  LEU206      0.0001
     88  N         38.4130  171.1020  -26.9080 N.3   210  GLY210     -0.1210
     89  CA        38.7560  169.6960  -26.7910 C.3   210  GLY210      0.1956
     90  C         38.6550  169.2230  -25.3560 C.2   210  GLY210      0.2612
     91  O         37.7150  169.5550  -24.6270 O.2   210  GLY210     -0.2717
     92  N         39.6450  168.4320  -24.9410 N.am  211  PHE211     -0.1962
     93  CA        39.7540  167.9210  -23.5780 C.3   211  PHE211      0.1756
     94  C         40.9630  168.5710  -22.9230 C.2   211  PHE211      0.2461
     95  O         42.0930  168.0800  -23.0640 O.2   211  PHE211     -0.2730
     96  CB        39.8790  166.3960  -23.5730 C.3   211  PHE211      0.0574
     97  CG        38.7070  165.6950  -24.1960 C.ar  211  PHE211     -0.0200
     98  CD1       38.6550  165.4860  -25.5660 C.ar  211  PHE211     -0.0042
     99  CD2       37.6470  165.2600  -23.4170 C.ar  211  PHE211     -0.0042
    100  CE1       37.5730  164.8510  -26.1430 C.ar  211  PHE211     -0.0003
    101  CE2       36.5630  164.6210  -23.9910 C.ar  211  PHE211     -0.0003
    102  CZ        36.5270  164.4180  -25.3540 C.ar  211  PHE211     -0.0000
    103  N         40.7850  169.6810  -22.2130 N.am  212  PRO212     -0.2727
    104  CA        41.9290  170.3780  -21.6240 C.3   212  PRO212      0.1402
    105  C         42.5750  169.5270  -20.5490 C.2   212  PRO212      0.2269
    106  O         41.8760  168.8550  -19.7760 O.2   212  PRO212     -0.2865
    107  CB        41.3080  171.6510  -21.0260 C.3   212  PRO212      0.0296
    108  CG        39.9230  171.7390  -21.6050 C.3   212  PRO212      0.0237
    109  CD        39.5090  170.3290  -21.8750 C.3   212  PRO212      0.0939
    110  N         44.1680  168.5310  -17.0420 N.3   214  LEU214     -0.1245
    111  CA        43.8730  168.9700  -15.6760 C.3   214  LEU214      0.1561
    112  C         45.1660  169.4420  -15.0130 C.2   214  LEU214      0.2260
    113  O         45.7610  168.7730  -14.1670 O.2   214  LEU214     -0.2867
    114  CB        43.2240  167.8440  -14.8900 C.3   214  LEU214      0.0270
    115  CG        42.4650  168.2210  -13.6200 C.3   214  LEU214      0.0019
    116  CD1       41.3530  169.2040  -13.9500 C.3   214  LEU214      0.0001
    117  CD2       41.8940  166.9670  -12.9800 C.3   214  LEU214      0.0001
    118  N         40.7940  169.9440   -9.3290 N.3   227  PHE227     -0.1241
    119  CA        39.5730  169.1660   -9.5140 C.3   227  PHE227      0.1605
    120  C         38.5290  169.5270   -8.4630 C.2   227  PHE227      0.2264
    121  O         37.3470  169.6940   -8.7850 O.2   227  PHE227     -0.2867
    122  CB        39.8830  167.6680   -9.4740 C.3   227  PHE227      0.0534
    123  CG        38.6640  166.7970   -9.6250 C.ar  227  PHE227     -0.0203
    124  CD1       38.0300  166.6810  -10.8520 C.ar  227  PHE227     -0.0042
    125  CD2       38.1440  166.1110   -8.5410 C.ar  227  PHE227     -0.0042
    126  CE1       36.9060  165.8920  -10.9960 C.ar  227  PHE227     -0.0003
    127  CE2       37.0200  165.3180   -8.6790 C.ar  227  PHE227     -0.0003
    128  CZ        36.4000  165.2090   -9.9090 C.ar  227  PHE227     -0.0000
    129  N         36.9180  172.8320   -9.3890 N.3   230  ILE230     -0.1231
    130  CA        35.9650  172.6790  -10.4880 C.3   230  ILE230      0.1692
    131  C         34.6360  172.1470   -9.9670 C.2   230  ILE230      0.2591
    132  O         33.5640  172.6650  -10.3020 O.2   230  ILE230     -0.2718
    133  CB        36.5480  171.7590  -11.5760 C.3   230  ILE230      0.0266
    134  CG1       37.7910  172.3920  -12.2070 C.3   230  ILE230      0.0019
    135  CG2       35.4990  171.4350  -12.6320 C.3   230  ILE230      0.0020
    136  CD1       38.4690  171.5060  -13.2220 C.3   230  ILE230      0.0001
    137  N         34.6890  171.0990   -9.1400 N.am  231  MET231     -0.1979
    138  CA        33.4650  170.4960   -8.6210 C.3   231  MET231      0.1605
    139  C         32.7410  171.4440   -7.6750 C.2   231  MET231      0.2287
    140  O         31.5040  171.4940   -7.6610 O.2   231  MET231     -0.2864
    141  CB        33.7840  169.1830   -7.9050 C.3   231  MET231      0.0413
    142  CG        34.3910  168.1090   -8.7980 C.3   231  MET231      0.0598
    143  SD        33.3610  167.7130  -10.2260 S.3   231  MET231     -0.1393
    144  CE        31.8140  167.3060   -9.4270 C.3   231  MET231      0.0692
@<TRIPOS>BOND
     1    83    82    2
     2    82    81    1
     3    84    81    1
     4    84    85    1
     5    81    80    1
     6    88    89    1
     7    80    77   am
     8    75    76    1
     9    86    85    1
    10    89    90    1
    11    69    70    2
    12    69    68    1
    13    85    87    1
    14    77    78    2
    15    77    76    1
    16   100    98   ar
    17   100   102   ar
    18    76    79    1
    19    98    97   ar
    20    90    92   am
    21    90    91    2
    22   102   101   ar
    23    68    67    1
    24    68    71    1
    25    72    71    1
    26    72    74    1
    27    72    73    1
    28    92    93    1
    29    97    96    1
    30    97    99   ar
    31   101    99   ar
    32    93    96    1
    33    93    94    1
    34    59    58    2
    35    95    94    2
    36    94   103   am
    37    58    57    1
    38    21    19    1
    39    27    26    1
    40   103   109    1
    41   103   104    1
    42   109   108    1
    43    15    16    1
    44   104   107    1
    45   104   105    1
    46   108   107    1
    47    28    26    1
    48    57    56    1
    49    57    60    1
    50    26    23    1
    51    19    16    1
    52    19    20    1
    53    65    63   ar
    54    65    66   ar
    55    16    17    1
    56    63    61   ar
    57    66    64   ar
    58   105   106    2
    59    61    60    1
    60    61    62   ar
    61    64    62   ar
    62    23    22    1
    63    23    24    1
    64    17    18    2
    65    24    25    2
    66    24    29   am
    67    29    30    1
    68    12    14   ar
    69    12    10   ar
    70    14    13   ar
    71    34    36    1
    72    34    33    1
    73   110   111    1
    74     9    10   ar
    75     9     7   ar
    76    10     8   ar
    77    30    33    1
    78    30    31    1
    79    37    38    1
    80     3     4    2
    81     3     2    1
    82    13    11   ar
    83    38    39    1
    84     7     6   ar
    85    33    35    1
    86     8    11   ar
    87     8     6   ar
    88     6     5    1
    89    31    32    2
    90   111   112    1
    91   111   114    1
    92     2     5    1
    93     2     1    1
    94   112   113    2
    95    39    40    2
    96    39    41   am
    97   114   115    1
    98    55    53    1
    99    41    42    1
   100   116   115    1
   101    53    54    1
   102    53    52    1
   103   115   117    1
   104    48    49    1
   105   136   134    1
   106    49    52    1
   107    49    50    1
   108    42    43    1
   109    42    45    1
   110   135   133    1
   111    47    45    1
   112   134   133    1
   113    43    44    2
   114    45    46    1
   115   133   130    1
   116    50    51    2
   117   126   124   ar
   118   126   128   ar
   119   124   123   ar
   120   130   131    1
   121   130   129    1
   122   132   131    2
   123   143   144    1
   124   143   142    1
   125   131   137   am
   126   128   127   ar
   127   123   122    1
   128   123   125   ar
   129   119   122    1
   130   119   118    1
   131   119   120    1
   132   137   138    1
   133   142   141    1
   134   121   120    2
   135   127   125   ar
   136   138   141    1
   137   138   139    1
   138   139   140    2
