@<TRIPOS>MOLECULE
tmp/5y7fA00.pdb
 169 160 0 0 0
SMALL
GASTEIGER

@<TRIPOS>ATOM
      1  N          6.9440   12.4730   14.8570 N.3     7  SER7       -0.1202
      2  CA         7.9670   11.5930   14.3200 C.3     7  SER7        0.2020
      3  C          9.2420   12.3920   14.1450 C.2     7  SER7        0.2619
      4  O          9.2540   13.6340   14.3560 O.2     7  SER7       -0.2717
      5  CB         7.5230   10.9610   12.9720 C.3     7  SER7        0.2103
      6  OG         8.4060    9.8960   12.5770 O.3     7  SER7       -0.2182
      7  N         10.3130   11.7060   13.7510 N.am    8  VAL8       -0.1965
      8  CA        11.6060   12.3390   13.4800 C.3     8  VAL8        0.1727
      9  C         12.1520   11.7360   12.2070 C.2     8  VAL8        0.2616
     10  O         12.0280   10.5410   12.0190 O.2     8  VAL8       -0.2715
     11  CB        12.6130   12.0720   14.6060 C.3     8  VAL8        0.0290
     12  CG1       13.9670   12.6650   14.2650 C.3     8  VAL8        0.0023
     13  CG2       12.1340   12.6260   15.9230 C.3     8  VAL8        0.0023
     14  N         12.7780   12.5470   11.3640 N.am    9  ALA9       -0.1963
     15  CA        13.5500   12.0670   10.2380 C.3     9  ALA9        0.1728
     16  C         14.8460   12.8460   10.1790 C.2     9  ALA9        0.2616
     17  O         14.8780   14.0500    9.9070 O.2     9  ALA9       -0.2715
     18  CB        12.7990   12.1790    8.9300 C.3     9  ALA9        0.0334
     19  N         15.9130   12.1290   10.4350 N.am   10  SER10      -0.1950
     20  CA        17.2460   12.6360   10.2990 C.3    10  SER10       0.1924
     21  C         17.9430   11.6750    9.3370 C.2    10  SER10       0.2314
     22  O         18.1330   10.5030    9.6360 O.2    10  SER10      -0.2863
     23  CB        17.9050   12.6820   11.6590 C.3    10  SER10       0.2116
     24  OG        19.2510   13.1400   11.5360 O.3    10  SER10      -0.2180
     25  N         15.3080    8.3710    5.6810 N.3    14  TYR14      -0.1241
     26  CA        14.2450    8.5940    6.6920 C.3    14  TYR14       0.1605
     27  C         13.2920    9.6860    6.3120 C.2    14  TYR14       0.2264
     28  O         12.1090    9.5540    6.5900 O.2    14  TYR14      -0.2867
     29  CB        14.8180    8.8170    8.1000 C.3    14  TYR14       0.0534
     30  CG        15.3710    7.5840    8.7210 C.ar   14  TYR14      -0.0201
     31  CD1       14.5440    6.5910    9.1820 C.ar   14  TYR14      -0.0009
     32  CD2       16.7380    7.4160    8.8540 C.ar   14  TYR14      -0.0009
     33  CE1       15.0450    5.4430    9.7640 C.ar   14  TYR14       0.0417
     34  CE2       17.2350    6.2760    9.4300 C.ar   14  TYR14       0.0417
     35  CZ        16.3790    5.2920    9.8770 C.ar   14  TYR14       0.1957
     36  OH        16.9320    4.1490   10.4590 O.3    14  TYR14      -0.2866
     37  N         24.7740   10.5650   16.6620 N.3    73  LYS73      -0.1231
     38  CA        23.5360   11.1400   16.1900 C.3    73  LYS73       0.1693
     39  C         22.3820   10.1790   16.3240 C.2    73  LYS73       0.2591
     40  O         21.2880   10.5680   16.7440 O.2    73  LYS73      -0.2718
     41  CB        23.6660   11.6130   14.7290 C.3    73  LYS73       0.0285
     42  CG        22.3310   11.8440   14.0160 C.3    73  LYS73       0.0035
     43  CD        22.3540   13.0550   13.1020 C.3    73  LYS73       0.0206
     44  CE        21.9640   14.2980   13.8820 C.3    73  LYS73       0.1093
     45  NZ        21.8640   15.5020   13.0130 N.3    73  LYS73      -0.1314
     46  N         22.6190    8.9190   15.9660 N.am   74  GLN74      -0.1979
     47  CA        21.5510    7.9390   16.0260 C.3    74  GLN74       0.1601
     48  C         20.9780    7.8510   17.4480 C.2    74  GLN74       0.2287
     49  O         19.7550    7.7990   17.6350 O.2    74  GLN74      -0.2864
     50  CB        22.0560    6.5770   15.5410 C.3    74  GLN74       0.0394
     51  CG        20.9710    5.5480   15.3900 C.3    74  GLN74       0.0908
     52  CD        21.4250    4.4250   14.4990 C.2    74  GLN74       0.2608
     53  OE1       22.5740    3.9780   14.6060 O.2    74  GLN74      -0.2717
     54  NE2       20.5500    3.9770   13.6010 N.am   74  GLN74      -0.0878
     55  N         18.9020   11.0070   18.4880 N.3    77  ILE77      -0.1231
     56  CA        17.5620   10.8980   17.9230 C.3    77  ILE77       0.1692
     57  C         16.7000    9.9780   18.7780 C.2    77  ILE77       0.2592
     58  O         15.5590   10.3090   19.1500 O.2    77  ILE77      -0.2718
     59  CB        17.6260   10.3740   16.4780 C.3    77  ILE77       0.0266
     60  CG1       18.2950   11.3900   15.5660 C.3    77  ILE77       0.0019
     61  CG2       16.2310   10.0380   15.9530 C.3    77  ILE77       0.0020
     62  CD1       18.8380   10.7830   14.2970 C.3    77  ILE77       0.0001
     63  N         17.2540    8.8150   19.1260 N.am   78  TRP78      -0.1976
     64  CA        16.4930    7.9140   19.9610 C.3    78  TRP78       0.1640
     65  C         16.1720    8.5890   21.3220 C.2    78  TRP78       0.2290
     66  O         15.0950    8.4030   21.9050 O.2    78  TRP78      -0.2864
     67  CB        17.2430    6.5970   20.1510 C.3    78  TRP78       0.0576
     68  CG        17.4820    5.7780   18.9130 C.ar   78  TRP78       0.0006
     69  CD1       16.8710    5.8630   17.6790 C.ar   78  TRP78       0.0946
     70  CD2       18.4170    4.6950   18.8280 C.ar   78  TRP78       0.0152
     71  NE1       17.4270    4.8950   16.8160 N.ar   78  TRP78      -0.2442
     72  CE2       18.3720    4.1820   17.5120 C.ar   78  TRP78       0.0810
     73  CE3       19.3400    4.1550   19.7340 C.ar   78  TRP78       0.0012
     74  CZ2       19.1790    3.0920   17.1070 C.ar   78  TRP78       0.0191
     75  CZ3       20.1230    3.0630   19.3440 C.ar   78  TRP78       0.0001
     76  CH2       20.0410    2.5640   18.0300 C.ar   78  TRP78       0.0015
     77  N         13.1580   10.8130   21.0500 N.3    81  LYS81      -0.1245
     78  CA        11.9110   10.0550   21.0660 C.3    81  LYS81       0.1561
     79  C         11.3280    9.9290   22.4810 C.2    81  LYS81       0.2260
     80  O         10.1110   10.0250   22.6690 O.2    81  LYS81      -0.2867
     81  CB        12.1240    8.6360   20.4920 C.3    81  LYS81       0.0271
     82  CG        12.3090    8.5560   18.9910 C.3    81  LYS81       0.0035
     83  CD        12.3910    7.1170   18.4990 C.3    81  LYS81       0.0206
     84  CE        11.1960    6.2730   18.8730 C.3    81  LYS81       0.1093
     85  NZ        11.2090    4.9690   18.1630 N.3    81  LYS81      -0.1314
     86  N          3.6340    8.6240   18.8160 N.3    98  PHE98      -0.1241
     87  CA         4.8960    8.5680   18.1100 C.3    98  PHE98       0.1605
     88  C          4.7830    7.4050   17.1020 C.2    98  PHE98       0.2264
     89  O          4.4270    6.2920   17.4570 O.2    98  PHE98      -0.2867
     90  CB         6.1030    8.2840   19.0080 C.3    98  PHE98       0.0534
     91  CG         7.3520    8.2020   18.1860 C.ar   98  PHE98      -0.0203
     92  CD1        8.0710    9.3360   17.8930 C.ar   98  PHE98      -0.0042
     93  CD2        7.6980    6.9950   17.5470 C.ar   98  PHE98      -0.0042
     94  CE1        9.1690    9.2650   17.0300 C.ar   98  PHE98      -0.0003
     95  CE2        8.7710    6.9230   16.6950 C.ar   98  PHE98      -0.0003
     96  CZ         9.5280    8.0530   16.4470 C.ar   98  PHE98      -0.0000
     97  N          7.2720    5.7200   14.0230 N.3   100  ASP100     -0.1225
     98  CA         8.5650    5.7280   13.3470 C.3   100  ASP100      0.1805
     99  C          8.4230    6.2340   11.9150 C.2   100  ASP100      0.2598
    100  O          7.4130    6.0150   11.2460 O.2   100  ASP100     -0.2718
    101  CB         9.1830    4.3230   13.3540 C.3   100  ASP100      0.1424
    102  CG        10.2070    4.0470   14.4650 C.2   100  ASP100      0.3668
    103  OD1       10.4390    4.8370   15.3760 O.co2 100  ASP100     -0.2456
    104  OD2       10.7930    2.9140   14.3870 O.co2 100  ASP100     -0.2456
    105  N          9.4840    6.8770   11.4130 N.am  101  ALA101     -0.1966
    106  CA         9.4720    7.3360   10.0130 C.3   101  ALA101      0.1728
    107  C          9.3940    6.1980    9.0090 C.2   101  ALA101      0.2616
    108  O          8.8160    6.3620    7.9420 O.2   101  ALA101     -0.2715
    109  CB        10.6780    8.1890    9.7380 C.3   101  ALA101      0.0334
    110  N          9.9610    5.0460    9.3540 N.am  102  ASP102     -0.1971
    111  CA         9.9930    3.8740    8.4590 C.3   102  ASP102      0.1709
    112  C          8.7710    2.9820    8.6450 C.2   102  ASP102      0.2293
    113  O          8.8990    1.7790    8.7750 O.2   102  ASP102     -0.2864
    114  CB        11.2880    3.0690    8.6560 C.3   102  ASP102      0.1436
    115  CG        11.4230    2.4880   10.0490 C.2   102  ASP102      0.3671
    116  OD1       11.0000    3.1370   11.0270 O.co2 102  ASP102     -0.2456
    117  OD2       11.9040    1.3400   10.1890 O.co2 102  ASP102     -0.2456
    118  N          8.1260   -3.0860   21.6490 N.3   153  ILE153     -0.1245
    119  CA         8.8380   -2.4010   20.5790 C.3   153  ILE153      0.1561
    120  C          8.4930   -0.9150   20.6090 C.2   153  ILE153      0.2260
    121  O          7.3310   -0.5290   20.7920 O.2   153  ILE153     -0.2867
    122  CB         8.5220   -3.0760   19.2200 C.3   153  ILE153      0.0252
    123  CG1        9.4780   -2.6070   18.1280 C.3   153  ILE153      0.0019
    124  CG2        7.0800   -2.9030   18.7980 C.3   153  ILE153      0.0019
    125  CD1        9.4690   -3.5310   16.9140 C.3   153  ILE153      0.0001
    126  N          8.7300    1.3460   18.1790 N.3   155  ALA155     -0.1245
    127  CA         8.4410    1.9640   16.8950 C.3   155  ALA155      0.1562
    128  C          7.1630    2.7920   16.9070 C.2   155  ALA155      0.2260
    129  O          7.0490    3.7820   16.1650 O.2   155  ALA155     -0.2867
    130  CB         8.3730    0.9000   15.8130 C.3   155  ALA155      0.0290
    131  N         15.6990    4.3130   23.2600 N.3   185  ASP185     -0.1239
    132  CA        14.2670    4.6450   23.2760 C.3   185  ASP185      0.1674
    133  C         13.3340    3.5000   23.6820 C.2   185  ASP185      0.2266
    134  O         12.1430    3.7320   23.9370 O.2   185  ASP185     -0.2867
    135  CB        13.8610    5.1640   21.8920 C.3   185  ASP185      0.1410
    136  CG        14.1520    4.1740   20.7450 C.2   185  ASP185      0.3668
    137  OD1       15.2840    3.7080   20.6320 O.co2 185  ASP185     -0.2456
    138  OD2       13.2480    3.8990   19.9130 O.co2 185  ASP185     -0.2456
    139  N          6.2410   -1.7070   10.5420 N.3   222  ASP222     -0.1239
    140  CA         7.5100   -1.0290   10.7540 C.3   222  ASP222      0.1674
    141  C          8.5790   -1.8080   10.0050 C.2   222  ASP222      0.2266
    142  O          8.5340   -3.0390   10.0040 O.2   222  ASP222     -0.2867
    143  CB         7.8790   -0.9750   12.2190 C.3   222  ASP222      0.1410
    144  CG         9.1170   -0.1140   12.4510 C.2   222  ASP222      0.3668
    145  OD1        9.0660    1.1090   12.2710 O.co2 222  ASP222     -0.2456
    146  OD2       10.1500   -0.6420   12.8100 O.co2 222  ASP222     -0.2456
    147  N         11.5980   -2.4010   10.7040 N.3   224  CYS224     -0.1221
    148  CA        12.6620   -2.5360   11.6840 C.3   224  CYS224      0.1808
    149  C         13.8190   -3.4060   11.1700 C.2   224  CYS224      0.2601
    150  O         13.6330   -4.4270   10.5200 O.2   224  CYS224     -0.2717
    151  CB        12.1520   -3.0170   13.0430 C.3   224  CYS224      0.0970
    152  SG        11.8270   -4.7890   13.2780 S.3   224  CYS224     -0.0800
    153  N         15.0100   -2.9090   11.4430 N.am  225  ASN225     -0.1974
    154  CA        16.2530   -3.5380   11.0170 C.3   225  ASN225      0.1688
    155  C         16.3030   -4.9700   11.5490 C.2   225  ASN225      0.2292
    156  O         15.8090   -5.2810   12.6680 O.2   225  ASN225     -0.2864
    157  CB        17.4640   -2.6990   11.4750 C.3   225  ASN225      0.1181
    158  CG        17.7170   -1.4970   10.5700 C.2   225  ASN225      0.2629
    159  OD1       17.5310   -1.5810    9.3710 O.2   225  ASN225     -0.2716
    160  ND2       18.1480   -0.3730   11.1530 N.am  225  ASN225     -0.0877
    161  N         17.1030   -1.0930    4.2470 N.3   233  LYS233     -0.1245
    162  CA        15.7160   -0.6830    4.4530 C.3   233  LYS233      0.1561
    163  C         14.9700   -0.3400    3.1740 C.2   233  LYS233      0.2260
    164  O         13.7960   -0.6520    3.0510 O.2   233  LYS233     -0.2867
    165  CB        15.6450    0.5260    5.3890 C.3   233  LYS233      0.0271
    166  CG        15.5320    0.2260    6.8560 C.3   233  LYS233      0.0035
    167  CD        14.8640    1.3980    7.5800 C.3   233  LYS233      0.0206
    168  CE        15.4360    1.5570    8.9670 C.3   233  LYS233      0.1093
    169  NZ        14.7050    0.7150    9.9070 N.3   233  LYS233     -0.1314
@<TRIPOS>BOND
     1   164   163    2
     2   163   162    1
     3   161   162    1
     4   162   165    1
     5   165   166    1
     6    25    26    1
     7    27    28    2
     8    27    26    1
     9    26    29    1
    10   166   167    1
    11   167   168    1
    12   108   107    2
    13    29    30    1
    14   111   112    1
    15   111   114    1
    16   111   110    1
    17   112   113    2
    18   114   115    1
    19    30    32   ar
    20    30    31   ar
    21    32    34   ar
    22    18    15    1
    23   168   169    1
    24   107   110   am
    25   107   106    1
    26    31    33   ar
    27    21    22    2
    28    21    20    1
    29   159   158    2
    30    34    35   ar
    31   109   106    1
    32    33    35   ar
    33    35    36    1
    34    17    16    2
    35   142   141    2
    36   141   140    1
    37   106   105    1
    38   115   117   ar
    39   115   116   ar
    40    16    15    1
    41    16    19   am
    42    15    14    1
    43    20    19    1
    44    20    23    1
    45   150   149    2
    46   139   140    1
    47   158   160   am
    48   158   157    1
    49   147   148    1
    50   140   143    1
    51   154   153    1
    52   154   157    1
    53   154   155    1
    54   149   153   am
    55   149   148    1
    56   100    99    2
    57    14     9   am
    58   105    99   am
    59    24    23    1
    60   155   156    2
    61   148   151    1
    62    99    98    1
    63    10     9    2
    64     9     8    1
    65   143   144    1
    66   145   144   ar
    67   144   146   ar
    68     6     5    1
    69     5     2    1
    70    45    44    1
    71   151   152    1
    72    43    44    1
    73    43    42    1
    74    98   101    1
    75    98    97    1
    76   101   102    1
    77     8     7    1
    78     8    11    1
    79    54    52   am
    80     7     3   am
    81    42    41    1
    82     3     2    1
    83     3     4    2
    84    12    11    1
    85    62    60    1
    86     2     1    1
    87   104   102   ar
    88   102   103   ar
    89    52    53    2
    90    52    51    1
    91    11    13    1
    92    41    38    1
    93    51    50    1
    94    50    47    1
    95    60    59    1
    96   130   127    1
    97    61    59    1
    98    46    47    1
    99    46    39   am
   100    47    48    1
   101   129   128    2
   102    38    39    1
   103    38    37    1
   104    39    40    2
   105    96    95   ar
   106    96    94   ar
   107    59    56    1
   108    95    93   ar
   109    71    72   ar
   110    71    69   ar
   111   127   128    1
   112   127   126    1
   113   125   123    1
   114    94    92   ar
   115    88    89    2
   116    88    87    1
   117    74    72   ar
   118    74    76   ar
   119    48    49    2
   120    72    70   ar
   121    93    91   ar
   122    69    68   ar
   123    92    91   ar
   124    56    55    1
   125    56    57    1
   126    76    75   ar
   127    87    86    1
   128    87    90    1
   129   123   122    1
   130    85    84    1
   131    91    90    1
   132    83    84    1
   133    83    82    1
   134    57    63   am
   135    57    58    2
   136   124   122    1
   137    70    68   ar
   138    70    73   ar
   139    68    67    1
   140    82    81    1
   141    63    64    1
   142   122   119    1
   143    75    73   ar
   144   138   136   ar
   145    64    67    1
   146    64    65    1
   147    81    78    1
   148   119   120    1
   149   119   118    1
   150   120   121    2
   151   137   136   ar
   152   136   135    1
   153    77    78    1
   154    78    79    1
   155    65    66    2
   156   135   132    1
   157    79    80    2
   158   131   132    1
   159   132   133    1
   160   133   134    2
