@<TRIPOS>MOLECULE
tmp/5y7fA01.pdb
 84 80 0 0 0
SMALL
GASTEIGER

@<TRIPOS>ATOM
      1  N         17.2540    8.8150   19.1260 N.3    78  TRP78      -0.1241
      2  CA        16.4930    7.9140   19.9610 C.3    78  TRP78       0.1605
      3  C         16.1720    8.5890   21.3220 C.2    78  TRP78       0.2264
      4  O         15.0950    8.4030   21.9050 O.2    78  TRP78      -0.2867
      5  CB        17.2430    6.5970   20.1510 C.3    78  TRP78       0.0550
      6  CG        17.4820    5.7780   18.9130 C.ar   78  TRP78       0.0003
      7  CD1       16.8710    5.8630   17.6790 C.ar   78  TRP78       0.0946
      8  CD2       18.4170    4.6950   18.8280 C.ar   78  TRP78       0.0152
      9  NE1       17.4270    4.8950   16.8160 N.ar   78  TRP78      -0.2442
     10  CE2       18.3720    4.1820   17.5120 C.ar   78  TRP78       0.0810
     11  CE3       19.3400    4.1550   19.7340 C.ar   78  TRP78       0.0012
     12  CZ2       19.1790    3.0920   17.1070 C.ar   78  TRP78       0.0191
     13  CZ3       20.1230    3.0630   19.3440 C.ar   78  TRP78       0.0001
     14  CH2       20.0410    2.5640   18.0300 C.ar   78  TRP78       0.0015
     15  N         13.1580   10.8130   21.0500 N.3    81  LYS81      -0.1245
     16  CA        11.9110   10.0550   21.0660 C.3    81  LYS81       0.1561
     17  C         11.3280    9.9290   22.4810 C.2    81  LYS81       0.2260
     18  O         10.1110   10.0250   22.6690 O.2    81  LYS81      -0.2867
     19  CB        12.1240    8.6360   20.4920 C.3    81  LYS81       0.0271
     20  CG        12.3090    8.5560   18.9910 C.3    81  LYS81       0.0035
     21  CD        12.3910    7.1170   18.4990 C.3    81  LYS81       0.0206
     22  CE        11.1960    6.2730   18.8730 C.3    81  LYS81       0.1093
     23  NZ        11.2090    4.9690   18.1630 N.3    81  LYS81      -0.1314
     24  N          7.2720    5.7200   14.0230 N.3   100  ASP100     -0.1239
     25  CA         8.5650    5.7280   13.3470 C.3   100  ASP100      0.1674
     26  C          8.4230    6.2340   11.9150 C.2   100  ASP100      0.2266
     27  O          7.4130    6.0150   11.2460 O.2   100  ASP100     -0.2867
     28  CB         9.1830    4.3230   13.3540 C.3   100  ASP100      0.1410
     29  CG        10.2070    4.0470   14.4650 C.2   100  ASP100      0.3668
     30  OD1       10.4390    4.8370   15.3760 O.co2 100  ASP100     -0.2456
     31  OD2       10.7930    2.9140   14.3870 O.co2 100  ASP100     -0.2456
     32  N          8.1260   -3.0860   21.6490 N.3   153  ILE153     -0.1231
     33  CA         8.8380   -2.4010   20.5790 C.3   153  ILE153      0.1692
     34  C          8.4930   -0.9150   20.6090 C.2   153  ILE153      0.2592
     35  O          7.3310   -0.5290   20.7920 O.2   153  ILE153     -0.2718
     36  CB         8.5220   -3.0760   19.2200 C.3   153  ILE153      0.0266
     37  CG1        9.4780   -2.6070   18.1280 C.3   153  ILE153      0.0019
     38  CG2        7.0800   -2.9030   18.7980 C.3   153  ILE153      0.0020
     39  CD1        9.4690   -3.5310   16.9140 C.3   153  ILE153      0.0001
     40  N          9.5120   -0.0610   20.4220 N.am  154  SER154     -0.1952
     41  CA         9.3390    1.3810   20.5650 C.3   154  SER154      0.1924
     42  C          9.0810    2.0860   19.2340 C.2   154  SER154      0.2314
     43  O          9.1120    3.3180   19.1900 O.2   154  SER154     -0.2863
     44  CB        10.5460    2.0080   21.2370 C.3   154  SER154      0.2116
     45  OG        11.6780    1.7830   20.4640 O.3   154  SER154     -0.2180
     46  N         19.4590   -0.0630   23.3740 N.3   183  ASN183     -0.1225
     47  CA        18.2880    0.3930   22.6150 C.3   183  ASN183      0.1785
     48  C         17.6550    1.5640   23.3850 C.2   183  ASN183      0.2597
     49  O         16.6780    1.3850   24.0740 O.2   183  ASN183     -0.2718
     50  CB        17.3220   -0.7770   22.5110 C.3   183  ASN183      0.1169
     51  CG        18.0020   -2.0100   21.9910 C.2   183  ASN183      0.2627
     52  OD1       18.3860   -2.0360   20.8280 O.2   183  ASN183     -0.2716
     53  ND2       18.2070   -3.0240   22.8670 N.am  183  ASN183     -0.0877
     54  N         18.2080    2.7730   23.2640 N.am  184  LEU184     -0.1966
     55  CA        17.8900    3.8230   24.2200 C.3   184  LEU184      0.1728
     56  C         16.3850    4.1370   24.3790 C.2   184  LEU184      0.2616
     57  O         15.8510    4.1810   25.4900 O.2   184  LEU184     -0.2715
     58  CB        18.6670    5.0820   23.8490 C.3   184  LEU184      0.0311
     59  CG        18.4310    6.3220   24.6900 C.3   184  LEU184      0.0022
     60  CD1       18.6730    6.0740   26.1730 C.3   184  LEU184      0.0001
     61  CD2       19.3240    7.4440   24.1800 C.3   184  LEU184      0.0001
     62  N         15.6990    4.3130   23.2600 N.am  185  ASP185     -0.1957
     63  CA        14.2670    4.6450   23.2760 C.3   185  ASP185      0.1840
     64  C         13.3340    3.5000   23.6820 C.2   185  ASP185      0.2621
     65  O         12.1430    3.7320   23.9370 O.2   185  ASP185     -0.2715
     66  CB        13.8610    5.1640   21.8920 C.3   185  ASP185      0.1450
     67  CG        14.1520    4.1740   20.7450 C.2   185  ASP185      0.3671
     68  OD1       15.2840    3.7080   20.6320 O.co2 185  ASP185     -0.2456
     69  OD2       13.2480    3.8990   19.9130 O.co2 185  ASP185     -0.2456
     70  N         13.8750    2.2840   23.7150 N.am  186  GLN186     -0.1977
     71  CA        13.1150    1.0610   23.9370 C.3   186  GLN186      0.1601
     72  C         13.4450    0.4560   25.2880 C.2   186  GLN186      0.2287
     73  O         12.5450    0.1360   26.0630 O.2   186  GLN186     -0.2864
     74  CB        13.4100    0.0930   22.8010 C.3   186  GLN186      0.0394
     75  CG        12.5270   -1.1090   22.7460 C.3   186  GLN186      0.0908
     76  CD        12.8110   -1.8700   21.4730 C.2   186  GLN186      0.2608
     77  OE1       13.7930   -2.6850   21.3720 O.2   186  GLN186     -0.2717
     78  NE2       12.0580   -1.5550   20.4820 N.am  186  GLN186     -0.0878
     79  N         11.5980   -2.4010   10.7040 N.3   224  CYS224     -0.1235
     80  CA        12.6620   -2.5360   11.6840 C.3   224  CYS224      0.1677
     81  C         13.8190   -3.4060   11.1700 C.2   224  CYS224      0.2270
     82  O         13.6330   -4.4270   10.5200 O.2   224  CYS224     -0.2867
     83  CB        12.1520   -3.0170   13.0430 C.3   224  CYS224      0.0956
     84  SG        11.8270   -4.7890   13.2780 S.3   224  CYS224     -0.0801
@<TRIPOS>BOND
     1    82    81    2
     2    79    80    1
     3    81    80    1
     4    27    26    2
     5    80    83    1
     6    26    25    1
     7    83    84    1
     8    25    28    1
     9    25    24    1
    10    28    29    1
    11    31    29   ar
    12    29    30   ar
    13     9    10   ar
    14     9     7   ar
    15    39    37    1
    16    12    10   ar
    17    12    14   ar
    18    10     8   ar
    19     7     6   ar
    20    14    13   ar
    21    37    36    1
    22    23    22    1
    23    21    22    1
    24    21    20    1
    25    38    36    1
    26     8     6   ar
    27     8    11   ar
    28     6     5    1
    29    20    19    1
    30     1     2    1
    31    43    42    2
    32    36    33    1
    33    42    41    1
    34    13    11   ar
    35    69    67   ar
    36     2     5    1
    37     2     3    1
    38    40    41    1
    39    40    34   am
    40    45    44    1
    41    78    76   am
    42    19    16    1
    43    41    44    1
    44    33    34    1
    45    33    32    1
    46    34    35    2
    47    68    67   ar
    48    67    66    1
    49    52    51    2
    50    15    16    1
    51    16    17    1
    52     3     4    2
    53    77    76    2
    54    76    75    1
    55    66    63    1
    56    51    50    1
    57    51    53   am
    58    17    18    2
    59    50    47    1
    60    47    46    1
    61    47    48    1
    62    75    74    1
    63    74    71    1
    64    62    63    1
    65    62    56   am
    66    54    48   am
    67    54    55    1
    68    63    64    1
    69    48    49    2
    70    64    70   am
    71    64    65    2
    72    70    71    1
    73    58    55    1
    74    58    59    1
    75    71    72    1
    76    61    59    1
    77    55    56    1
    78    56    57    2
    79    59    60    1
    80    72    73    2
