@<TRIPOS>MOLECULE
tmp/5y7nA01.pdb
 145 147 0 0 0
SMALL
GASTEIGER

@<TRIPOS>ATOM
      1  N         -6.2680   32.4180    0.1150 N.3    18  TRP18      -0.1241
      2  CA        -5.6700   32.4180   -1.1880 C.3    18  TRP18       0.1605
      3  C         -4.1930   32.8920   -1.0930 C.2    18  TRP18       0.2264
      4  O         -3.9090   33.8690   -0.4630 O.2    18  TRP18      -0.2867
      5  CB        -6.5100   33.2190   -2.1620 C.3    18  TRP18       0.0550
      6  CG        -5.8800   33.4130   -3.4400 C.ar   18  TRP18       0.0003
      7  CD1       -5.2240   32.5050   -4.1330 C.ar   18  TRP18       0.0946
      8  CD2       -5.8300   34.6080   -4.2040 C.ar   18  TRP18       0.0152
      9  NE1       -4.7620   33.0200   -5.2700 N.ar   18  TRP18      -0.2442
     10  CE2       -5.1090   34.3290   -5.3420 C.ar   18  TRP18       0.0810
     11  CE3       -6.3280   35.8840   -4.0370 C.ar   18  TRP18       0.0012
     12  CZ2       -4.8750   35.2800   -6.3180 C.ar   18  TRP18       0.0191
     13  CZ3       -6.1030   36.8020   -4.9960 C.ar   18  TRP18       0.0001
     14  CH2       -5.3730   36.5180   -6.1030 C.ar   18  TRP18       0.0015
     15  N         -8.8230   25.4450   -5.5890 N.3    45  VAL45      -0.1231
     16  CA        -7.8370   26.0700   -6.4150 C.3    45  VAL45       0.1692
     17  C         -6.6230   26.6330   -5.6310 C.2    45  VAL45       0.2592
     18  O         -5.5910   26.8250   -6.1900 O.2    45  VAL45      -0.2718
     19  CB        -8.5540   27.0170   -7.4030 C.3    45  VAL45       0.0266
     20  CG1       -8.7490   28.4090   -6.9070 C.3    45  VAL45       0.0020
     21  CG2       -8.0280   26.9410   -8.7910 C.3    45  VAL45       0.0020
     22  N         -6.7930   26.8890   -4.3380 N.am   46  TYR46      -0.1976
     23  CA        -5.7550   27.3810   -3.4460 C.3    46  TYR46       0.1639
     24  C         -4.7060   26.3350   -3.1780 C.2    46  TYR46       0.2290
     25  O         -3.6330   26.6420   -2.8170 O.2    46  TYR46      -0.2864
     26  CB        -6.2720   28.0370   -2.1600 C.3    46  TYR46       0.0560
     27  CG        -7.3050   29.0860   -2.3450 C.ar   46  TYR46      -0.0198
     28  CD1       -7.4800   29.6870   -3.5370 C.ar   46  TYR46      -0.0009
     29  CD2       -8.1090   29.4730   -1.3160 C.ar   46  TYR46      -0.0009
     30  CE1       -8.4420   30.6280   -3.7060 C.ar   46  TYR46       0.0417
     31  CE2       -9.0770   30.4220   -1.4740 C.ar   46  TYR46       0.0417
     32  CZ        -9.2270   30.9880   -2.6770 C.ar   46  TYR46       0.1957
     33  OH       -10.1370   31.9200   -2.8750 O.3    46  TYR46      -0.2866
     34  N        -14.5180   25.1670   -8.6090 N.3    77  TRP77      -0.1241
     35  CA       -13.8250   25.7070   -9.7520 C.3    77  TRP77       0.1605
     36  C        -14.5280   25.4120  -11.0760 C.2    77  TRP77       0.2264
     37  O        -14.9990   24.3570  -11.2950 O.2    77  TRP77      -0.2867
     38  CB       -12.3340   25.3030   -9.7580 C.3    77  TRP77       0.0550
     39  CG       -11.5520   26.1120  -10.6990 C.ar   77  TRP77       0.0003
     40  CD1      -11.0050   25.7140  -11.8480 C.ar   77  TRP77       0.0946
     41  CD2      -11.2790   27.4830  -10.5900 C.ar   77  TRP77       0.0152
     42  NE1      -10.4160   26.7280  -12.4650 N.ar   77  TRP77      -0.2442
     43  CE2      -10.5590   27.8440  -11.7060 C.ar   77  TRP77       0.0810
     44  CE3      -11.5670   28.4380   -9.6500 C.ar   77  TRP77       0.0012
     45  CZ2      -10.1330   29.1140  -11.9110 C.ar   77  TRP77       0.0191
     46  CZ3      -11.1720   29.6490   -9.8420 C.ar   77  TRP77       0.0001
     47  CH2      -10.4540   30.0090  -10.9590 C.ar   77  TRP77       0.0015
     48  N        -17.2150   29.2510   -7.6610 N.3   108  HIS108     -0.1226
     49  CA       -16.1720   30.2410   -7.7170 C.3   108  HIS108      0.1752
     50  C        -16.2520   31.3250   -8.7980 C.2   108  HIS108      0.2596
     51  O        -16.0610   32.4510   -8.5160 O.2   108  HIS108     -0.2718
     52  CB       -14.8520   29.5090   -7.8760 C.3   108  HIS108      0.0759
     53  CG       -13.7190   30.1320   -7.1580 C.ar  108  HIS108      0.0818
     54  ND1      -12.7750   29.3920   -6.5180 N.ar  108  HIS108     -0.2268
     55  CD2      -13.3900   31.4170   -6.9490 C.ar  108  HIS108      0.1154
     56  CE1      -11.8970   30.1880   -5.9670 C.ar  108  HIS108      0.1986
     57  NE2      -12.2510   31.4190   -6.2130 N.ar  108  HIS108     -0.2212
     58  N        -16.5290   30.9570  -10.0210 N.am  109  TRP109     -0.1976
     59  CA       -16.6130   31.8890  -11.0980 C.3   109  TRP109      0.1640
     60  C        -17.8190   31.4120  -11.8790 C.2   109  TRP109      0.2290
     61  O        -18.0450   30.2490  -11.9250 O.2   109  TRP109     -0.2864
     62  CB       -15.2910   31.8620  -11.9070 C.3   109  TRP109      0.0576
     63  CG       -15.2240   32.7610  -13.0730 C.ar  109  TRP109      0.0006
     64  CD1      -15.4330   32.4280  -14.3580 C.ar  109  TRP109      0.0946
     65  CD2      -14.9260   34.1520  -13.0690 C.ar  109  TRP109      0.0152
     66  NE1      -15.2940   33.4960  -15.1430 N.ar  109  TRP109     -0.2442
     67  CE2      -14.9930   34.5800  -14.3860 C.ar  109  TRP109      0.0810
     68  CE3      -14.6120   35.0750  -12.0790 C.ar  109  TRP109      0.0012
     69  CZ2      -14.7640   35.8580  -14.7370 C.ar  109  TRP109      0.0191
     70  CZ3      -14.3910   36.3080  -12.4270 C.ar  109  TRP109      0.0001
     71  CH2      -14.4680   36.7150  -13.7520 C.ar  109  TRP109      0.0015
     72  N         -6.4010   24.6340  -15.1970 N.3   119  LEU119     -0.1231
     73  CA        -7.3220   25.3130  -14.3390 C.3   119  LEU119      0.1693
     74  C         -7.8170   26.5130  -15.0540 C.2   119  LEU119      0.2592
     75  O         -8.9100   26.9160  -14.8260 O.2   119  LEU119     -0.2718
     76  CB        -6.7040   25.6590  -13.0010 C.3   119  LEU119      0.0284
     77  CG        -6.4430   24.5360  -12.0170 C.3   119  LEU119      0.0019
     78  CD1       -5.7590   25.1720  -10.8540 C.3   119  LEU119      0.0001
     79  CD2       -7.6720   23.8190  -11.5520 C.3   119  LEU119      0.0001
     80  N         -6.9840   27.0830  -15.9120 N.am  120  PHE120     -0.1976
     81  CA        -7.3350   28.2260  -16.7450 C.3   120  PHE120      0.1639
     82  C         -6.9840   27.9070  -18.2020 C.2   120  PHE120      0.2290
     83  O         -6.0370   28.3920  -18.7330 O.2   120  PHE120     -0.2864
     84  CB        -6.6940   29.5150  -16.2500 C.3   120  PHE120      0.0560
     85  CG        -6.9870   30.7320  -17.1010 C.ar  120  PHE120     -0.0200
     86  CD1       -7.9250   30.6940  -18.0840 C.ar  120  PHE120     -0.0042
     87  CD2       -6.3220   31.9140  -16.8920 C.ar  120  PHE120     -0.0042
     88  CE1       -8.1890   31.7890  -18.8490 C.ar  120  PHE120     -0.0003
     89  CE2       -6.5820   33.0170  -17.6500 C.ar  120  PHE120     -0.0003
     90  CZ        -7.5180   32.9520  -18.6320 C.ar  120  PHE120     -0.0000
     91  N        -18.4250   36.0950   -7.6170 N.3   158  ASN158     -0.1240
     92  CA       -18.1620   36.7540   -8.8830 C.3   158  ASN158      0.1653
     93  C        -19.3860   36.6960   -9.8410 C.2   158  ASN158      0.2266
     94  O        -19.2300   36.5590  -11.0390 O.2   158  ASN158     -0.2867
     95  CB       -16.8750   36.2050   -9.5290 C.3   158  ASN158      0.1155
     96  CG       -15.6070   36.4200   -8.6650 C.2   158  ASN158      0.2627
     97  OD1      -15.2100   37.5540   -8.3710 O.2   158  ASN158     -0.2716
     98  ND2      -14.9560   35.3330   -8.2920 N.am  158  ASN158     -0.0877
     99  N        -14.2380   40.0940   -0.6740 N.3   207  TYR207     -0.1241
    100  CA       -12.9260   39.5350   -0.8320 C.3   207  TYR207      0.1605
    101  C        -11.9240   40.6040   -1.2500 C.2   207  TYR207      0.2264
    102  O        -12.3160   41.5970   -1.7420 O.2   207  TYR207     -0.2867
    103  CB       -12.9970   38.2750   -1.6910 C.3   207  TYR207      0.0534
    104  CG       -13.0460   38.3160   -3.1860 C.ar  207  TYR207     -0.0201
    105  CD1      -12.0710   38.9380   -3.8970 C.ar  207  TYR207     -0.0009
    106  CD2      -13.9880   37.6130   -3.8840 C.ar  207  TYR207     -0.0009
    107  CE1      -12.0540   38.9280   -5.2550 C.ar  207  TYR207      0.0417
    108  CE2      -13.9780   37.5930   -5.2440 C.ar  207  TYR207      0.0417
    109  CZ       -12.9940   38.2460   -5.9270 C.ar  207  TYR207      0.1957
    110  OH       -12.9170   38.2660   -7.2620 O.3   207  TYR207     -0.2866
    111  N          0.1880   39.7650  -10.1120 N.3   217  TRP217     -0.1241
    112  CA         0.1260   40.7980  -11.1420 C.3   217  TRP217      0.1605
    113  C          0.1710   42.2310  -10.6920 C.2   217  TRP217      0.2264
    114  O          0.1430   43.1580  -11.5300 O.2   217  TRP217     -0.2867
    115  CB        -1.1010   40.5810  -12.0250 C.3   217  TRP217      0.0550
    116  CG        -2.3810   40.3990  -11.2450 C.ar  217  TRP217      0.0003
    117  CD1       -3.2670   41.3870  -10.8230 C.ar  217  TRP217      0.0946
    118  CD2       -2.9650   39.1360  -10.7670 C.ar  217  TRP217      0.0152
    119  NE1       -4.3220   40.8380  -10.1390 N.ar  217  TRP217     -0.2442
    120  CE2       -4.2020   39.4950  -10.0700 C.ar  217  TRP217      0.0810
    121  CE3       -2.6000   37.8010  -10.8450 C.ar  217  TRP217      0.0012
    122  CZ2       -5.0180   38.5420   -9.4860 C.ar  217  TRP217      0.0191
    123  CZ3       -3.4320   36.8490  -10.2510 C.ar  217  TRP217      0.0001
    124  CH2       -4.6110   37.2130   -9.5890 C.ar  217  TRP217      0.0015
    125  N         -8.7010   41.9920   -8.9050 N.3   296  CYS296     -0.1235
    126  CA        -8.7500   40.6790   -9.5030 C.3   296  CYS296      0.1677
    127  C         -9.5450   40.7270  -10.7510 C.2   296  CYS296      0.2270
    128  O        -10.7170   40.5720  -10.7410 O.2   296  CYS296     -0.2867
    129  CB        -9.3690   39.6650   -8.5470 C.3   296  CYS296      0.0956
    130  SG        -8.5110   39.4430   -7.0270 S.3   296  CYS296     -0.0801
    131  N         -7.8600   39.3260  -13.7730 N.3   298  VAL298     -0.1231
    132  CA        -6.9880   38.5560  -14.6380 C.3   298  VAL298      0.1692
    133  C         -7.5650   37.7090  -15.8130 C.2   298  VAL298      0.2591
    134  O         -6.9650   37.6130  -16.8380 O.2   298  VAL298     -0.2718
    135  CB        -5.9200   37.8610  -13.7790 C.3   298  VAL298      0.0266
    136  CG1       -6.4750   36.6980  -13.0390 C.3   298  VAL298      0.0020
    137  CG2       -4.7510   37.4290  -14.5850 C.3   298  VAL298      0.0020
    138  N         -8.7160   37.0910  -15.6330 N.am  299  LEU299     -0.1980
    139  CA        -9.3760   36.2170  -16.6350 C.3   299  LEU299      0.1596
    140  C         -9.8180   36.8680  -17.9600 C.2   299  LEU299      0.2287
    141  O         -9.6660   36.2780  -19.0410 O.2   299  LEU299     -0.2864
    142  CB       -10.5960   35.5620  -16.0000 C.3   299  LEU299      0.0297
    143  CG       -10.3230   34.4300  -15.0170 C.3   299  LEU299      0.0022
    144  CD1      -11.6010   33.8610  -14.4150 C.3   299  LEU299      0.0001
    145  CD2       -9.5690   33.3350  -15.7160 C.3   299  LEU299      0.0001
@<TRIPOS>BOND
     1   141   140    2
     2    88    90   ar
     3    88    86   ar
     4    83    82    2
     5    90    89   ar
     6    82    81    1
     7    86    85   ar
     8   140   139    1
     9    89    87   ar
    10    85    87   ar
    11    85    84    1
    12   134   133    2
    13    81    84    1
    14    81    80    1
    15   139   142    1
    16   139   138    1
    17   142   143    1
    18    80    74   am
    19   133   138   am
    20   133   132    1
    21   145   143    1
    22    72    73    1
    23    66    67   ar
    24    66    64   ar
    25    74    75    2
    26    74    73    1
    27   143   144    1
    28    69    67   ar
    29    69    71   ar
    30   132   135    1
    31   132   131    1
    32   137   135    1
    33    67    65   ar
    34    64    63   ar
    35    73    76    1
    36   135   136    1
    37    71    70   ar
    38    63    65   ar
    39    63    62    1
    40    65    68   ar
    41    76    77    1
    42    42    40   ar
    43    42    43   ar
    44    70    68   ar
    45   115   116    1
    46   115   112    1
    47    77    79    1
    48    77    78    1
    49    61    60    2
    50    45    43   ar
    51    45    47   ar
    52    62    59    1
    53    60    59    1
    54    40    39   ar
    55    43    41   ar
    56   114   113    2
    57    37    36    2
    58   116   117   ar
    59   116   118   ar
    60   112   113    1
    61   112   111    1
    62    59    58    1
    63    36    35    1
    64    94    93    2
    65    47    46   ar
    66   121   118   ar
    67   121   123   ar
    68   117   119   ar
    69   118   120   ar
    70   127   128    2
    71   127   126    1
    72    39    41   ar
    73    39    38    1
    74    41    44   ar
    75   123   124   ar
    76   119   120   ar
    77   120   122   ar
    78    58    50   am
    79    46    44   ar
    80    93    92    1
    81    38    35    1
    82    35    34    1
    83   124   122   ar
    84    95    92    1
    85    95    96    1
    86   126   125    1
    87   126   129    1
    88    92    91    1
    89    50    51    2
    90    50    49    1
    91    21    19    1
    92    96    97    2
    93    96    98   am
    94   129   130    1
    95    52    49    1
    96    52    53    1
    97    49    48    1
    98    19    20    1
    99    19    16    1
   100   110   109    1
   101    53    55   ar
   102    53    54   ar
   103    55    57   ar
   104    54    56   ar
   105    16    17    1
   106    16    15    1
   107    12    14   ar
   108    12    10   ar
   109    57    56   ar
   110    18    17    2
   111    14    13   ar
   112   109   107   ar
   113   109   108   ar
   114    17    22   am
   115    10     9   ar
   116    10     8   ar
   117     9     7   ar
   118   107   105   ar
   119   108   106   ar
   120    13    11   ar
   121    22    23    1
   122     8    11   ar
   123     8     6   ar
   124     7     6   ar
   125   105   104   ar
   126   106   104   ar
   127    30    28   ar
   128    30    32   ar
   129    28    27   ar
   130    23    24    1
   131    23    26    1
   132     6     5    1
   133   104   103    1
   134    24    25    2
   135    33    32    1
   136    32    31   ar
   137    27    26    1
   138    27    29   ar
   139     5     2    1
   140   102   101    2
   141   103   100    1
   142    31    29   ar
   143   101   100    1
   144     2     3    1
   145     2     1    1
   146     3     4    2
   147   100    99    1
