@<TRIPOS>MOLECULE
tmp/5y7zB00.pdb
 175 162 0 0 0
SMALL
GASTEIGER

@<TRIPOS>ATOM
      1  N         -0.0530   23.4730  -25.2180 N.3    21  ARG21      -0.1231
      2  CA        -1.0980   24.0560  -24.3860 C.3    21  ARG21       0.1694
      3  C         -0.5510   24.5820  -23.0670 C.2    21  ARG21       0.2592
      4  O          0.5660   24.2520  -22.6710 O.2    21  ARG21      -0.2718
      5  CB        -2.1940   23.0270  -24.1100 C.3    21  ARG21       0.0321
      6  CG        -1.6880   21.7670  -23.4320 C.3    21  ARG21       0.0489
      7  CD        -2.8280   20.9500  -22.8540 C.3    21  ARG21       0.2205
      8  NE        -2.3570   19.6930  -22.2790 N.pl3  21  ARG21      -0.0865
      9  CZ        -3.1270   18.8470  -21.6030 C.cat  21  ARG21       0.5346
     10  NH1       -4.4090   19.1230  -21.4110 N.pl3  21  ARG21       0.1354
     11  NH2       -2.6130   17.7250  -21.1170 N.pl3  21  ARG21       0.1354
     12  N         -1.3490   25.4000  -22.3880 N.am   22  VAL22      -0.1966
     13  CA        -0.9710   25.9310  -21.0860 C.3    22  VAL22       0.1727
     14  C         -1.3050   24.9270  -19.9910 C.2    22  VAL22       0.2616
     15  O         -2.4600   24.5290  -19.8350 O.2    22  VAL22      -0.2715
     16  CB        -1.6770   27.2670  -20.7900 C.3    22  VAL22       0.0290
     17  CG1       -1.3280   27.7580  -19.3910 C.3    22  VAL22       0.0023
     18  CG2       -1.3040   28.3050  -21.8350 C.3    22  VAL22       0.0023
     19  N         -0.2900   24.5170  -19.2380 N.am   23  LEU23      -0.1963
     20  CA        -0.4800   23.5470  -18.1670 C.3    23  LEU23       0.1728
     21  C         -0.7170   24.2310  -16.8260 C.2    23  LEU23       0.2616
     22  O         -1.5080   23.7580  -16.0100 O.2    23  LEU23      -0.2715
     23  CB         0.7270   22.6130  -18.0710 C.3    23  LEU23       0.0311
     24  CG         0.9440   21.6610  -19.2480 C.3    23  LEU23       0.0022
     25  CD1        2.1810   20.8120  -19.0200 C.3    23  LEU23       0.0001
     26  CD2       -0.2790   20.7840  -19.4610 C.3    23  LEU23       0.0001
     27  N         -0.0300   25.3460  -16.6010 N.am   24  ALA24      -0.1977
     28  CA        -0.1610   26.0770  -15.3460 C.3    24  ALA24       0.1597
     29  C          0.0570   27.5720  -15.5430 C.2    24  ALA24       0.2287
     30  O          0.8970   27.9870  -16.3420 O.2    24  ALA24      -0.2864
     31  CB         0.8160   25.5330  -14.3170 C.3    24  ALA24       0.0319
     32  N          3.5390   27.5010  -17.4370 N.3    31  VAL31      -0.1245
     33  CA         4.0300   26.1640  -17.7520 C.3    31  VAL31       0.1561
     34  C          3.3000   25.6160  -18.9740 C.2    31  VAL31       0.2260
     35  O          2.0710   25.5660  -19.0010 O.2    31  VAL31      -0.2867
     36  CB         3.8530   25.1930  -16.5670 C.3    31  VAL31       0.0252
     37  CG1        4.2860   23.7880  -16.9600 C.3    31  VAL31       0.0019
     38  CG2        4.6400   25.6770  -15.3600 C.3    31  VAL31       0.0019
     39  N          7.7970   19.4320  -20.5620 N.3    44  ALA44      -0.1245
     40  CA         7.1740   20.5290  -19.8330 C.3    44  ALA44       0.1562
     41  C          8.0600   21.7670  -19.9230 C.2    44  ALA44       0.2260
     42  O          9.2460   21.7150  -19.5960 O.2    44  ALA44      -0.2867
     43  CB         6.9340   20.1460  -18.3890 C.3    44  ALA44       0.0290
     44  N          8.6800   25.7120  -18.8650 N.3    46  LYS46      -0.1245
     45  CA         8.3950   26.8560  -18.0090 C.3    46  LYS46       0.1561
     46  C          8.9720   28.1270  -18.6210 C.2    46  LYS46       0.2260
     47  O         10.1700   28.2040  -18.8920 O.2    46  LYS46      -0.2867
     48  CB         8.9620   26.6320  -16.6060 C.3    46  LYS46       0.0271
     49  CG         8.6200   27.7230  -15.6040 C.3    46  LYS46       0.0035
     50  CD         9.1920   27.3980  -14.2310 C.3    46  LYS46       0.0206
     51  CE         8.8510   28.4750  -13.2130 C.3    46  LYS46       0.1093
     52  NZ         9.4070   28.1610  -11.8670 N.3    46  LYS46      -0.1314
     53  N         17.4480   27.6650   -9.4010 N.3    62  GLU62      -0.1245
     54  CA        16.4730   26.5960   -9.5810 C.3    62  GLU62       0.1567
     55  C         17.0110   25.5470  -10.5480 C.2    62  GLU62       0.2260
     56  O         16.8340   24.3480  -10.3420 O.2    62  GLU62      -0.2867
     57  CB        15.1440   27.1620  -10.0900 C.3    62  GLU62       0.0388
     58  CG        14.0360   26.1300  -10.2400 C.3    62  GLU62       0.1160
     59  CD        12.7330   26.7370  -10.7310 C.2    62  GLU62       0.3649
     60  OE1       12.7410   27.9160  -11.1450 O.co2  62  GLU62      -0.2457
     61  OE2       11.6990   26.0360  -10.7010 O.co2  62  GLU62      -0.2457
     62  N         18.1000   21.3100   -9.8120 N.3    66  MET66      -0.1245
     63  CA        17.5100   20.2140  -10.5710 C.3    66  MET66       0.1570
     64  C         18.5700   19.3680  -11.2680 C.2    66  MET66       0.2261
     65  O         18.4280   18.1500  -11.3750 O.2    66  MET66      -0.2867
     66  CB        16.5120   20.7540  -11.5950 C.3    66  MET66       0.0387
     67  CG        15.3650   21.5350  -10.9770 C.3    66  MET66       0.0595
     68  SD        14.1360   22.0320  -12.1950 S.3    66  MET66      -0.1393
     69  CE        13.6510   20.4320  -12.8340 C.3    66  MET66       0.0692
     70  N         11.4210   15.0770  -10.7780 N.3    76  VAL76      -0.1245
     71  CA        11.2880   15.3820  -12.2000 C.3    76  VAL76       0.1561
     72  C         12.6650   15.5450  -12.8510 C.2    76  VAL76       0.2260
     73  O         13.5880   16.0960  -12.2510 O.2    76  VAL76      -0.2867
     74  CB        10.4320   16.6540  -12.4310 C.3    76  VAL76       0.0252
     75  CG1       11.1070   17.8840  -11.8400 C.3    76  VAL76       0.0019
     76  CG2       10.1490   16.8540  -13.9130 C.3    76  VAL76       0.0019
     77  N         12.6790   26.9410  -18.9630 N.3    98  LEU98      -0.1245
     78  CA        13.0570   25.7480  -18.2150 C.3    98  LEU98       0.1561
     79  C         12.3570   24.5160  -18.7820 C.2    98  LEU98       0.2260
     80  O         11.1270   24.4530  -18.8160 O.2    98  LEU98      -0.2867
     81  CB        12.7220   25.9180  -16.7330 C.3    98  LEU98       0.0270
     82  CG        13.1640   24.7920  -15.7970 C.3    98  LEU98       0.0019
     83  CD1       14.6700   24.6150  -15.8560 C.3    98  LEU98       0.0001
     84  CD2       12.7110   25.0690  -14.3730 C.3    98  LEU98       0.0001
     85  N         11.7000   20.4170  -18.7370 N.3   100  THR100     -0.1203
     86  CA        11.7520   19.1700  -17.9830 C.3   100  THR100      0.1994
     87  C         11.0110   18.0610  -18.7220 C.2   100  THR100      0.2618
     88  O         10.5880   18.2390  -19.8630 O.2   100  THR100     -0.2717
     89  CB        11.1390   19.3280  -16.5790 C.3   100  THR100      0.1784
     90  OG1        9.7150   19.4450  -16.6870 O.3   100  THR100     -0.2211
     91  CG2       11.6960   20.5600  -15.8840 C.3   100  THR100      0.0376
     92  N         10.8590   16.9150  -18.0660 N.am  101  GLU101     -0.1965
     93  CA        10.0590   15.8280  -18.6120 C.3   101  GLU101      0.1733
     94  C          8.5870   16.0690  -18.2970 C.2   101  GLU101      0.2616
     95  O          8.2590   16.7940  -17.3580 O.2   101  GLU101     -0.2715
     96  CB        10.5140   14.4790  -18.0520 C.3   101  GLU101      0.0429
     97  CG        10.3980   14.3610  -16.5410 C.3   101  GLU101      0.1163
     98  CD        10.7770   12.9830  -16.0320 C.2   101  GLU101      0.3649
     99  OE1       10.9020   12.0560  -16.8590 O.co2 101  GLU101     -0.2457
    100  OE2       10.9510   12.8270  -14.8040 O.co2 101  GLU101     -0.2457
    101  N          7.7020   15.4650  -19.0830 N.am  102  LEU102     -0.1963
    102  CA         6.2680   15.6350  -18.8770 C.3   102  LEU102      0.1728
    103  C          5.6860   14.4660  -18.0880 C.2   102  LEU102      0.2616
    104  O          6.0620   13.3130  -18.3010 O.2   102  LEU102     -0.2715
    105  CB         5.5420   15.7780  -20.2170 C.3   102  LEU102      0.0311
    106  CG         4.1050   16.2990  -20.1370 C.3   102  LEU102      0.0022
    107  CD1        4.0930   17.7440  -19.6710 C.3   102  LEU102      0.0001
    108  CD2        3.3910   16.1600  -21.4700 C.3   102  LEU102      0.0001
    109  N          4.7690   14.7740  -17.1760 N.am  103  CYS103     -0.1954
    110  CA         4.1090   13.7520  -16.3720 C.3   103  CYS103      0.1843
    111  C          2.6340   13.6410  -16.7420 C.2   103  CYS103      0.2625
    112  O          2.1520   14.3620  -17.6150 O.2   103  CYS103     -0.2714
    113  CB         4.2550   14.0640  -14.8810 C.3   103  CYS103      0.0997
    114  SG         5.9640   14.1150  -14.2920 S.3   103  CYS103     -0.0797
    115  N          1.9260   12.7310  -16.0770 N.am  104  LYS104     -0.1963
    116  CA         0.4890   12.5690  -16.2810 C.3   104  LYS104      0.1728
    117  C         -0.2530   13.8360  -15.8780 C.2   104  LYS104      0.2617
    118  O         -1.2460   14.2160  -16.5000 O.2   104  LYS104     -0.2715
    119  CB        -0.0440   11.3810  -15.4770 C.3   104  LYS104      0.0311
    120  CG         0.4980   10.0300  -15.9030 C.3   104  LYS104      0.0038
    121  CD        -0.1670    9.5520  -17.1790 C.3   104  LYS104      0.0206
    122  CE         0.3610    8.1920  -17.6010 C.3   104  LYS104      0.1093
    123  NZ        -0.2350    7.7440  -18.8870 N.3   104  LYS104     -0.1314
    124  N          0.2430   14.4840  -14.8300 N.am  105  GLY105     -0.1940
    125  CA        -0.3730   15.6850  -14.3020 C.3   105  GLY105      0.2014
    126  C         -0.1500   15.7780  -12.8080 C.2   105  GLY105      0.2638
    127  O          0.5990   14.9870  -12.2360 O.2   105  GLY105     -0.2714
    128  N         -0.8000   16.7470  -12.1730 N.am  106  GLN106     -0.1977
    129  CA        -0.6960   16.9030  -10.7290 C.3   106  GLN106      0.1601
    130  C         -1.3920   15.7470  -10.0210 C.2   106  GLN106      0.2287
    131  O         -2.3500   15.1780  -10.5420 O.2   106  GLN106     -0.2864
    132  CB        -1.2990   18.2330  -10.2830 C.3   106  GLN106      0.0394
    133  CG        -0.6260   19.4640  -10.8610 C.3   106  GLN106      0.0908
    134  CD        -1.1670   20.7490  -10.2640 C.2   106  GLN106      0.2608
    135  OE1       -1.4170   20.8310   -9.0610 O.2   106  GLN106     -0.2717
    136  NE2       -1.3560   21.7590  -11.1050 N.am  106  GLN106     -0.0878
    137  N         -5.5520   16.5350   -9.0490 N.3   109  GLU109     -0.1245
    138  CA        -6.6370   16.3320  -10.0060 C.3   109  GLU109      0.1567
    139  C         -6.9650   14.8560  -10.2290 C.2   109  GLU109      0.2260
    140  O         -8.1100   14.5030  -10.5160 O.2   109  GLU109     -0.2867
    141  CB        -6.2810   16.9970  -11.3350 C.3   109  GLU109      0.0388
    142  CG        -4.9380   16.5620  -11.8870 C.3   109  GLU109      0.1160
    143  CD        -4.6350   17.1650  -13.2410 C.2   109  GLU109      0.3649
    144  OE1       -5.2600   18.1890  -13.5910 O.co2 109  GLU109     -0.2457
    145  OE2       -3.7680   16.6160  -13.9540 O.co2 109  GLU109     -0.2457
    146  N          2.5190   20.2440   -5.4470 N.3   155  ASN155     -0.1240
    147  CA         3.8230   20.0790   -6.0810 C.3   155  ASN155      0.1653
    148  C          4.1840   18.6140   -6.3010 C.2   155  ASN155      0.2266
    149  O          5.2700   18.2980   -6.7900 O.2   155  ASN155     -0.2867
    150  CB         4.9120   20.7590   -5.2510 C.3   155  ASN155      0.1155
    151  CG         4.7720   22.2670   -5.2310 C.2   155  ASN155      0.2627
    152  OD1        4.9270   22.9010   -4.1900 O.2   155  ASN155     -0.2716
    153  ND2        4.4730   22.8490   -6.3870 N.am  155  ASN155     -0.0877
    154  N          3.6880   15.4080   -8.4280 N.3   157  LEU157     -0.1245
    155  CA         3.2300   15.0110   -9.7530 C.3   157  LEU157      0.1561
    156  C          3.0820   13.5010   -9.8720 C.2   157  LEU157      0.2260
    157  O          3.7570   12.7420   -9.1760 O.2   157  LEU157     -0.2867
    158  CB         4.1920   15.5130  -10.8320 C.3   157  LEU157      0.0270
    159  CG         4.2590   17.0160  -11.1010 C.3   157  LEU157      0.0019
    160  CD1        5.1450   17.2800  -12.3030 C.3   157  LEU157      0.0001
    161  CD2        2.8720   17.5920  -11.3190 C.3   157  LEU157      0.0001
    162  N          8.2510   18.6770   -8.4370 N.3   167  CYS167     -0.1221
    163  CA         8.3770   19.4850   -9.6480 C.3   167  CYS167      0.1808
    164  C          8.9570   20.8810   -9.4190 C.2   167  CYS167      0.2601
    165  O          9.9870   21.2300   -9.9940 O.2   167  CYS167     -0.2717
    166  CB         7.0140   19.6110  -10.3330 C.3   167  CYS167      0.0970
    167  SG         5.7200   20.3440   -9.3080 S.3   167  CYS167     -0.0800
    168  N          8.2910   21.6810   -8.5920 N.am  168  ASP168     -0.1973
    169  CA         8.6650   23.0830   -8.4290 C.3   168  ASP168      0.1709
    170  C          9.7730   23.2700   -7.3960 C.2   168  ASP168      0.2293
    171  O          9.6070   22.9300   -6.2250 O.2   168  ASP168     -0.2864
    172  CB         7.4420   23.9160   -8.0380 C.3   168  ASP168      0.1436
    173  CG         7.6750   25.4050   -8.2040 C.2   168  ASP168      0.3671
    174  OD1        8.2240   26.0320   -7.2730 O.co2 168  ASP168     -0.2456
    175  OD2        7.3060   25.9500   -9.2660 O.co2 168  ASP168     -0.2456
@<TRIPOS>BOND
     1     1     2    1
     2     2     5    1
     3     2     3    1
     4     5     6    1
     5     6     7    1
     6     3     4    2
     7     3    12   am
     8     7     8    1
     9    12    13    1
    10     8     9    2
    11    18    16    1
    12     9    10    1
    13     9    11    1
    14   108   106    1
    15    13    16    1
    16    13    14    1
    17    16    17    1
    18    39    40    1
    19   105   106    1
    20   105   102    1
    21   106   107    1
    22    14    15    2
    23    14    19   am
    24    41    40    1
    25    41    42    2
    26    88    87    2
    27    40    43    1
    28    26    24    1
    29    24    25    1
    30    24    23    1
    31    19    20    1
    32   101   102    1
    33   101    94   am
    34    35    34    2
    35    34    33    1
    36    77    78    1
    37    47    46    2
    38   123   122    1
    39   102   103    1
    40    44    45    1
    41    80    79    2
    42    79    78    1
    43    85    86    1
    44    87    92   am
    45    87    86    1
    46    46    45    1
    47    93    94    1
    48    93    92    1
    49    93    96    1
    50   104   103    2
    51    94    95    2
    52    78    81    1
    53    20    23    1
    54    20    21    1
    55   103   109   am
    56    96    97    1
    57    45    48    1
    58    86    89    1
    59    33    32    1
    60    33    36    1
    61   112   111    2
    62   122   121    1
    63   121   120    1
    64   109   110    1
    65    37    36    1
    66    99    98   ar
    67    21    27   am
    68    21    22    2
    69   111   110    1
    70   111   115   am
    71    81    82    1
    72    90    89    1
    73    48    49    1
    74    27    28    1
    75    89    91    1
    76    36    38    1
    77    97    98    1
    78   118   117    2
    79   110   113    1
    80    30    29    2
    81   116   115    1
    82   116   117    1
    83   116   119    1
    84    98   100   ar
    85   120   119    1
    86   117   124   am
    87    83    82    1
    88    82    84    1
    89    49    50    1
    90    29    28    1
    91    28    31    1
    92   113   114    1
    93   124   125    1
    94   125   126    1
    95    50    51    1
    96   145   143   ar
    97    76    74    1
    98   144   143   ar
    99   143   142    1
   100    51    52    1
   101    72    73    2
   102    72    71    1
   103    69    68    1
   104   126   127    2
   105   126   128   am
   106    74    71    1
   107    74    75    1
   108   160   159    1
   109    71    70    1
   110    68    67    1
   111   128   129    1
   112   142   141    1
   113    66    67    1
   114    66    63    1
   115    65    64    2
   116   141   138    1
   117   161   159    1
   118    64    63    1
   119    60    59   ar
   120   136   134   am
   121   159   158    1
   122   133   132    1
   123   133   134    1
   124   158   155    1
   125    59    61   ar
   126    59    58    1
   127   129   132    1
   128   129   130    1
   129    63    62    1
   130    55    56    2
   131    55    54    1
   132   131   130    2
   133   140   139    2
   134   166   163    1
   135   166   167    1
   136   134   135    2
   137    58    57    1
   138   139   138    1
   139    57    54    1
   140   138   137    1
   141   165   164    2
   142   156   155    1
   143   156   157    2
   144   155   154    1
   145   163   164    1
   146   163   162    1
   147    54    53    1
   148   164   168   am
   149   175   173   ar
   150   168   169    1
   151   169   172    1
   152   169   170    1
   153   173   172    1
   154   173   174   ar
   155   170   171    2
   156   149   148    2
   157   153   151   am
   158   148   147    1
   159   147   146    1
   160   147   150    1
   161   150   151    1
   162   151   152    2
