@<TRIPOS>MOLECULE
tmp/5y80A01.pdb
 160 150 0 0 0
SMALL
GASTEIGER

@<TRIPOS>ATOM
      1  N        -17.6550  -15.0620   33.6730 N.3    28  PHE28      -0.1241
      2  CA       -19.0070  -15.5290   33.9480 C.3    28  PHE28       0.1605
      3  C        -19.4580  -16.5480   32.9040 C.2    28  PHE28       0.2264
      4  O        -20.1540  -17.5130   33.2240 O.2    28  PHE28      -0.2867
      5  CB       -19.9810  -14.3440   34.0140 C.3    28  PHE28       0.0534
      6  CG       -20.0380  -13.5140   32.7530 C.ar   28  PHE28      -0.0203
      7  CD1      -20.9330  -13.8220   31.7380 C.ar   28  PHE28      -0.0042
      8  CD2      -19.2030  -12.4200   32.5890 C.ar   28  PHE28      -0.0042
      9  CE1      -20.9880  -13.0600   30.5820 C.ar   28  PHE28      -0.0003
     10  CE2      -19.2520  -11.6550   31.4350 C.ar   28  PHE28      -0.0003
     11  CZ       -20.1470  -11.9760   30.4310 C.ar   28  PHE28      -0.0000
     12  N        -30.2000  -12.2610   37.7860 N.3    54  GLU54      -0.1231
     13  CA       -29.9130  -11.0520   37.0300 C.3    54  GLU54       0.1699
     14  C        -29.1590  -11.3910   35.7510 C.2    54  GLU54       0.2592
     15  O        -29.4490  -10.8430   34.6890 O.2    54  GLU54      -0.2718
     16  CB       -29.1110  -10.0520   37.8600 C.3    54  GLU54       0.0402
     17  CG       -28.8610   -8.7460   37.1200 C.3    54  GLU54       0.1161
     18  CD       -28.1390   -7.7160   37.9630 C.2    54  GLU54       0.3649
     19  OE1      -27.7890   -8.0330   39.1180 O.co2  54  GLU54      -0.2457
     20  OE2      -27.9330   -6.5830   37.4740 O.co2  54  GLU54      -0.2457
     21  N        -28.1900  -12.2940   35.8590 N.am   55  LYS55      -0.1980
     22  CA       -27.4300  -12.7410   34.6990 C.3    55  LYS55       0.1596
     23  C        -28.2980  -13.6190   33.8070 C.2    55  LYS55       0.2287
     24  O        -28.1530  -13.6180   32.5830 O.2    55  LYS55      -0.2864
     25  CB       -26.1810  -13.5070   35.1340 C.3    55  LYS55       0.0298
     26  CG       -24.9360  -12.6530   35.2260 C.3    55  LYS55       0.0038
     27  CD       -23.9240  -13.2830   36.1630 C.3    55  LYS55       0.0206
     28  CE       -22.5180  -12.8070   35.8570 C.3    55  LYS55       0.1093
     29  NZ       -21.5180  -13.4630   36.7420 N.3    55  LYS55      -0.1314
     30  N        -30.6070  -11.5000   31.8620 N.3    58  ALA58      -0.1245
     31  CA       -29.7590  -10.7400   30.9530 C.3    58  ALA58       0.1562
     32  C        -29.4900  -11.5300   29.6720 C.2    58  ALA58       0.2260
     33  O        -29.6220  -11.0020   28.5670 O.2    58  ALA58      -0.2867
     34  CB       -28.4520  -10.3690   31.6290 C.3    58  ALA58       0.0290
     35  N        -30.6590  -11.0450   25.9520 N.3    62  GLU62      -0.1245
     36  CA       -29.5920  -11.0770   24.9600 C.3    62  GLU62       0.1567
     37  C        -30.0010  -11.9300   23.7560 C.2    62  GLU62       0.2260
     38  O        -29.7100  -11.5830   22.6140 O.2    62  GLU62      -0.2867
     39  CB       -28.3010  -11.6120   25.5890 C.3    62  GLU62       0.0388
     40  CG       -27.0790  -11.5850   24.6800 C.3    62  GLU62       0.1160
     41  CD       -25.8170  -12.0520   25.3900 C.2    62  GLU62       0.3649
     42  OE1      -25.9190  -12.5000   26.5510 O.co2  62  GLU62      -0.2457
     43  OE2      -24.7230  -11.9650   24.7940 O.co2  62  GLU62      -0.2457
     44  N        -25.0310    0.3350   23.7400 N.3   146  ARG146     -0.1231
     45  CA       -24.4310    0.8550   24.9780 C.3   146  ARG146      0.1694
     46  C        -23.0110    0.3530   25.2670 C.2   146  ARG146      0.2592
     47  O        -22.3450    0.8700   26.1660 O.2   146  ARG146     -0.2718
     48  CB       -25.3260    0.5440   26.1860 C.3   146  ARG146      0.0321
     49  CG       -26.7090    1.1680   26.1160 C.3   146  ARG146      0.0489
     50  CD       -27.3920    1.1580   27.4780 C.3   146  ARG146      0.2205
     51  NE       -27.5830   -0.1930   27.9950 N.pl3 146  ARG146     -0.0865
     52  CZ       -28.2300   -0.4810   29.1200 C.cat 146  ARG146      0.5346
     53  NH1      -28.7560    0.4900   29.8530 N.pl3 146  ARG146      0.1354
     54  NH2      -28.3580   -1.7420   29.5100 N.pl3 146  ARG146      0.1354
     55  N        -22.5430   -0.6390   24.5130 N.am  147  ASP147     -0.1974
     56  CA       -21.2000   -1.1700   24.7250 C.3   147  ASP147      0.1709
     57  C        -20.4010   -1.2150   23.4200 C.2   147  ASP147      0.2293
     58  O        -19.7270   -2.2040   23.1280 O.2   147  ASP147     -0.2864
     59  CB       -21.2770   -2.5650   25.3550 C.3   147  ASP147      0.1436
     60  CG       -19.9660   -2.9980   25.9910 C.2   147  ASP147      0.3671
     61  OD1      -19.2230   -2.1250   26.4890 O.co2 147  ASP147     -0.2456
     62  OD2      -19.6810   -4.2140   25.9970 O.co2 147  ASP147     -0.2456
     63  N        -25.0870   -8.2310   25.1520 N.3   167  GLY167     -0.1210
     64  CA       -25.4770   -8.4310   26.5370 C.3   167  GLY167      0.1956
     65  C        -25.8060   -7.1570   27.3000 C.2   167  GLY167      0.2612
     66  O        -26.5660   -7.1900   28.2650 O.2   167  GLY167     -0.2717
     67  N        -25.2410   -6.0340   26.8660 N.am  168  SER168     -0.1952
     68  CA       -25.4140   -4.7630   27.5670 C.3   168  SER168      0.1924
     69  C        -26.5110   -3.8920   26.9570 C.2   168  SER168      0.2314
     70  O        -26.7540   -2.7750   27.4180 O.2   168  SER168     -0.2863
     71  CB       -24.0960   -3.9820   27.5780 C.3   168  SER168      0.2116
     72  OG       -23.0650   -4.7210   28.2080 O.3   168  SER168     -0.2180
     73  N        -33.8980    6.8670   29.0900 N.3   174  HIS174     -0.1241
     74  CA       -34.0310    7.5290   30.3800 C.3   174  HIS174      0.1621
     75  C        -33.8790    9.0350   30.2350 C.2   174  HIS174      0.2264
     76  O        -32.8770    9.5210   29.7090 O.2   174  HIS174     -0.2867
     77  CB       -33.0020    6.9790   31.3680 C.3   174  HIS174      0.0745
     78  CG       -33.0200    5.4910   31.4870 C.ar  174  HIS174      0.0817
     79  ND1      -33.8150    4.8230   32.4090 N.ar  174  HIS174     -0.2268
     80  CD2      -32.3590    4.5280   30.8100 C.ar  174  HIS174      0.1154
     81  CE1      -33.6290    3.5310   32.2880 C.ar  174  HIS174      0.1986
     82  NE2      -32.7470    3.3140   31.3210 N.ar  174  HIS174     -0.2212
     83  N        -37.0510   13.9910   39.1420 N.3   180  TRP180     -0.1241
     84  CA       -35.9690   13.1350   39.6180 C.3   180  TRP180      0.1605
     85  C        -35.3690   13.6940   40.9010 C.2   180  TRP180      0.2264
     86  O        -34.7320   14.7490   40.8890 O.2   180  TRP180     -0.2867
     87  CB       -34.8750   12.9830   38.5570 C.3   180  TRP180      0.0550
     88  CG       -35.1550   11.9190   37.5410 C.ar  180  TRP180      0.0003
     89  CD1      -36.3480   11.6560   36.9340 C.ar  180  TRP180      0.0946
     90  CD2      -34.2230   10.9590   37.0270 C.ar  180  TRP180      0.0152
     91  NE1      -36.2140   10.5990   36.0670 N.ar  180  TRP180     -0.2442
     92  CE2      -34.9200   10.1520   36.1070 C.ar  180  TRP180      0.0810
     93  CE3      -32.8660   10.7070   37.2540 C.ar  180  TRP180      0.0012
     94  CZ2      -34.3070    9.1110   35.4140 C.ar  180  TRP180      0.0191
     95  CZ3      -32.2590    9.6730   36.5640 C.ar  180  TRP180      0.0001
     96  CH2      -32.9790    8.8870   35.6560 C.ar  180  TRP180      0.0015
     97  N        -28.7180    6.0840   40.4800 N.3   188  VAL188     -0.1245
     98  CA       -28.5360    5.7630   39.0680 C.3   188  VAL188      0.1561
     99  C        -27.0640    5.8190   38.6630 C.2   188  VAL188      0.2260
    100  O        -26.5810    4.9370   37.9510 O.2   188  VAL188     -0.2867
    101  CB       -29.3620    6.7080   38.1640 C.3   188  VAL188      0.0252
    102  CG1      -28.9200    6.5940   36.7110 C.3   188  VAL188      0.0019
    103  CG2      -30.8480    6.3980   38.2940 C.3   188  VAL188      0.0019
    104  N        -25.2430    2.7780   39.7390 N.3   191  GLU191     -0.1231
    105  CA       -25.5980    1.6290   38.9150 C.3   191  GLU191      0.1699
    106  C        -24.8870    1.6550   37.5630 C.2   191  GLU191      0.2592
    107  O        -24.5670    0.6070   37.0050 O.2   191  GLU191     -0.2718
    108  CB       -27.1140    1.5700   38.7130 C.3   191  GLU191      0.0402
    109  CG       -27.6120    0.2520   38.1340 C.3   191  GLU191      0.1161
    110  CD       -29.1060    0.0570   38.3150 C.2   191  GLU191      0.3649
    111  OE1      -29.7960    1.0310   38.6870 O.co2 191  GLU191     -0.2457
    112  OE2      -29.5900   -1.0730   38.0880 O.co2 191  GLU191     -0.2457
    113  N        -24.6340    2.8510   37.0420 N.am  192  ILE192     -0.1980
    114  CA       -23.9580    2.9870   35.7550 C.3   192  ILE192      0.1595
    115  C        -22.4560    2.7450   35.8820 C.2   192  ILE192      0.2287
    116  O        -21.8710    2.0070   35.0890 O.2   192  ILE192     -0.2864
    117  CB       -24.1990    4.3810   35.1320 C.3   192  ILE192      0.0276
    118  CG1      -25.6890    4.5990   34.8710 C.3   192  ILE192      0.0022
    119  CG2      -23.4230    4.5310   33.8350 C.3   192  ILE192      0.0022
    120  CD1      -26.0120    5.9470   34.2810 C.3   192  ILE192      0.0001
    121  N        -21.3760   -0.7550   36.1530 N.3   195  ASN195     -0.1225
    122  CA       -21.5800   -1.5370   34.9400 C.3   195  ASN195      0.1785
    123  C        -20.8490   -0.9370   33.7430 C.2   195  ASN195      0.2597
    124  O        -21.0740   -1.3470   32.6060 O.2   195  ASN195     -0.2718
    125  CB       -23.0730   -1.6610   34.6240 C.3   195  ASN195      0.1169
    126  CG       -23.8450   -2.3850   35.7120 C.2   195  ASN195      0.2627
    127  OD1      -23.8180   -3.6130   35.7970 O.2   195  ASN195     -0.2716
    128  ND2      -24.5450   -1.6260   36.5460 N.am  195  ASN195     -0.0877
    129  N        -19.9830    0.0390   34.0030 N.am  196  THR196     -0.1953
    130  CA       -19.2030    0.6800   32.9440 C.3   196  THR196      0.1897
    131  C        -17.7330    0.8580   33.3160 C.2   196  THR196      0.2313
    132  O        -17.3300    0.6330   34.4580 O.2   196  THR196     -0.2863
    133  CB       -19.7720    2.0680   32.5690 C.3   196  THR196      0.1794
    134  OG1      -19.9320    2.8620   33.7530 O.3   196  THR196     -0.2208
    135  CG2      -21.1120    1.9320   31.8640 C.3   196  THR196      0.0378
    136  N        -23.9440   10.2940   31.2080 N.3   205  ILE205     -0.1245
    137  CA       -23.9840    9.3200   32.2960 C.3   205  ILE205      0.1561
    138  C        -22.9660    9.6510   33.3840 C.2   205  ILE205      0.2260
    139  O        -22.8400    8.9250   34.3680 O.2   205  ILE205     -0.2867
    140  CB       -23.7370    7.8820   31.7900 C.3   205  ILE205      0.0252
    141  CG1      -22.3150    7.7330   31.2470 C.3   205  ILE205      0.0019
    142  CG2      -24.7650    7.5030   30.7380 C.3   205  ILE205      0.0019
    143  CD1      -21.9940    6.3430   30.7480 C.3   205  ILE205      0.0001
    144  N        -30.6970   10.1840   28.1900 N.3   214  ILE214     -0.1245
    145  CA       -29.8200    9.0200   28.1340 C.3   214  ILE214      0.1561
    146  C        -30.4720    7.9060   27.3250 C.2   214  ILE214      0.2260
    147  O        -31.2380    7.1020   27.8590 O.2   214  ILE214     -0.2867
    148  CB       -29.4700    8.5030   29.5400 C.3   214  ILE214      0.0252
    149  CG1      -28.9340    9.6460   30.4070 C.3   214  ILE214      0.0019
    150  CG2      -28.4590    7.3700   29.4540 C.3   214  ILE214      0.0019
    151  CD1      -28.5260    9.2180   31.7990 C.3   214  ILE214      0.0001
    152  N        -26.1920    7.7970   22.8790 N.3   218  GLN218     -0.1245
    153  CA       -25.0260    7.1740   23.5000 C.3   218  GLN218      0.1566
    154  C        -24.1410    6.4840   22.4710 C.2   218  GLN218      0.2260
    155  O        -22.9160    6.6020   22.5080 O.2   218  GLN218     -0.2867
    156  CB       -25.4530    6.1490   24.5470 C.3   218  GLN218      0.0367
    157  CG       -25.7970    6.7120   25.8980 C.3   218  GLN218      0.0905
    158  CD       -25.9490    5.6160   26.9270 C.2   218  GLN218      0.2608
    159  OE1      -24.9980    5.2790   27.6330 O.2   218  GLN218     -0.2717
    160  NE2      -27.1440    5.0370   27.0070 N.am  218  GLN218     -0.0878
@<TRIPOS>BOND
     1   154   155    2
     2   154   153    1
     3    38    37    2
     4   152   153    1
     5    58    57    2
     6    57    56    1
     7   153   156    1
     8    44    45    1
     9    37    36    1
    10    55    56    1
    11    55    46   am
    12   156   157    1
    13    40    41    1
    14    40    39    1
    15    56    59    1
    16    43    41   ar
    17    36    39    1
    18    36    35    1
    19    45    46    1
    20    45    48    1
    21    63    64    1
    22    46    47    2
    23    59    60    1
    24    41    42   ar
    25   157   158    1
    26    60    62   ar
    27    60    61   ar
    28    49    48    1
    29    49    50    1
    30    64    65    1
    31    67    65   am
    32    67    68    1
    33   158   160   am
    34   158   159    2
    35    69    70    2
    36    69    68    1
    37    65    66    2
    38   146   147    2
    39   146   145    1
    40    50    51    1
    41    68    71    1
    42    71    72    1
    43    51    52    2
    44   145   144    1
    45   145   148    1
    46    33    32    2
    47    73    74    1
    48    52    54    1
    49    52    53    1
    50   150   148    1
    51   148   149    1
    52    32    31    1
    53    76    75    2
    54    75    74    1
    55    74    77    1
    56   149   151    1
    57    11     9   ar
    58    11    10   ar
    59     9     7   ar
    60   142   140    1
    61   143   141    1
    62    80    82   ar
    63    80    78   ar
    64    31    34    1
    65    31    30    1
    66   136   137    1
    67   141   140    1
    68    82    81   ar
    69    77    78    1
    70    10     8   ar
    71    78    79   ar
    72     7     6   ar
    73   140   137    1
    74   135   133    1
    75    81    79   ar
    76   137   138    1
    77   133   130    1
    78   133   134    1
    79    24    23    2
    80     8     6   ar
    81   124   123    2
    82     6     5    1
    83     3     4    2
    84     3     2    1
    85   130   131    1
    86   130   129    1
    87   131   132    2
    88   138   139    2
    89     1     2    1
    90   123   129   am
    91   123   122    1
    92    23    22    1
    93   119   117    1
    94     2     5    1
    95   120   118    1
    96   125   122    1
    97   125   126    1
    98    15    14    2
    99    22    25    1
   100    22    21    1
   101   118   117    1
   102   122   121    1
   103   116   115    2
   104   117   114    1
   105    25    26    1
   106    26    27    1
   107    94    96   ar
   108    94    92   ar
   109    96    95   ar
   110   126   127    2
   111   126   128   am
   112    14    21   am
   113    14    13    1
   114   114   115    1
   115   114   113    1
   116    28    27    1
   117    28    29    1
   118    91    92   ar
   119    91    89   ar
   120    92    90   ar
   121    95    93   ar
   122   102   101    1
   123    89    88   ar
   124   107   106    2
   125    90    93   ar
   126    90    88   ar
   127    13    12    1
   128    13    16    1
   129   113   106   am
   130    17    16    1
   131    17    18    1
   132    20    18   ar
   133    88    87    1
   134   106   105    1
   135   100    99    2
   136    18    19   ar
   137   112   110   ar
   138   109   110    1
   139   109   108    1
   140   101   103    1
   141   101    98    1
   142   110   111   ar
   143    87    84    1
   144    99    98    1
   145   108   105    1
   146   105   104    1
   147    98    97    1
   148    83    84    1
   149    84    85    1
   150    86    85    2
