@<TRIPOS>MOLECULE
tmp/5y84B00.pdb
 164 154 0 0 0
SMALL
GASTEIGER

@<TRIPOS>ATOM
      1  N         12.2670    8.9490   -5.5700 N.3    41  GLY41      -0.1225
      2  CA        10.9960    8.6530   -4.9240 C.3    41  GLY41       0.1811
      3  C          9.7750    8.7590   -5.8360 C.2    41  GLY41       0.2280
      4  O          9.0470    9.7610   -5.8070 O.2    41  GLY41      -0.2866
      5  N          6.0540    7.4980   -7.5540 N.3    43  ALA43      -0.1245
      6  CA         4.7650    7.0200   -7.0820 C.3    43  ALA43       0.1562
      7  C          3.7610    7.0760   -8.2280 C.2    43  ALA43       0.2260
      8  O          3.8230    7.9590   -9.0850 O.2    43  ALA43      -0.2867
      9  CB         4.2660    7.8430   -5.8860 C.3    43  ALA43       0.0290
     10  N         -0.3200    7.3980   -8.7680 N.3    45  ARG45      -0.1245
     11  CA        -1.5130    7.8540   -8.0750 C.3    45  ARG45       0.1563
     12  C         -2.7410    7.6050   -8.9370 C.2    45  ARG45       0.2260
     13  O         -2.7200    7.8550  -10.1490 O.2    45  ARG45      -0.2867
     14  CB        -1.4210    9.3550   -7.7310 C.3    45  ARG45       0.0307
     15  CG        -2.7770   10.0540   -7.6200 C.3    45  ARG45       0.0489
     16  CD        -2.6640   11.5600   -7.3470 C.3    45  ARG45       0.2205
     17  NE        -2.1970   11.8020   -5.9860 N.pl3  45  ARG45      -0.0865
     18  CZ        -2.1610   12.9980   -5.4070 C.cat  45  ARG45       0.5346
     19  NH1       -2.5740   14.0730   -6.0780 N.pl3  45  ARG45       0.1354
     20  NH2       -1.7050   13.1190   -4.1570 N.pl3  45  ARG45       0.1354
     21  N          4.3440   10.5690  -10.2850 N.3    59  ARG59      -0.1245
     22  CA         5.0280   11.6590   -9.6020 C.3    59  ARG59       0.1563
     23  C          6.3640   11.1780   -9.0610 C.2    59  ARG59       0.2260
     24  O          6.5630    9.9900   -8.8310 O.2    59  ARG59      -0.2867
     25  CB         4.1870   12.2240   -8.4530 C.3    59  ARG59       0.0307
     26  CG         3.5430   11.1810   -7.5400 C.3    59  ARG59       0.0489
     27  CD         2.0680   10.9500   -7.9100 C.3    59  ARG59       0.2205
     28  NE         1.3280   12.1980   -8.0630 N.pl3  59  ARG59      -0.0865
     29  CZ         1.0050   13.0100   -7.0590 C.cat  59  ARG59       0.5346
     30  NH1        1.3540   12.7080   -5.8110 N.pl3  59  ARG59       0.1354
     31  NH2        0.3420   14.1310   -7.3030 N.pl3  59  ARG59       0.1354
     32  N          9.8150   12.5390   -6.3380 N.3    61  GLY61      -0.1210
     33  CA        10.5080   13.5060   -5.5180 C.3    61  GLY61       0.1956
     34  C         11.9420   13.0620   -5.3330 C.2    61  GLY61       0.2611
     35  O         12.2240   11.8610   -5.2650 O.2    61  GLY61      -0.2717
     36  N         12.8650   14.0110   -5.2890 N.am   62  GLU62      -0.1979
     37  CA        14.2370   13.6810   -4.9530 C.3    62  GLU62       0.1602
     38  C         14.8300   14.8320   -4.1610 C.2    62  GLU62       0.2287
     39  O         14.3660   15.9740   -4.2290 O.2    62  GLU62      -0.2864
     40  CB        15.0750   13.3600   -6.1940 C.3    62  GLU62       0.0415
     41  CG        15.8120   14.5350   -6.7620 C.3    62  GLU62       0.1163
     42  CD        16.5850   14.1840   -8.0190 C.2    62  GLU62       0.3649
     43  OE1       17.3500   13.2050   -7.9890 O.co2  62  GLU62      -0.2457
     44  OE2       16.4380   14.8950   -9.0320 O.co2  62  GLU62      -0.2457
     45  N         14.4260   19.3990   -1.0340 N.3   101  ALA101     -0.1231
     46  CA        13.9400   18.4300   -1.9980 C.3   101  ALA101      0.1694
     47  C         13.1060   19.1780   -3.0300 C.2   101  ALA101      0.2592
     48  O         12.7060   20.3230   -2.8120 O.2   101  ALA101     -0.2718
     49  CB        13.1190   17.3240   -1.3220 C.3   101  ALA101      0.0304
     50  N         12.8700   18.5200   -4.1620 N.am  102  TYR102     -0.1976
     51  CA        11.9120   18.9900   -5.1570 C.3   102  TYR102      0.1639
     52  C         11.1740   17.7640   -5.6780 C.2   102  TYR102      0.2290
     53  O         11.5310   16.6250   -5.3600 O.2   102  TYR102     -0.2864
     54  CB        12.5910   19.7720   -6.3020 C.3   102  TYR102      0.0560
     55  CG        13.1650   18.8400   -7.3320 C.ar  102  TYR102     -0.0198
     56  CD1       12.3960   18.3940   -8.4050 C.ar  102  TYR102     -0.0009
     57  CD2       14.4520   18.3450   -7.1990 C.ar  102  TYR102     -0.0009
     58  CE1       12.8930   17.5010   -9.3120 C.ar  102  TYR102      0.0417
     59  CE2       14.9600   17.4650   -8.1150 C.ar  102  TYR102      0.0417
     60  CZ        14.1750   17.0420   -9.1640 C.ar  102  TYR102      0.1957
     61  OH        14.6750   16.1550  -10.0650 O.3   102  TYR102     -0.2866
     62  N          6.9930   20.8920   -7.3120 N.3   116  TRP116     -0.1241
     63  CA         6.9550   21.2910   -5.9230 C.3   116  TRP116      0.1605
     64  C          8.3320   21.5670   -5.3440 C.2   116  TRP116      0.2264
     65  O          9.3840   21.1990   -5.8880 O.2   116  TRP116     -0.2867
     66  CB         6.2070   20.2990   -5.0300 C.3   116  TRP116      0.0550
     67  CG         6.5750   18.8890   -5.0630 C.ar  116  TRP116      0.0003
     68  CD1        7.6130   18.2880   -4.4090 C.ar  116  TRP116      0.0946
     69  CD2        5.8590   17.8510   -5.7200 C.ar  116  TRP116      0.0152
     70  NE1        7.6020   16.9280   -4.6450 N.ar  116  TRP116     -0.2442
     71  CE2        6.5340   16.6390   -5.4540 C.ar  116  TRP116      0.0810
     72  CE3        4.7230   17.8250   -6.5250 C.ar  116  TRP116      0.0012
     73  CZ2        6.1060   15.4240   -5.9730 C.ar  116  TRP116      0.0191
     74  CZ3        4.3050   16.6220   -7.0250 C.ar  116  TRP116      0.0001
     75  CH2        4.9890   15.4430   -6.7510 C.ar  116  TRP116      0.0015
     76  N         10.2010   21.5990   -1.5460 N.3   118  LEU118     -0.1245
     77  CA        10.1830   21.1150   -0.1610 C.3   118  LEU118      0.1561
     78  C         11.3260   21.7500    0.5960 C.2   118  LEU118      0.2260
     79  O         12.4960   21.4080    0.3400 O.2   118  LEU118     -0.2867
     80  CB        10.2940   19.5950   -0.0740 C.3   118  LEU118      0.0270
     81  CG         8.9650   18.8550    0.0050 C.3   118  LEU118      0.0019
     82  CD1        8.4290   18.7640   -1.3660 C.3   118  LEU118      0.0001
     83  CD2        9.1380   17.4700    0.5870 C.3   118  LEU118      0.0001
     84  N          1.6010   23.5090    1.9620 N.3   167  TYR167     -0.1241
     85  CA         1.5350   22.2970    2.7660 C.3   167  TYR167      0.1605
     86  C          2.1420   22.5620    4.1330 C.2   167  TYR167      0.2264
     87  O          3.2320   23.1420    4.2350 O.2   167  TYR167     -0.2867
     88  CB         2.2840   21.1310    2.1220 C.3   167  TYR167      0.0534
     89  CG         1.8300   20.8010    0.7340 C.ar  167  TYR167     -0.0201
     90  CD1        2.1820   21.6080   -0.3350 C.ar  167  TYR167     -0.0009
     91  CD2        1.0540   19.6770    0.4850 C.ar  167  TYR167     -0.0009
     92  CE1        1.7700   21.3110   -1.6090 C.ar  167  TYR167      0.0417
     93  CE2        0.6380   19.3780   -0.7930 C.ar  167  TYR167      0.0417
     94  CZ         1.0050   20.2050   -1.8390 C.ar  167  TYR167      0.1957
     95  OH         0.5900   19.9270   -3.1250 O.3   167  TYR167     -0.2866
     96  N         -0.0690   15.9280    7.5490 N.3   206  GLU206     -0.1245
     97  CA         0.1580   16.9260    6.5130 C.3   206  GLU206      0.1567
     98  C         -1.1780   17.4610    6.0280 C.2   206  GLU206      0.2260
     99  O         -2.0570   16.6760    5.6610 O.2   206  GLU206     -0.2867
    100  CB         0.9440   16.3230    5.3430 C.3   206  GLU206      0.0388
    101  CG         1.1430   17.2720    4.1740 C.3   206  GLU206      0.1160
    102  CD         2.4920   17.0990    3.5030 C.2   206  GLU206      0.3649
    103  OE1        3.1720   16.0710    3.7290 O.co2 206  GLU206     -0.2457
    104  OE2        2.8780   18.0150    2.7540 O.co2 206  GLU206     -0.2457
    105  N         -3.3680   14.4290    4.3480 N.3   224  TYR224     -0.1241
    106  CA        -2.5680   13.2810    3.9430 C.3   224  TYR224      0.1605
    107  C         -2.3570   12.3470    5.1200 C.2   224  TYR224      0.2264
    108  O         -2.0110   12.7910    6.2230 O.2   224  TYR224     -0.2867
    109  CB        -1.2190   13.7190    3.3680 C.3   224  TYR224      0.0534
    110  CG        -1.3980   14.4800    2.0780 C.ar  224  TYR224     -0.0201
    111  CD1       -1.5400   13.8170    0.8630 C.ar  224  TYR224     -0.0009
    112  CD2       -1.4810   15.8690    2.0870 C.ar  224  TYR224     -0.0009
    113  CE1       -1.7410   14.5290   -0.3110 C.ar  224  TYR224      0.0417
    114  CE2       -1.6700   16.5760    0.9480 C.ar  224  TYR224      0.0417
    115  CZ        -1.8040   15.9150   -0.2550 C.ar  224  TYR224      0.1957
    116  OH        -2.0080   16.6680   -1.3900 O.3   224  TYR224     -0.2866
    117  N          0.1870    6.3950    0.2740 N.3   258  LEU258     -0.1245
    118  CA        -0.1470    7.7170    0.7800 C.3   258  LEU258      0.1561
    119  C         -1.5330    8.0670    0.2730 C.2   258  LEU258      0.2260
    120  O         -1.7690    8.0610   -0.9410 O.2   258  LEU258     -0.2867
    121  CB         0.8770    8.7530    0.3220 C.3   258  LEU258      0.0270
    122  CG         1.9220    9.1390    1.3780 C.3   258  LEU258      0.0019
    123  CD1        3.0360    9.9070    0.7310 C.3   258  LEU258      0.0001
    124  CD2        1.3090    9.9770    2.4870 C.3   258  LEU258      0.0001
    125  N         -1.6010    7.0470   -3.6170 N.3   274  ASP274     -0.1239
    126  CA        -0.2980    6.8600   -4.2470 C.3   274  ASP274      0.1674
    127  C          0.3240    5.5790   -3.7210 C.2   274  ASP274      0.2266
    128  O          0.3460    5.3640   -2.5030 O.2   274  ASP274     -0.2867
    129  CB         0.6540    8.0100   -3.9180 C.3   274  ASP274      0.1410
    130  CG         0.2620    9.3140   -4.5670 C.2   274  ASP274      0.3668
    131  OD1       -0.9360    9.6570   -4.5760 O.co2 274  ASP274     -0.2456
    132  OD2        1.1760    9.9980   -5.0710 O.co2 274  ASP274     -0.2456
    133  N          8.9810    6.4970   -0.5320 N.3   281  VAL281     -0.1245
    134  CA         8.1160    7.6430   -0.2770 C.3   281  VAL281      0.1561
    135  C          7.5790    7.6200    1.1500 C.2   281  VAL281      0.2260
    136  O          7.5780    8.6430    1.8400 O.2   281  VAL281     -0.2867
    137  CB         6.9790    7.6810   -1.3180 C.3   281  VAL281      0.0252
    138  CG1        5.9810    8.7630   -0.9660 C.3   281  VAL281      0.0019
    139  CG2        7.5640    7.9230   -2.6870 C.3   281  VAL281      0.0019
    140  N         10.0990    8.5480    3.6480 N.3   284  SER284     -0.1202
    141  CA        10.3550    9.9730    3.4510 C.3   284  SER284      0.2020
    142  C          9.2830   10.8180    4.1230 C.2   284  SER284      0.2618
    143  O          9.5930   11.8260    4.7670 O.2   284  SER284     -0.2717
    144  CB        10.4220   10.3060    1.9580 C.3   284  SER284      0.2103
    145  OG        11.4330    9.5710    1.2870 O.3   284  SER284     -0.2182
    146  N          8.0130   10.4300    3.9600 N.am  285  PHE285     -0.1975
    147  CA         6.8880   11.1330    4.5720 C.3   285  PHE285      0.1639
    148  C          7.0350   11.1760    6.0890 C.2   285  PHE285      0.2290
    149  O          7.0400   12.2560    6.7130 O.2   285  PHE285     -0.2864
    150  CB         5.5870   10.4230    4.1800 C.3   285  PHE285      0.0560
    151  CG         4.3270   11.1470    4.6040 C.ar  285  PHE285     -0.0200
    152  CD1        3.9310   12.3150    3.9660 C.ar  285  PHE285     -0.0042
    153  CD2        3.5180   10.6360    5.6080 C.ar  285  PHE285     -0.0042
    154  CE1        2.7540   12.9750    4.3400 C.ar  285  PHE285     -0.0003
    155  CE2        2.3470   11.2780    5.9850 C.ar  285  PHE285     -0.0003
    156  CZ         1.9630   12.4600    5.3500 C.ar  285  PHE285     -0.0000
    157  N          9.9860   13.3940    7.0990 N.3   288  MET288     -0.1196
    158  CA         9.8070   14.8300    6.9540 C.3   288  MET288      0.1786
    159  C          8.8050   15.3700    7.9650 C.2   288  MET288      0.2306
    160  O          8.7670   16.5800    8.1950 O.2   288  MET288     -0.2863
    161  CB         9.3980   15.1660    5.5020 C.2   288  MET288      0.0070
    162  CG         7.8880   15.1820    5.2160 C.2   288  MET288      0.0282
    163  SD         7.4030   15.5480    3.4840 S.3   288  MET288     -0.1125
    164  CE         7.0120   17.3100    3.4880 C.3   288  MET288      0.0742
@<TRIPOS>BOND
     1    21    22    1
     2    13    12    2
     3    61    60    1
     4    22    23    1
     5    22    25    1
     6    58    60   ar
     7    58    56   ar
     8    60    59   ar
     9     8     7    2
    10    23    24    2
    11    44    42   ar
    12    12    11    1
    13    10    11    1
    14    25    26    1
    15    56    55   ar
    16     7     6    1
    17    59    57   ar
    18    11    14    1
    19    28    27    1
    20    28    29    2
    21    42    43   ar
    22    42    41    1
    23    27    26    1
    24    14    15    1
    25    15    16    1
    26     5     6    1
    27    16    17    1
    28    55    57   ar
    29    55    54    1
    30    62    63    1
    31    31    29    1
    32     6     9    1
    33    29    30    1
    34    74    75   ar
    35    74    72   ar
    36    41    40    1
    37    75    73   ar
    38    72    69   ar
    39    32    33    1
    40    54    51    1
    41    40    37    1
    42    19    18    1
    43    17    18    2
    44    73    71   ar
    45    63    64    1
    46    63    66    1
    47    65    64    2
    48     3     4    2
    49     3     2    1
    50    69    71   ar
    51    69    67   ar
    52    52    53    2
    53    52    51    1
    54     1     2    1
    55    33    34    1
    56    71    70   ar
    57    18    20    1
    58    34    36   am
    59    34    35    2
    60    36    37    1
    61    51    50    1
    62   132   130   ar
    63    67    66    1
    64    67    68   ar
    65    37    38    1
    66    70    68   ar
    67   131   130   ar
    68   130   129    1
    69   126   129    1
    70   126   127    1
    71   126   125    1
    72    39    38    2
    73    50    47   am
    74   127   128    2
    75    95    94    1
    76    47    48    2
    77    47    46    1
    78   139   137    1
    79    46    49    1
    80    46    45    1
    81    94    92   ar
    82    94    93   ar
    83    92    90   ar
    84    76    77    1
    85   116   115    1
    86    82    81    1
    87   137   138    1
    88   137   134    1
    89   120   119    2
    90    93    91   ar
    91   133   134    1
    92    90    89   ar
    93   113   115   ar
    94   113   111   ar
    95   134   135    1
    96   115   114   ar
    97    77    80    1
    98    77    78    1
    99    80    81    1
   100    81    83    1
   101   119   118    1
   102   117   118    1
   103   121   118    1
   104   121   122    1
   105    79    78    2
   106    91    89   ar
   107   123   122    1
   108    89    88    1
   109   111   110   ar
   110   114   112   ar
   111   135   136    2
   112   145   144    1
   113   122   124    1
   114   144   141    1
   115    84    85    1
   116   110   112   ar
   117   110   109    1
   118    88    85    1
   119   104   102   ar
   120    85    86    1
   121   109   106    1
   122   141   140    1
   123   141   142    1
   124   163   164    1
   125   163   162    1
   126   102   103   ar
   127   102   101    1
   128   106   105    1
   129   106   107    1
   130   146   142   am
   131   146   147    1
   132   152   154   ar
   133   152   151   ar
   134   142   143    2
   135    86    87    2
   136   101   100    1
   137   150   147    1
   138   150   151    1
   139   154   156   ar
   140   147   148    1
   141   151   153   ar
   142   107   108    2
   143   162   161    2
   144   100    97    1
   145   156   155   ar
   146   161   158    1
   147   153   155   ar
   148    99    98    2
   149    98    97    1
   150   148   149    2
   151    97    96    1
   152   158   157    1
   153   158   159    1
   154   159   160    2
