@<TRIPOS>MOLECULE
tmp/5y88C00.pdb
 161 153 0 0 0
SMALL
GASTEIGER

@<TRIPOS>ATOM
      1  N        282.1580  322.4560  224.4050 N.3    76  LEU76      -0.1231
      2  CA       281.3070  321.5260  225.1710 C.3    76  LEU76       0.1693
      3  C        279.8580  321.8910  225.1260 C.2    76  LEU76       0.2592
      4  O        279.4910  323.0480  225.2610 O.2    76  LEU76      -0.2718
      5  CB       281.6790  321.4850  226.6340 C.3    76  LEU76       0.0284
      6  CG       282.8420  320.6320  227.0560 C.3    76  LEU76       0.0019
      7  CD1      282.9760  320.6920  228.5850 C.3    76  LEU76       0.0001
      8  CD2      282.6900  319.2130  226.6190 C.3    76  LEU76       0.0001
      9  N        279.0470  320.8860  224.9020 N.am   77  HIS77      -0.1962
     10  CA       277.6520  321.0190  225.0860 C.3    77  HIS77       0.1787
     11  C        277.0220  322.1250  224.2660 C.2    77  HIS77       0.2621
     12  O        275.9980  322.6780  224.6390 O.2    77  HIS77      -0.2715
     13  CB       277.3510  321.1380  226.5870 C.3    77  HIS77       0.0785
     14  CG       277.9350  320.0220  227.4020 C.ar   77  HIS77       0.0821
     15  ND1      277.4660  318.7240  227.3840 N.ar   77  HIS77      -0.2267
     16  CD2      278.9600  320.0320  228.2660 C.ar   77  HIS77       0.1154
     17  CE1      278.2000  317.9830  228.1860 C.ar   77  HIS77       0.1986
     18  NE2      279.1070  318.7550  228.7440 N.ar   77  HIS77      -0.2212
     19  N        277.6420  322.4440  223.1520 N.am   78  SER78      -0.1936
     20  CA       277.0520  323.3730  222.2360 C.3    78  SER78       0.2055
     21  C        275.8720  322.7710  221.4730 C.2    78  SER78       0.2644
     22  O        275.1220  323.4640  220.8190 O.2    78  SER78      -0.2714
     23  CB       278.1050  323.8650  221.2620 C.3    78  SER78       0.2130
     24  OG       278.6680  322.7520  220.5900 O.3    78  SER78      -0.2179
     25  N        275.7290  321.4740  221.5310 N.am   79  GLY79      -0.1939
     26  CA       274.6090  320.8380  220.8900 C.3    79  GLY79       0.2014
     27  C        274.8740  320.1360  219.5730 C.2    79  GLY79       0.2639
     28  O        273.9490  319.7030  218.8860 O.2    79  GLY79      -0.2714
     29  N        276.1340  319.9410  219.2760 N.am   80  LYS80      -0.1963
     30  CA       276.5330  319.2270  218.0850 C.3    80  LYS80       0.1728
     31  C        275.8030  317.8930  217.8920 C.2    80  LYS80       0.2617
     32  O        275.0000  317.7250  216.9590 O.2    80  LYS80      -0.2715
     33  CB       278.0110  318.9460  218.2120 C.3    80  LYS80       0.0311
     34  CG       278.8270  320.2100  218.1680 C.3    80  LYS80       0.0038
     35  CD       280.2900  319.8810  218.2010 C.3    80  LYS80       0.0206
     36  CE       280.7470  319.4230  219.5550 C.3    80  LYS80       0.1093
     37  NZ       280.5770  320.5100  220.5310 N.3    80  LYS80      -0.1314
     38  N        276.0390  316.9490  218.7940 N.am   81  THR81      -0.1937
     39  CA       275.5080  315.6250  218.6610 C.3    81  THR81       0.2028
     40  C        273.9860  315.6490  218.5940 C.2    81  THR81       0.2642
     41  O        273.3750  314.9600  217.7530 O.2    81  THR81      -0.2714
     42  CB       275.9710  314.7400  219.8130 C.3    81  THR81       0.1808
     43  OG1      277.4060  314.7330  219.8870 O.3    81  THR81      -0.2208
     44  CG2      275.4430  313.3170  219.6010 C.3    81  THR81       0.0379
     45  N        273.3730  316.4510  219.4500 N.am   82  SER82      -0.1949
     46  CA       271.9230  316.5670  219.3870 C.3    82  SER82       0.1924
     47  C        271.4170  317.2510  218.1190 C.2    82  SER82       0.2314
     48  O        270.2320  317.1450  217.8110 O.2    82  SER82      -0.2863
     49  CB       271.3890  317.2390  220.6110 C.3    82  SER82       0.2116
     50  OG       271.8400  318.5340  220.6190 O.3    82  SER82      -0.2180
     51  N        267.2000  313.7010  225.4780 N.3   108  PRO108     -0.2116
     52  CA       267.7040  313.8250  224.1250 C.3   108  PRO108      0.1372
     53  C        268.0670  312.4700  223.5850 C.2   108  PRO108      0.2244
     54  O        268.7780  311.7240  224.2440 O.2   108  PRO108     -0.2868
     55  CB       268.9710  314.6670  224.3010 C.3   108  PRO108      0.0268
     56  CG       269.4380  314.3380  225.6860 C.3   108  PRO108      0.0207
     57  CD       268.1930  314.1060  226.4850 C.3   108  PRO108      0.0892
     58  N        270.4720  310.6950  221.7800 N.3   110  ARG110     -0.1245
     59  CA       271.7940  310.9880  221.2820 C.3   110  ARG110      0.1563
     60  C        272.1210  309.7760  220.4730 C.2   110  ARG110      0.2260
     61  O        272.2680  308.6870  221.0090 O.2   110  ARG110     -0.2867
     62  CB       272.7820  311.1460  222.4260 C.3   110  ARG110      0.0307
     63  CG       272.8130  312.5460  223.0050 C.3   110  ARG110      0.0489
     64  CD       273.8250  312.6540  224.1300 C.3   110  ARG110      0.2205
     65  NE       273.6680  311.5910  225.1130 N.pl3 110  ARG110     -0.0865
     66  CZ       274.6810  310.9400  225.6670 C.cat 110  ARG110      0.5346
     67  NH1      274.4520  309.9890  226.5570 N.pl3 110  ARG110      0.1354
     68  NH2      275.9240  311.2420  225.3300 N.pl3 110  ARG110      0.1354
     69  N        278.4440  310.8880  229.8080 N.3   122  GLY122     -0.1210
     70  CA       277.6610  312.0620  229.4720 C.3   122  GLY122      0.1956
     71  C        278.2370  312.9360  228.3930 C.2   122  GLY122      0.2612
     72  O        277.6640  313.9460  228.0410 O.2   122  GLY122     -0.2717
     73  N        279.3390  312.5180  227.8250 N.am  123  LEU123     -0.1965
     74  CA       280.1050  313.3610  226.9460 C.3   123  LEU123      0.1728
     75  C        280.1980  312.6830  225.5830 C.2   123  LEU123      0.2616
     76  O        279.6600  311.5870  225.4070 O.2   123  LEU123     -0.2715
     77  CB       281.4670  313.4800  227.5980 C.3   123  LEU123      0.0311
     78  CG       282.4940  314.3900  227.0330 C.3   123  LEU123      0.0022
     79  CD1      281.8970  315.7920  226.7600 C.3   123  LEU123      0.0001
     80  CD2      283.5850  314.3700  228.0910 C.3   123  LEU123      0.0001
     81  N        280.8410  313.3250  224.6120 N.am  124  SER124     -0.1950
     82  CA       281.1760  312.6630  223.3670 C.3   124  SER124      0.1924
     83  C        282.6820  312.5330  223.3290 C.2   124  SER124      0.2314
     84  O        283.4130  313.4500  223.7020 O.2   124  SER124     -0.2863
     85  CB       280.6500  313.4540  222.1380 C.3   124  SER124      0.2116
     86  OG       279.2390  313.6800  222.1480 O.3   124  SER124     -0.2180
     87  N        282.3040  315.6670  215.6200 N.3   149  ALA149     -0.1245
     88  CA       283.4830  315.6910  216.4520 C.3   149  ALA149      0.1562
     89  C        283.1140  315.9010  217.8970 C.2   149  ALA149      0.2260
     90  O        282.0600  316.4020  218.1780 O.2   149  ALA149     -0.2867
     91  CB       284.3810  316.8300  216.0110 C.3   149  ALA149      0.0290
     92  N        283.5470  317.7910  221.5690 N.3   151  GLY151     -0.1225
     93  CA       283.6040  319.1860  221.9110 C.3   151  GLY151      0.1811
     94  C        284.4670  319.5160  223.1080 C.2   151  GLY151      0.2280
     95  O        284.6170  320.6870  223.4660 O.2   151  GLY151     -0.2866
     96  N        273.1640  328.0180  218.6990 N.3   202  ASN202     -0.1225
     97  CA       272.2900  327.0020  219.2420 C.3   202  ASN202      0.1785
     98  C        271.8230  327.3900  220.6070 C.2   202  ASN202      0.2597
     99  O        272.2380  328.4030  221.1480 O.2   202  ASN202     -0.2718
    100  CB       273.0400  325.7120  219.3330 C.3   202  ASN202      0.1169
    101  CG       272.1520  324.5220  219.5430 C.2   202  ASN202      0.2627
    102  OD1      270.9510  324.5780  219.3590 O.2   202  ASN202     -0.2716
    103  ND2      272.7540  323.4330  219.9660 N.am  202  ASN202     -0.0877
    104  N        270.9170  326.6050  221.1600 N.am  203  LYS203     -0.1980
    105  CA       270.4030  326.8390  222.4870 C.3   203  LYS203      0.1596
    106  C        269.7450  328.2110  222.6090 C.2   203  LYS203      0.2287
    107  O        270.0400  328.9590  223.4910 O.2   203  LYS203     -0.2864
    108  CB       271.5140  326.6180  223.5400 C.3   203  LYS203      0.0298
    109  CG       271.8530  325.1220  223.6990 C.3   203  LYS203      0.0038
    110  CD       273.1990  324.8190  224.3190 C.3   203  LYS203      0.0206
    111  CE       273.1760  325.2780  225.7420 C.3   203  LYS203      0.1093
    112  NZ       274.5040  325.1250  226.3770 N.3   203  LYS203     -0.1314
    113  N        266.5100  328.3630  223.1580 N.3   205  ASP205     -0.1225
    114  CA       265.4330  328.1080  224.0830 C.3   205  ASP205      0.1805
    115  C        265.9050  328.6640  225.4030 C.2   205  ASP205      0.2597
    116  O        265.1270  329.2170  226.1690 O.2   205  ASP205     -0.2718
    117  CB       265.1630  326.6070  224.1920 C.3   205  ASP205      0.1424
    118  CG       266.2500  325.8660  224.9540 C.2   205  ASP205      0.3668
    119  OD1      266.2180  325.8900  226.1990 O.co2 205  ASP205     -0.2456
    120  OD2      267.1300  325.2530  224.3140 O.co2 205  ASP205     -0.2456
    121  N        267.1970  328.5220  225.6620 N.am  206  ARG206     -0.1979
    122  CA       267.7670  329.0000  226.8970 C.3   206  ARG206      0.1597
    123  C        267.5730  330.4990  227.0070 C.2   206  ARG206      0.2287
    124  O        267.2420  330.9990  228.0750 O.2   206  ARG206     -0.2864
    125  CB       269.2580  328.6840  226.9320 C.3   206  ARG206      0.0334
    126  CG       269.8440  328.5980  228.3260 C.3   206  ARG206      0.0492
    127  CD       270.2530  327.1770  228.6690 C.3   206  ARG206      0.2205
    128  NE       271.3950  327.1520  229.5730 N.pl3 206  ARG206     -0.0865
    129  CZ       272.6170  327.5310  229.2280 C.cat 206  ARG206      0.5346
    130  NH1      272.8520  327.9570  227.9990 N.pl3 206  ARG206      0.1354
    131  NH2      273.6050  327.4840  230.1070 N.pl3 206  ARG206      0.1354
    132  N        265.1530  330.7290  230.0340 N.3   210  ASP210     -0.1239
    133  CA       265.8380  330.8130  231.3200 C.3   210  ASP210      0.1674
    134  C        266.2830  332.2080  231.7280 C.2   210  ASP210      0.2266
    135  O        265.9880  332.6560  232.8290 O.2   210  ASP210     -0.2867
    136  CB       267.0380  329.8750  231.3290 C.3   210  ASP210      0.1410
    137  CG       266.7560  328.5780  230.6120 C.2   210  ASP210      0.3668
    138  OD1      265.7450  328.5230  229.8840 O.co2 210  ASP210     -0.2456
    139  OD2      267.5380  327.6180  230.7730 O.co2 210  ASP210     -0.2456
    140  N        267.7390  325.8280  217.8510 N.3   249  SER249     -0.1202
    141  CA       267.7350  325.2400  219.1720 C.3   249  SER249      0.2020
    142  C        267.4440  323.7600  219.0230 C.2   249  SER249      0.2619
    143  O        266.3970  323.3480  218.5190 O.2   249  SER249     -0.2717
    144  CB       266.6700  325.8610  220.0400 C.3   249  SER249      0.2103
    145  OG       266.6900  325.2770  221.3140 O.3   249  SER249     -0.2182
    146  N        268.3850  322.9450  219.4400 N.am  250  THR250     -0.1938
    147  CA       268.2890  321.5250  219.1910 C.3   250  THR250      0.2028
    148  C        267.3260  320.8220  220.1370 C.2   250  THR250      0.2642
    149  O        266.4930  320.0250  219.7080 O.2   250  THR250     -0.2714
    150  CB       269.6490  320.9090  219.3040 C.3   250  THR250      0.1808
    151  OG1      270.1310  321.1820  220.6270 O.3   250  THR250     -0.2208
    152  CG2      270.5850  321.5280  218.1850 C.3   250  THR250      0.0379
    153  N        267.3970  321.1470  221.4100 N.am  251  LYS251     -0.1977
    154  CA       266.5610  320.4930  222.3900 C.3   251  LYS251      0.1596
    155  C        265.1020  320.6140  222.0310 C.2   251  LYS251      0.2287
    156  O        264.3240  319.6960  222.2850 O.2   251  LYS251     -0.2864
    157  CB       266.8070  321.0650  223.7660 C.3   251  LYS251      0.0298
    158  CG       266.0930  320.3470  224.8980 C.3   251  LYS251      0.0038
    159  CD       266.5240  320.9250  226.2470 C.3   251  LYS251      0.0206
    160  CE       265.3750  321.0400  227.2720 C.3   251  LYS251      0.1093
    161  NZ       265.3210  322.2650  228.1420 N.3   251  LYS251     -0.1314
@<TRIPOS>BOND
     1    87    88    1
     2    91    88    1
     3    88    89    1
     4    32    31    2
     5    41    40    2
     6    48    47    2
     7   140   141    1
     8    31    30    1
     9    31    38   am
    10    89    90    2
    11    30    33    1
    12    30    29    1
    13    47    46    1
    14    34    35    1
    15    34    33    1
    16   152   150    1
    17    35    36    1
    18   143   142    2
    19    40    39    1
    20    40    45   am
    21    39    38    1
    22    39    42    1
    23    96    97    1
    24    28    27    2
    25   142   141    1
    26   142   146   am
    27   141   144    1
    28   147   150    1
    29   147   146    1
    30   147   148    1
    31    97   100    1
    32    97    98    1
    33    29    27   am
    34   150   151    1
    35   100   101    1
    36   102   101    2
    37    46    45    1
    38    46    49    1
    39   101   103   am
    40    36    37    1
    41    27    26    1
    42    44    42    1
    43   149   148    2
    44    42    43    1
    45   144   145    1
    46   148   153   am
    47    60    61    2
    48    60    59    1
    49    24    23    1
    50    98    99    2
    51    98   104   am
    52    49    50    1
    53    22    21    2
    54    26    25    1
    55   104   105    1
    56    23    20    1
    57    59    58    1
    58    59    62    1
    59   153   154    1
    60    21    25   am
    61    21    20    1
    62    92    93    1
    63    93    94    1
    64   155   156    2
    65   155   154    1
    66    85    86    1
    67    85    82    1
    68    20    19    1
    69   154   157    1
    70    62    63    1
    71   105   106    1
    72   105   108    1
    73   106   107    2
    74    63    64    1
    75    94    95    2
    76    19    11   am
    77   113   114    1
    78    83    82    1
    79    83    84    2
    80    82    81    1
    81   108   109    1
    82    53    52    1
    83    53    54    2
    84   109   110    1
    85   157   158    1
    86   114   117    1
    87   114   115    1
    88    52    55    1
    89    52    51    1
    90    64    65    1
    91   117   118    1
    92    11    12    2
    93    11    10    1
    94    55    56    1
    95   120   118   ar
    96   110   111    1
    97     1     2    1
    98    81    75   am
    99   158   159    1
   100     9    10    1
   101     9     3   am
   102   118   119   ar
   103    10    13    1
   104    65    66    2
   105     3     2    1
   106     3     4    2
   107     2     5    1
   108    68    66    1
   109   115   121   am
   110   115   116    2
   111    76    75    2
   112    51    57    1
   113    75    74    1
   114   121   122    1
   115    66    67    1
   116    56    57    1
   117   111   112    1
   118   159   160    1
   119    13    14    1
   120     8     6    1
   121     5     6    1
   122    79    78    1
   123   122   125    1
   124   122   123    1
   125   125   126    1
   126    74    77    1
   127    74    73    1
   128   123   124    2
   129    78    77    1
   130    78    80    1
   131     6     7    1
   132   160   161    1
   133    15    14   ar
   134    15    17   ar
   135    14    16   ar
   136    73    71   am
   137   130   129    1
   138    72    71    2
   139    17    18   ar
   140    16    18   ar
   141   126   127    1
   142    71    70    1
   143   127   128    1
   144   129   128    2
   145   129   131    1
   146    70    69    1
   147   138   137   ar
   148   132   133    1
   149   137   139   ar
   150   137   136    1
   151   133   136    1
   152   133   134    1
   153   134   135    2
