@<TRIPOS>MOLECULE
tmp/5y8aB00.pdb
 132 123 0 0 0
SMALL
GASTEIGER

@<TRIPOS>ATOM
      1  N         14.7780   13.7360   33.4030 N.3    10  GLY10      -0.1225
      2  CA        13.7910   12.6890   33.6350 C.3    10  GLY10       0.1811
      3  C         14.3870   11.2990   33.7450 C.2    10  GLY10       0.2280
      4  O         13.8590   10.4490   34.4670 O.2    10  GLY10      -0.2866
      5  N         10.9430   19.8770   35.1620 N.3    34  THR34      -0.1203
      6  CA         9.7220   19.5160   34.4450 C.3    34  THR34       0.1994
      7  C          9.8740   18.3350   33.4850 C.2    34  THR34       0.2618
      8  O          8.8480   17.7980   33.0330 O.2    34  THR34      -0.2717
      9  CB         9.2270   20.7170   33.6720 C.3    34  THR34       0.1784
     10  OG1       10.2550   21.1200   32.7570 O.3    34  THR34      -0.2211
     11  CG2        8.9360   21.8340   34.6360 C.3    34  THR34       0.0376
     12  N         11.1010   17.9210   33.1400 N.am   35  THR35      -0.1952
     13  CA        11.2280   16.6940   32.3560 C.3    35  THR35       0.1897
     14  C         10.9460   15.4410   33.1750 C.2    35  THR35       0.2313
     15  O         10.8420   14.3600   32.5950 O.2    35  THR35      -0.2863
     16  CB        12.6270   16.5500   31.7260 C.3    35  THR35       0.1794
     17  OG1       13.6160   16.3230   32.7410 O.3    35  THR35      -0.2208
     18  CG2       13.0090   17.7850   30.9350 C.3    35  THR35       0.0378
     19  N          8.7030   13.2260   34.4310 N.3    37  THR37      -0.1218
     20  CA         7.3070   12.8440   34.3180 C.3    37  THR37       0.1862
     21  C          7.0670   11.3630   34.5920 C.2    37  THR37       0.2287
     22  O          5.9080   10.9340   34.6150 O.2    37  THR37      -0.2866
     23  CB         6.7920   13.1900   32.9190 C.3    37  THR37       0.1770
     24  OG1        7.5720   12.4900   31.9370 O.3    37  THR37      -0.2211
     25  CG2        6.8960   14.6880   32.6800 C.3    37  THR37       0.0375
     26  N         12.4670   24.1460   34.0070 N.3    50  TYR50      -0.1227
     27  CA        12.9640   23.2460   32.9760 C.3    50  TYR50       0.1736
     28  C         14.4600   22.9830   33.2000 C.2    50  TYR50       0.2595
     29  O         15.1660   23.8230   33.7510 O.2    50  TYR50      -0.2718
     30  CB        12.6860   23.8490   31.5860 C.3    50  TYR50       0.0548
     31  CG        13.3820   23.0440   30.5420 C.ar   50  TYR50      -0.0200
     32  CD1       13.0820   21.6970   30.3850 C.ar   50  TYR50      -0.0009
     33  CD2       14.3930   23.5930   29.7720 C.ar   50  TYR50      -0.0009
     34  CE1       13.7390   20.9380   29.4910 C.ar   50  TYR50       0.0417
     35  CE2       15.0580   22.8290   28.8570 C.ar   50  TYR50       0.0417
     36  CZ        14.7220   21.5090   28.7400 C.ar   50  TYR50       0.1957
     37  OH        15.3850   20.7310   27.8740 O.3    50  TYR50      -0.2866
     38  N         14.9380   21.7860   32.7980 N.am   51  GLN51      -0.1965
     39  CA        16.2790   21.3220   33.1960 C.3    51  GLN51       0.1733
     40  C         17.3870   22.2850   32.7700 C.2    51  GLN51       0.2616
     41  O         18.3630   22.4690   33.5050 O.2    51  GLN51      -0.2715
     42  CB        16.5680   19.9270   32.6360 C.3    51  GLN51       0.0408
     43  CG        16.6660   19.8780   31.1100 C.3    51  GLN51       0.0908
     44  CD        16.8690   18.4810   30.5670 C.2    51  GLN51       0.2608
     45  OE1       17.2910   17.5680   31.2860 O.2    51  GLN51      -0.2717
     46  NE2       16.5630   18.3030   29.2830 N.am   51  GLN51      -0.0878
     47  N         17.2560   22.9150   31.5980 N.am   52  ARG52      -0.1963
     48  CA        18.2400   23.8770   31.1070 C.3    52  ARG52       0.1729
     49  C         17.9510   25.3210   31.5150 C.2    52  ARG52       0.2616
     50  O         18.7150   26.2090   31.1360 O.2    52  ARG52      -0.2715
     51  CB        18.3430   23.8140   29.5730 C.3    52  ARG52       0.0348
     52  CG        18.5140   22.4120   29.0130 C.3    52  ARG52       0.0492
     53  CD        18.5040   22.3900   27.4740 C.3    52  ARG52       0.2205
     54  NE        19.7370   22.9350   26.8960 N.pl3  52  ARG52      -0.0865
     55  CZ        19.8740   24.1790   26.4370 C.cat  52  ARG52       0.5346
     56  NH1       18.8570   25.0290   26.4710 N.pl3  52  ARG52       0.1354
     57  NH2       21.0310   24.5800   25.9350 N.pl3  52  ARG52       0.1354
     58  N         16.8870   25.5950   32.2730 N.am   53  ALA53      -0.1977
     59  CA        16.5960   26.9670   32.6850 C.3    53  ALA53       0.1597
     60  C         16.1710   26.9720   34.1500 C.2    53  ALA53       0.2287
     61  O         15.0840   27.4180   34.5110 O.2    53  ALA53      -0.2864
     62  CB        15.5320   27.6000   31.7880 C.3    53  ALA53       0.0319
     63  N         22.3100   17.9120   30.7700 N.3    72  GLU72      -0.1245
     64  CA        21.6400   19.0870   30.2450 C.3    72  GLU72       0.1567
     65  C         21.3010   20.1210   31.3210 C.2    72  GLU72       0.2260
     66  O         20.8270   21.2100   30.9820 O.2    72  GLU72      -0.2867
     67  CB        20.3740   18.6420   29.4870 C.3    72  GLU72       0.0388
     68  CG        20.6360   17.8370   28.1740 C.3    72  GLU72       0.1160
     69  CD        20.8500   16.3050   28.3450 C.2    72  GLU72       0.3649
     70  OE1       20.4380   15.7040   29.3740 O.co2  72  GLU72      -0.2457
     71  OE2       21.4300   15.6910   27.4130 O.co2  72  GLU72      -0.2457
     72  N         25.8750   12.0610   29.1940 N.3    94  GLU94      -0.1245
     73  CA        24.8880   11.4480   28.3040 C.3    94  GLU94       0.1567
     74  C         25.6090   11.0440   27.0250 C.2    94  GLU94       0.2260
     75  O         25.8110   11.8490   26.1140 O.2    94  GLU94      -0.2867
     76  CB        23.7080   12.3570   28.0000 C.3    94  GLU94       0.0388
     77  CG        22.6980   11.6560   27.0880 C.3    94  GLU94       0.1160
     78  CD        22.2390   10.2970   27.6510 C.2    94  GLU94       0.3649
     79  OE1       21.3180   10.3060   28.4910 O.co2  94  GLU94      -0.2457
     80  OE2       22.7940    9.2240   27.2700 O.co2  94  GLU94      -0.2457
     81  N         24.5310    8.3950   25.1440 N.3    96  HIS96      -0.1241
     82  CA        23.5600    7.7580   24.2440 C.3    96  HIS96       0.1621
     83  C         23.9340    6.3040   23.9580 C.2    96  HIS96       0.2264
     84  O         23.8640    5.8300   22.8230 O.2    96  HIS96      -0.2867
     85  CB        23.3970    8.5440   22.9280 C.3    96  HIS96       0.0745
     86  CG        22.9120    9.9500   23.1190 C.ar   96  HIS96       0.0817
     87  ND1       23.4910   11.0280   22.4870 N.ar   96  HIS96      -0.2268
     88  CD2       21.9160   10.4580   23.8930 C.ar   96  HIS96       0.1154
     89  CE1       22.8710   12.1390   22.8530 C.ar   96  HIS96       0.1986
     90  NE2       21.9050   11.8200   23.6990 N.ar   96  HIS96      -0.2212
     91  N          6.1150   19.1170   19.1290 N.3   155  HIS155     -0.1241
     92  CA         5.3160   19.0890   20.3640 C.3   155  HIS155      0.1621
     93  C          4.0150   19.8950   20.4760 C.2   155  HIS155      0.2264
     94  O          3.1790   19.5630   21.3230 O.2   155  HIS155     -0.2867
     95  CB         6.1950   19.5040   21.5420 C.3   155  HIS155      0.0745
     96  CG         6.9230   18.3550   22.1490 C.ar  155  HIS155      0.0817
     97  ND1        8.1940   17.9970   21.7600 N.ar  155  HIS155     -0.2268
     98  CD2        6.5200   17.4170   23.0350 C.ar  155  HIS155      0.1154
     99  CE1        8.5620   16.9120   22.4180 C.ar  155  HIS155      0.1986
    100  NE2        7.5650   16.5400   23.1990 N.ar  155  HIS155     -0.2212
    101  N          5.4810   24.5320   18.9100 N.3   158  THR158     -0.1218
    102  CA         6.9510   24.2950   18.7280 C.3   158  THR158      0.1862
    103  C          7.2650   24.0050   17.2630 C.2   158  THR158      0.2287
    104  O          6.4090   23.5750   16.4950 O.2   158  THR158     -0.2866
    105  CB         7.6410   23.1250   19.4970 C.3   158  THR158      0.1770
    106  OG1        6.8090   21.9620   19.5440 O.3   158  THR158     -0.2211
    107  CG2        8.1050   23.5640   20.8590 C.3   158  THR158      0.0375
    108  N         20.1230   10.9360   20.7530 N.3   168  ALA168     -0.1245
    109  CA        19.4830    9.7500   21.3040 C.3   168  ALA168      0.1562
    110  C         18.6790    9.0290   20.2320 C.2   168  ALA168      0.2260
    111  O         18.6370    7.7930   20.2040 O.2   168  ALA168     -0.2867
    112  CB        18.5920   10.1250   22.4880 C.3   168  ALA168      0.0290
    113  N          9.9600   10.7610   26.0810 N.3   243  LEU243     -0.1245
    114  CA        10.8620   10.4890   27.1980 C.3   243  LEU243      0.1561
    115  C         11.1670    8.9960   27.2980 C.2   243  LEU243      0.2260
    116  O         12.3090    8.6030   27.5890 O.2   243  LEU243     -0.2867
    117  CB        10.2740   11.0200   28.5080 C.3   243  LEU243      0.0270
    118  CG        10.9490   10.4890   29.7980 C.3   243  LEU243      0.0019
    119  CD1       12.4300   10.9350   29.9450 C.3   243  LEU243      0.0001
    120  CD2       10.1410   10.8650   31.0610 C.3   243  LEU243      0.0001
    121  N         13.5600    8.2210   24.1900 N.3   246  LEU246     -0.1231
    122  CA        14.7910    8.9600   24.0220 C.3   246  LEU246      0.1693
    123  C         15.5780    9.1770   25.3000 C.2   246  LEU246      0.2592
    124  O         16.7030    9.6800   25.2210 O.2   246  LEU246     -0.2718
    125  CB        14.4820   10.3260   23.3970 C.3   246  LEU246      0.0284
    126  CG        13.8340   10.2240   22.0180 C.3   246  LEU246      0.0019
    127  CD1       13.4650   11.5900   21.5030 C.3   246  LEU246      0.0001
    128  CD2       14.8070    9.5630   21.0750 C.3   246  LEU246      0.0001
    129  N         15.0300    8.8260   26.4670 N.am  247  GLY247     -0.1957
    130  CA        15.6120    9.2800   27.7190 C.3   247  GLY247      0.1869
    131  C         16.9080    8.6100   28.1190 C.2   247  GLY247      0.2309
    132  O         17.6660    9.1880   28.9110 O.2   247  GLY247     -0.2863
@<TRIPOS>BOND
     1   104   103    2
     2   103   102    1
     3   102   101    1
     4   102   105    1
     5    91    92    1
     6   105   106    1
     7   105   107    1
     8   111   110    2
     9   110   109    1
    10    92    93    1
    11    92    95    1
    12    93    94    2
    13   108   109    1
    14   128   126    1
    15   109   112    1
    16   127   126    1
    17    95    96    1
    18    97    96   ar
    19    97    99   ar
    20   126   125    1
    21    96    98   ar
    22    99   100   ar
    23    87    89   ar
    24    87    86   ar
    25    84    83    2
    26    89    90   ar
    27    85    86    1
    28    85    82    1
    29    98   100   ar
    30    86    88   ar
    31   125   122    1
    32    90    88   ar
    33    83    82    1
    34   122   121    1
    35   122   123    1
    36    82    81    1
    37   124   123    2
    38   123   129   am
    39    57    55    1
    40   113   114    1
    41    75    74    2
    42    55    56    1
    43    55    54    2
    44   129   130    1
    45    54    53    1
    46    74    73    1
    47    77    78    1
    48    77    76    1
    49   114   115    1
    50   114   117    1
    51    80    78   ar
    52   115   116    2
    53    71    69   ar
    54    53    52    1
    55    78    79   ar
    56   130   131    1
    57    37    36    1
    58    76    73    1
    59   131   132    2
    60    68    69    1
    61    68    67    1
    62    73    72    1
    63    69    70   ar
    64   117   118    1
    65    36    35   ar
    66    36    34   ar
    67    35    33   ar
    68    52    51    1
    69    46    44   am
    70    67    64    1
    71    34    32   ar
    72    51    48    1
    73    33    31   ar
    74   118   119    1
    75   118   120    1
    76    64    63    1
    77    64    65    1
    78    32    31   ar
    79    31    30    1
    80    44    43    1
    81    44    45    2
    82    18    16    1
    83    66    65    2
    84    48    49    1
    85    48    47    1
    86    43    42    1
    87    50    49    2
    88    49    58   am
    89    30    27    1
    90    47    40   am
    91    16    13    1
    92    16    17    1
    93    62    59    1
    94    24    23    1
    95    58    59    1
    96    13    12    1
    97    13    14    1
    98    15    14    2
    99    42    39    1
   100    25    23    1
   101    59    60    1
   102    10     9    1
   103    40    39    1
   104    40    41    2
   105    38    39    1
   106    38    28   am
   107    23    20    1
   108    27    28    1
   109    27    26    1
   110     8     7    2
   111    12     7   am
   112    28    29    2
   113     1     2    1
   114     7     6    1
   115     2     3    1
   116     9     6    1
   117     9    11    1
   118     3     4    2
   119    60    61    2
   120    20    19    1
   121    20    21    1
   122     6     5    1
   123    21    22    2
