@<TRIPOS>MOLECULE
tmp/5y8aB01.pdb
 139 132 0 0 0
SMALL
GASTEIGER

@<TRIPOS>ATOM
      1  N         11.1010   17.9210   33.1400 N.3    35  THR35      -0.1218
      2  CA        11.2280   16.6940   32.3560 C.3    35  THR35       0.1862
      3  C         10.9460   15.4410   33.1750 C.2    35  THR35       0.2287
      4  O         10.8420   14.3600   32.5950 O.2    35  THR35      -0.2866
      5  CB        12.6270   16.5500   31.7260 C.3    35  THR35       0.1770
      6  OG1       13.6160   16.3230   32.7410 O.3    35  THR35      -0.2211
      7  CG2       13.0090   17.7850   30.9350 C.3    35  THR35       0.0375
      8  N         12.4670   24.1460   34.0070 N.3    50  TYR50      -0.1241
      9  CA        12.9640   23.2460   32.9760 C.3    50  TYR50       0.1605
     10  C         14.4600   22.9830   33.2000 C.2    50  TYR50       0.2264
     11  O         15.1660   23.8230   33.7510 O.2    50  TYR50      -0.2867
     12  CB        12.6860   23.8490   31.5860 C.3    50  TYR50       0.0534
     13  CG        13.3820   23.0440   30.5420 C.ar   50  TYR50      -0.0201
     14  CD1       13.0820   21.6970   30.3850 C.ar   50  TYR50      -0.0009
     15  CD2       14.3930   23.5930   29.7720 C.ar   50  TYR50      -0.0009
     16  CE1       13.7390   20.9380   29.4910 C.ar   50  TYR50       0.0417
     17  CE2       15.0580   22.8290   28.8570 C.ar   50  TYR50       0.0417
     18  CZ        14.7220   21.5090   28.7400 C.ar   50  TYR50       0.1957
     19  OH        15.3850   20.7310   27.8740 O.3    50  TYR50      -0.2866
     20  N         24.5310    8.3950   25.1440 N.3    96  HIS96      -0.1241
     21  CA        23.5600    7.7580   24.2440 C.3    96  HIS96       0.1621
     22  C         23.9340    6.3040   23.9580 C.2    96  HIS96       0.2264
     23  O         23.8640    5.8300   22.8230 O.2    96  HIS96      -0.2867
     24  CB        23.3970    8.5440   22.9280 C.3    96  HIS96       0.0745
     25  CG        22.9120    9.9500   23.1190 C.ar   96  HIS96       0.0817
     26  ND1       23.4910   11.0280   22.4870 N.ar   96  HIS96      -0.2268
     27  CD2       21.9160   10.4580   23.8930 C.ar   96  HIS96       0.1154
     28  CE1       22.8710   12.1390   22.8530 C.ar   96  HIS96       0.1986
     29  NE2       21.9050   11.8200   23.6990 N.ar   96  HIS96      -0.2212
     30  N         10.9890   15.2410   15.6030 N.3   153  LEU153     -0.1245
     31  CA        10.7490   15.7620   16.9500 C.3   153  LEU153      0.1561
     32  C          9.9110   17.0440   16.9040 C.2   153  LEU153      0.2260
     33  O         10.2960   18.0110   16.2420 O.2   153  LEU153     -0.2867
     34  CB        12.0810   16.0440   17.6530 C.3   153  LEU153      0.0270
     35  CG        12.0490   16.6570   19.0560 C.3   153  LEU153      0.0019
     36  CD1       11.5670   15.6480   20.0950 C.3   153  LEU153      0.0001
     37  CD2       13.4170   17.2270   19.4390 C.3   153  LEU153      0.0001
     38  N          6.1150   19.1170   19.1290 N.3   155  HIS155     -0.1241
     39  CA         5.3160   19.0890   20.3640 C.3   155  HIS155      0.1621
     40  C          4.0150   19.8950   20.4760 C.2   155  HIS155      0.2264
     41  O          3.1790   19.5630   21.3230 O.2   155  HIS155     -0.2867
     42  CB         6.1950   19.5040   21.5420 C.3   155  HIS155      0.0745
     43  CG         6.9230   18.3550   22.1490 C.ar  155  HIS155      0.0817
     44  ND1        8.1940   17.9970   21.7600 N.ar  155  HIS155     -0.2268
     45  CD2        6.5200   17.4170   23.0350 C.ar  155  HIS155      0.1154
     46  CE1        8.5620   16.9120   22.4180 C.ar  155  HIS155      0.1986
     47  NE2        7.5650   16.5400   23.1990 N.ar  155  HIS155     -0.2212
     48  N          3.6070   23.0240   21.8120 N.3   157  GLY157     -0.1210
     49  CA         4.8130   23.4440   21.0990 C.3   157  GLY157      0.1956
     50  C          4.6130   24.4130   19.9380 C.2   157  GLY157      0.2612
     51  O          3.5970   25.1150   19.9870 O.2   157  GLY157     -0.2717
     52  N          5.4810   24.5320   18.9100 N.am  158  THR158     -0.1952
     53  CA         6.9510   24.2950   18.7280 C.3   158  THR158      0.1897
     54  C          7.2650   24.0050   17.2630 C.2   158  THR158      0.2313
     55  O          6.4090   23.5750   16.4950 O.2   158  THR158     -0.2863
     56  CB         7.6410   23.1250   19.4970 C.3   158  THR158      0.1794
     57  OG1        6.8090   21.9620   19.5440 O.3   158  THR158     -0.2208
     58  CG2        8.1050   23.5640   20.8590 C.3   158  THR158      0.0378
     59  N         11.6100   19.3260   13.7730 N.3   161  LEU161     -0.1245
     60  CA        12.9860   19.0920   13.3400 C.3   161  LEU161      0.1561
     61  C         13.2440   17.5920   13.2090 C.2   161  LEU161      0.2260
     62  O         12.5230   16.7710   13.7820 O.2   161  LEU161     -0.2867
     63  CB        13.9880   19.7070   14.3250 C.3   161  LEU161      0.0270
     64  CG        13.5360   20.8690   15.2160 C.3   161  LEU161      0.0019
     65  CD1       14.4060   20.9030   16.4490 C.3   161  LEU161      0.0001
     66  CD2       13.5840   22.2090   14.4880 C.3   161  LEU161      0.0001
     67  N         22.7390   11.9330   18.4460 N.3   167  THR167     -0.1203
     68  CA        21.4750   12.1150   19.1450 C.3   167  THR167      0.1994
     69  C         21.0350   10.8090   19.7930 C.2   167  THR167      0.2618
     70  O         21.5050    9.7150   19.4520 O.2   167  THR167     -0.2717
     71  CB        20.3800   12.5780   18.1850 C.3   167  THR167      0.1784
     72  OG1       20.2280   11.5920   17.1540 O.3   167  THR167     -0.2211
     73  CG2       20.7490   13.9130   17.5440 C.3   167  THR167      0.0376
     74  N         20.1230   10.9360   20.7530 N.am  168  ALA168     -0.1965
     75  CA        19.4830    9.7500   21.3040 C.3   168  ALA168      0.1728
     76  C         18.6790    9.0290   20.2320 C.2   168  ALA168      0.2616
     77  O         18.6370    7.7930   20.2040 O.2   168  ALA168     -0.2715
     78  CB        18.5920   10.1250   22.4880 C.3   168  ALA168      0.0334
     79  N         18.0630    9.7850   19.3160 N.am  169  ALA169     -0.1977
     80  CA        17.2710    9.1440   18.2790 C.3   169  ALA169      0.1597
     81  C         18.1470    8.2660   17.3910 C.2   169  ALA169      0.2287
     82  O         17.7970    7.1170   17.1010 O.2   169  ALA169     -0.2864
     83  CB        16.5290   10.1970   17.4620 C.3   169  ALA169      0.0319
     84  N         23.1380   16.2960   15.5940 N.3   187  HIS187     -0.1226
     85  CA        22.0590   16.9650   16.3100 C.3   187  HIS187      0.1752
     86  C         20.8460   17.1330   15.4040 C.2   187  HIS187      0.2596
     87  O         20.5720   16.2570   14.5780 O.2   187  HIS187     -0.2718
     88  CB        22.5490   18.2910   16.8890 C.3   187  HIS187      0.0759
     89  CG        23.8170   18.1510   17.6670 C.ar  187  HIS187      0.0818
     90  ND1       24.1910   16.9670   18.2660 N.ar  187  HIS187     -0.2268
     91  CD2       24.8130   19.0310   17.9200 C.ar  187  HIS187      0.1154
     92  CE1       25.3530   17.1290   18.8740 C.ar  187  HIS187      0.1986
     93  NE2       25.7520   18.3720   18.6790 N.ar  187  HIS187     -0.2212
     94  N         20.1150   18.2380   15.5480 N.am  188  TYR188     -0.1976
     95  CA        18.7950   18.3830   14.9520 C.3   188  TYR188      0.1639
     96  C         18.7370   19.5730   14.0020 C.2   188  TYR188      0.2290
     97  O         19.2370   20.6610   14.3130 O.2   188  TYR188     -0.2864
     98  CB        17.7220   18.5360   16.0430 C.3   188  TYR188      0.0560
     99  CG        17.2750   17.2240   16.6470 C.ar  188  TYR188     -0.0198
    100  CD1       17.9830   16.6260   17.6850 C.ar  188  TYR188     -0.0009
    101  CD2       16.1480   16.5870   16.1770 C.ar  188  TYR188     -0.0009
    102  CE1       17.5680   15.4210   18.2240 C.ar  188  TYR188      0.0417
    103  CE2       15.7260   15.4040   16.7110 C.ar  188  TYR188      0.0417
    104  CZ        16.4340   14.8180   17.7200 C.ar  188  TYR188      0.1957
    105  OH        15.9700   13.6270   18.2180 O.3   188  TYR188     -0.2866
    106  N          3.6350   12.9110   21.4710 N.3   209  GLU209     -0.1245
    107  CA         3.4670   14.3470   21.6140 C.3   209  GLU209      0.1567
    108  C          3.4820   15.0510   20.2630 C.2   209  GLU209      0.2260
    109  O          2.4580   15.5920   19.8360 O.2   209  GLU209     -0.2867
    110  CB         4.5740   14.9080   22.5160 C.3   209  GLU209      0.0388
    111  CG         4.5090   14.4720   23.9860 C.3   209  GLU209      0.1160
    112  CD         5.5880   13.4490   24.3690 C.2   209  GLU209      0.3649
    113  OE1        5.8350   12.4910   23.5960 O.co2 209  GLU209     -0.2457
    114  OE2        6.1850   13.6140   25.4580 O.co2 209  GLU209     -0.2457
    115  N          8.1380   10.4800   23.8560 N.3   242  ALA242     -0.1231
    116  CA         9.5120   10.9570   23.6680 C.3   242  ALA242      0.1694
    117  C         10.4280   10.6010   24.8400 C.2   242  ALA242      0.2591
    118  O         11.5830   10.2030   24.6350 O.2   242  ALA242     -0.2718
    119  CB         9.5050   12.4670   23.4300 C.3   242  ALA242      0.0304
    120  N          9.9600   10.7610   26.0810 N.am  243  LEU243     -0.1980
    121  CA        10.8620   10.4890   27.1980 C.3   243  LEU243      0.1596
    122  C         11.1670    8.9960   27.2980 C.2   243  LEU243      0.2287
    123  O         12.3090    8.6030   27.5890 O.2   243  LEU243     -0.2864
    124  CB        10.2740   11.0200   28.5080 C.3   243  LEU243      0.0297
    125  CG        10.9490   10.4890   29.7980 C.3   243  LEU243      0.0022
    126  CD1       12.4300   10.9350   29.9450 C.3   243  LEU243      0.0001
    127  CD2       10.1410   10.8650   31.0610 C.3   243  LEU243      0.0001
    128  N         13.5600    8.2210   24.1900 N.3   246  LEU246     -0.1231
    129  CA        14.7910    8.9600   24.0220 C.3   246  LEU246      0.1693
    130  C         15.5780    9.1770   25.3000 C.2   246  LEU246      0.2592
    131  O         16.7030    9.6800   25.2210 O.2   246  LEU246     -0.2718
    132  CB        14.4820   10.3260   23.3970 C.3   246  LEU246      0.0284
    133  CG        13.8340   10.2240   22.0180 C.3   246  LEU246      0.0019
    134  CD1       13.4650   11.5900   21.5030 C.3   246  LEU246      0.0001
    135  CD2       14.8070    9.5630   21.0750 C.3   246  LEU246      0.0001
    136  N         15.0300    8.8260   26.4670 N.am  247  GLY247     -0.1957
    137  CA        15.6120    9.2800   27.7190 C.3   247  GLY247      0.1869
    138  C         16.9080    8.6100   28.1190 C.2   247  GLY247      0.2309
    139  O         17.6660    9.1880   28.9110 O.2   247  GLY247     -0.2863
@<TRIPOS>BOND
     1    61    60    1
     2    61    62    2
     3    60    59    1
     4    60    63    1
     5    96    97    2
     6    96    95    1
     7    63    64    1
     8    66    64    1
     9    87    86    2
    10    95    94    1
    11    95    98    1
    12    64    65    1
    13    86    94   am
    14    86    85    1
    15    84    85    1
    16    30    31    1
    17    98    99    1
    18   101    99   ar
    19   101   103   ar
    20    33    32    2
    21    85    88    1
    22    55    54    2
    23    99   100   ar
    24   103   104   ar
    25    88    89    1
    26    32    31    1
    27    31    34    1
    28    82    81    2
    29    72    71    1
    30    54    53    1
    31    81    80    1
    32    83    80    1
    33    73    71    1
    34    34    35    1
    35    89    91   ar
    36    89    90   ar
    37   100   102   ar
    38   104   105    1
    39   104   102   ar
    40    91    93   ar
    41    71    68    1
    42    90    92   ar
    43    80    79    1
    44    67    68    1
    45    93    92   ar
    46    53    52    1
    47    53    56    1
    48    52    50   am
    49    35    37    1
    50    35    36    1
    51    38    39    1
    52    68    69    1
    53    79    76   am
    54    70    69    2
    55    56    57    1
    56    56    58    1
    57    69    74   am
    58   109   108    2
    59    50    51    2
    60    50    49    1
    61    77    76    2
    62    76    75    1
    63   108   107    1
    64    39    40    1
    65    39    42    1
    66    40    41    2
    67    74    75    1
    68   135   133    1
    69    49    48    1
    70    75    78    1
    71   106   107    1
    72   134   133    1
    73    42    43    1
    74   107   110    1
    75    44    43   ar
    76    44    46   ar
    77   133   132    1
    78    43    45   ar
    79    46    47   ar
    80    26    28   ar
    81    26    25   ar
    82   110   111    1
    83    23    22    2
    84    28    29   ar
    85    24    25    1
    86    24    21    1
    87    45    47   ar
    88    25    27   ar
    89   132   129    1
    90   119   116    1
    91   113   112   ar
    92   116   115    1
    93   116   117    1
    94    29    27   ar
    95    22    21    1
    96   111   112    1
    97   129   128    1
    98   129   130    1
    99    21    20    1
   100   112   114   ar
   101   118   117    2
   102   117   120   am
   103   131   130    2
   104   130   136   am
   105   120   121    1
   106   136   137    1
   107   121   122    1
   108   121   124    1
   109   122   123    2
   110   137   138    1
   111    19    18    1
   112   138   139    2
   113   124   125    1
   114    18    17   ar
   115    18    16   ar
   116    17    15   ar
   117    16    14   ar
   118    15    13   ar
   119   125   126    1
   120   125   127    1
   121    14    13   ar
   122    13    12    1
   123     7     5    1
   124    12     9    1
   125     5     2    1
   126     5     6    1
   127     2     1    1
   128     2     3    1
   129     4     3    2
   130     9    10    1
   131     9     8    1
   132    10    11    2
