@<TRIPOS>MOLECULE
tmp/5y8kA00.pdb
 93 84 0 0 0
SMALL
GASTEIGER

@<TRIPOS>ATOM
      1  N         90.7480    6.9790   -4.7340 N.3    12  MET12      -0.1245
      2  CA        90.5270    6.5730   -3.3550 C.3    12  MET12       0.1570
      3  C         91.8300    6.6200   -2.5700 C.2    12  MET12       0.2261
      4  O         91.8800    7.2080   -1.4790 O.2    12  MET12      -0.2867
      5  CB        89.9310    5.1670   -3.3110 C.3    12  MET12       0.0387
      6  CG        88.5890    5.0340   -4.0200 C.3    12  MET12       0.0595
      7  SD        87.2850    5.9090   -3.1220 S.3    12  MET12      -0.1393
      8  CE        86.9410    4.7430   -1.8150 C.3    12  MET12       0.0692
      9  N         95.2080   -0.5170   -2.8400 N.3    64  MET64      -0.1245
     10  CA        93.9820    0.0090   -3.4010 C.3    64  MET64       0.1570
     11  C         94.1530   -0.0570   -4.9070 C.2    64  MET64       0.2261
     12  O         94.6580    0.8760   -5.5260 O.2    64  MET64      -0.2867
     13  CB        93.7480    1.4420   -2.9160 C.3    64  MET64       0.0387
     14  CG        92.7230    1.5650   -1.7910 C.3    64  MET64       0.0595
     15  SD        90.9910    1.1950   -2.1770 S.3    64  MET64      -0.1393
     16  CE        90.9320    1.5080   -3.9140 C.3    64  MET64       0.0692
     17  N         88.3690   -3.5060   -4.1590 N.3    93  THR93      -0.1218
     18  CA        87.1460   -4.3020   -4.2770 C.3    93  THR93       0.1862
     19  C         87.3830   -5.3240   -5.3720 C.2    93  THR93       0.2287
     20  O         87.4840   -4.9610   -6.5420 O.2    93  THR93      -0.2866
     21  CB        85.9220   -3.4250   -4.5850 C.3    93  THR93       0.1770
     22  OG1       85.7120   -2.5230   -3.4920 O.3    93  THR93      -0.2211
     23  CG2       84.6680   -4.2720   -4.7660 C.3    93  THR93       0.0375
     24  N         85.9830   -0.9650    0.8690 N.3   118  VAL118     -0.1231
     25  CA        85.3220    0.2120    1.4200 C.3   118  VAL118      0.1692
     26  C         84.1010    0.6610    0.6280 C.2   118  VAL118      0.2592
     27  O         84.0240    0.4780   -0.5860 O.2   118  VAL118     -0.2718
     28  CB        86.2890    1.4020    1.5680 C.3   118  VAL118      0.0266
     29  CG1       87.3380    1.0880    2.6290 C.3   118  VAL118      0.0020
     30  CG2       86.9380    1.7710    0.2340 C.3   118  VAL118      0.0020
     31  N         83.1580    1.2430    1.3630 N.am  119  SER119     -0.1952
     32  CA        82.0440    2.0070    0.8190 C.3   119  SER119      0.1924
     33  C         82.2050    3.4420    1.2440 C.2   119  SER119      0.2314
     34  O         82.7230    3.7140    2.3220 O.2   119  SER119     -0.2863
     35  CB        80.7330    1.4820    1.3730 C.3   119  SER119      0.2116
     36  OG        80.4830    0.2030    0.8170 O.3   119  SER119     -0.2180
     37  N         82.9360    5.9730   -1.4140 N.3   121  GLY121     -0.1225
     38  CA        83.5080    6.6660   -2.5690 C.3   121  GLY121      0.1811
     39  C         84.6090    7.6780   -2.2420 C.2   121  GLY121      0.2280
     40  O         85.1850    7.6840   -1.1380 O.2   121  GLY121     -0.2866
     41  N         80.2160   -6.7520    1.1920 N.3   168  LYS168     -0.1245
     42  CA        80.0630   -5.5920    0.3130 C.3   168  LYS168      0.1561
     43  C         79.3510   -5.9330   -0.9910 C.2   168  LYS168      0.2260
     44  O         78.5010   -5.1790   -1.4350 O.2   168  LYS168     -0.2867
     45  CB        81.4110   -4.9490   -0.0120 C.3   168  LYS168      0.0271
     46  CG        81.2740   -3.7000   -0.8760 C.3   168  LYS168      0.0035
     47  CD        82.6110   -3.0920   -1.2980 C.3   168  LYS168      0.0206
     48  CE        82.3830   -2.1130   -2.4430 C.3   168  LYS168      0.1093
     49  NZ        83.5420   -1.2200   -2.7220 N.3   168  LYS168     -0.1314
     50  N         75.6360   -4.4810   -2.1530 N.3   172  ASN172     -0.1240
     51  CA        75.5280   -3.7140   -3.4090 C.3   172  ASN172      0.1653
     52  C         74.6250   -4.3640   -4.4690 C.2   172  ASN172      0.2266
     53  O         73.9960   -3.6510   -5.2560 O.2   172  ASN172     -0.2867
     54  CB        76.9100   -3.3360   -3.9830 C.3   172  ASN172      0.1155
     55  CG        77.5690   -2.1990   -3.2090 C.2   172  ASN172      0.2627
     56  OD1       77.2640   -1.9560   -2.0330 O.2   172  ASN172     -0.2716
     57  ND2       78.4850   -1.5150   -3.8480 N.am  172  ASN172     -0.0877
     58  N         76.9120    7.9020   -6.7090 N.3   236  PHE236     -0.1241
     59  CA        77.5140    6.6010   -6.9450 C.3   236  PHE236      0.1605
     60  C         77.2800    6.2880   -8.4120 C.2   236  PHE236      0.2264
     61  O         76.1530    6.0300   -8.8210 O.2   236  PHE236     -0.2867
     62  CB        76.8770    5.5450   -6.0220 C.3   236  PHE236      0.0534
     63  CG        77.5360    4.1960   -6.0780 C.ar  236  PHE236     -0.0203
     64  CD1       78.9190    4.0660   -6.0720 C.ar  236  PHE236     -0.0042
     65  CD2       76.7830    3.0420   -6.0990 C.ar  236  PHE236     -0.0042
     66  CE1       79.5240    2.8160   -6.1100 C.ar  236  PHE236     -0.0003
     67  CE2       77.3920    1.7830   -6.1410 C.ar  236  PHE236     -0.0003
     68  CZ        78.7550    1.6720   -6.1470 C.ar  236  PHE236     -0.0000
     69  N         80.6490    2.4430  -11.4920 N.3   240  LEU240     -0.1245
     70  CA        81.0540    1.7460  -10.2760 C.3   240  LEU240      0.1561
     71  C         80.0350    0.6960   -9.8160 C.2   240  LEU240      0.2260
     72  O         80.4030   -0.3840   -9.3610 O.2   240  LEU240     -0.2867
     73  CB        81.3400    2.7620   -9.1660 C.3   240  LEU240      0.0270
     74  CG        82.5730    3.6320   -9.4130 C.3   240  LEU240      0.0019
     75  CD1       82.5760    4.8370   -8.4770 C.3   240  LEU240      0.0001
     76  CD2       83.8580    2.8490   -9.2180 C.3   240  LEU240      0.0001
     77  N         80.5410   -2.2390  -11.9980 N.3   243  LYS243     -0.1231
     78  CA        81.7080   -3.0140  -11.5680 C.3   243  LYS243      0.1693
     79  C         81.3770   -3.9440  -10.4000 C.2   243  LYS243      0.2592
     80  O         81.7550   -5.1120  -10.4150 O.2   243  LYS243     -0.2718
     81  CB        82.8690   -2.0990  -11.1760 C.3   243  LYS243      0.0285
     82  CG        84.0890   -2.8500  -10.6470 C.3   243  LYS243      0.0035
     83  CD        85.1050   -1.9350   -9.9730 C.3   243  LYS243      0.0206
     84  CE        86.0100   -2.7180   -9.0140 C.3   243  LYS243      0.1093
     85  NZ        86.9480   -1.8480   -8.2360 N.3   243  LYS243     -0.1314
     86  N         80.6810   -3.4250   -9.3950 N.am  244  ASP244     -0.1974
     87  CA        80.2430   -4.2520   -8.2670 C.3   244  ASP244      0.1709
     88  C         79.3180   -5.3870   -8.6830 C.2   244  ASP244      0.2293
     89  O         79.4240   -6.5010   -8.1640 O.2   244  ASP244     -0.2864
     90  CB        79.5500   -3.3930   -7.2040 C.3   244  ASP244      0.1436
     91  CG        80.5240   -2.5240   -6.4360 C.2   244  ASP244      0.3671
     92  OD1       81.7200   -2.8810   -6.3820 O.co2 244  ASP244     -0.2456
     93  OD2       80.0920   -1.4920   -5.8830 O.co2 244  ASP244     -0.2456
@<TRIPOS>BOND
     1    77    78    1
     2    78    81    1
     3    78    79    1
     4    69    70    1
     5    81    82    1
     6    82    83    1
     7    80    79    2
     8    79    86   am
     9    70    71    1
    10    70    73    1
    11    83    84    1
    12    71    72    2
    13    74    76    1
    14    74    73    1
    15    74    75    1
    16    86    87    1
    17    84    85    1
    18    61    60    2
    19    88    87    1
    20    88    89    2
    21    60    59    1
    22    87    90    1
    23    90    91    1
    24    59    58    1
    25    59    62    1
    26    20    19    2
    27    91    92   ar
    28    91    93   ar
    29    68    67   ar
    30    68    66   ar
    31    67    65   ar
    32    66    64   ar
    33    65    63   ar
    34    63    64   ar
    35    63    62    1
    36    12    11    2
    37    19    18    1
    38    53    52    2
    39    11    10    1
    40    23    21    1
    41     1     2    1
    42    21    18    1
    43    21    22    1
    44    52    51    1
    45    18    17    1
    46     6     5    1
    47     6     7    1
    48    54    51    1
    49    54    55    1
    50    16    15    1
    51    57    55   am
    52    51    50    1
    53    10    13    1
    54    10     9    1
    55     2     5    1
    56     2     3    1
    57    55    56    2
    58     7     8    1
    59    13    14    1
    60    49    48    1
    61     3     4    2
    62    38    39    1
    63    38    37    1
    64    48    47    1
    65    39    40    2
    66    15    14    1
    67    44    43    2
    68    47    46    1
    69    43    42    1
    70    46    45    1
    71    27    26    2
    72    45    42    1
    73    30    28    1
    74    42    41    1
    75    26    31   am
    76    26    25    1
    77    36    35    1
    78    32    33    1
    79    32    31    1
    80    32    35    1
    81    24    25    1
    82    33    34    2
    83    25    28    1
    84    28    29    1
