@<TRIPOS>MOLECULE
tmp/5y8lA00.pdb
 195 184 0 0 0
SMALL
GASTEIGER

@<TRIPOS>ATOM
      1  N         50.8350   85.6080   30.3070 N.3     7  LEU7       -0.1231
      2  CA        50.6300   85.9430   31.6970 C.3     7  LEU7        0.1693
      3  C         50.1360   84.6670   32.3850 C.2     7  LEU7        0.2592
      4  O         48.9970   84.2220   32.1570 O.2     7  LEU7       -0.2718
      5  CB        49.6210   87.0490   31.7770 C.3     7  LEU7        0.0284
      6  CG        49.8190   88.2710   30.8700 C.3     7  LEU7        0.0019
      7  CD1       48.6610   89.2730   31.0240 C.3     7  LEU7        0.0001
      8  CD2       51.1340   88.9330   31.2230 C.3     7  LEU7        0.0001
      9  N         50.9810   84.1050   33.2330 N.am    8  GLY8       -0.1957
     10  CA        50.7340   82.8510   33.9550 C.3     8  GLY8        0.1869
     11  C         51.6530   81.7930   33.3630 C.2     8  GLY8        0.2309
     12  O         51.3810   81.2840   32.2810 O.2     8  GLY8       -0.2863
     13  N         52.9210   78.9260   34.7910 N.3    10  GLY10      -0.1210
     14  CA        52.8880   77.8550   35.7840 C.3    10  GLY10       0.1956
     15  C         52.9640   76.5100   35.0900 C.2    10  GLY10       0.2612
     16  O         53.6300   76.3660   34.0330 O.2    10  GLY10      -0.2717
     17  N         52.3520   75.5030   35.6700 N.am   11  ASN11      -0.1960
     18  CA        52.4390   74.1780   35.1610 C.3    11  ASN11       0.1819
     19  C         52.0710   74.0440   33.6820 C.2    11  ASN11       0.2621
     20  O         52.6920   73.3150   32.9730 O.2    11  ASN11      -0.2715
     21  CB        51.6620   73.2230   36.0400 C.3    11  ASN11       0.1195
     22  CG        52.3330   73.0080   37.3830 C.2    11  ASN11       0.2630
     23  OD1       53.5160   72.8830   37.4620 O.2    11  ASN11      -0.2716
     24  ND2       51.5800   72.9900   38.3970 N.am   11  ASN11      -0.0877
     25  N         51.0070   74.7100   33.2910 N.am   12  MET12      -0.1963
     26  CA        50.6040   74.7540   31.8910 C.3    12  MET12       0.1736
     27  C         51.2720   75.8660   31.1060 C.2    12  MET12       0.2617
     28  O         51.7750   75.6390   29.9550 O.2    12  MET12      -0.2715
     29  CB        49.0870   74.8880   31.8170 C.3    12  MET12       0.0427
     30  CG        48.3010   73.7000   32.3790 C.3    12  MET12       0.0599
     31  SD        48.5700   72.1580   31.4570 S.3    12  MET12      -0.1393
     32  CE        47.5090   72.3650   30.0470 C.3    12  MET12       0.0692
     33  N         51.3360   77.0670   31.6870 N.am   13  GLY13      -0.1955
     34  CA        51.8440   78.2420   30.9560 C.3    13  GLY13       0.1869
     35  C         53.3150   78.1070   30.5710 C.2    13  GLY13       0.2309
     36  O         53.7470   78.5930   29.5030 O.2    13  GLY13      -0.2863
     37  N         55.0570   87.3020   32.2560 N.3    30  PHE30      -0.1227
     38  CA        54.9480   87.7480   33.6350 C.3    30  PHE30       0.1736
     39  C         54.3330   86.6580   34.4740 C.2    30  PHE30       0.2595
     40  O         53.3550   85.9860   34.0570 O.2    30  PHE30      -0.2718
     41  CB        54.1600   89.0380   33.7910 C.3    30  PHE30       0.0547
     42  CG        53.8920   89.3820   35.2180 C.ar   30  PHE30      -0.0202
     43  CD1       54.9280   89.8420   36.0060 C.ar   30  PHE30      -0.0042
     44  CD2       52.6610   89.0880   35.8200 C.ar   30  PHE30      -0.0042
     45  CE1       54.7040   90.1380   37.3490 C.ar   30  PHE30      -0.0003
     46  CE2       52.4460   89.3610   37.1660 C.ar   30  PHE30      -0.0003
     47  CZ        53.4550   89.9070   37.9120 C.ar   30  PHE30      -0.0000
     48  N         54.9030   86.4820   35.6790 N.am   31  ASP31      -0.1960
     49  CA        54.3630   85.5620   36.6600 C.3    31  ASP31       0.1825
     50  C         54.8780   86.0480   38.0250 C.2    31  ASP31       0.2464
     51  O         56.0330   86.3550   38.1500 O.2    31  ASP31      -0.2730
     52  CB        54.7920   84.1470   36.3600 C.3    31  ASP31       0.1450
     53  CG        54.0220   83.0860   37.1820 C.2    31  ASP31       0.3671
     54  OD1       54.0790   83.1410   38.4330 O.co2  31  ASP31      -0.2456
     55  OD2       53.3090   82.2030   36.6140 O.co2  31  ASP31      -0.2456
     56  N         54.0320   86.1640   39.0120 N.am   32  PRO32      -0.2715
     57  CA        54.5190   86.6450   40.3330 C.3    32  PRO32       0.1536
     58  C         55.3000   85.6180   41.1540 C.2    32  PRO32       0.2598
     59  O         55.8180   85.9920   42.2100 O.2    32  PRO32      -0.2715
     60  CB        53.2220   87.0430   41.0370 C.3    32  PRO32       0.0310
     61  CG        52.1820   86.1370   40.4000 C.3    32  PRO32       0.0237
     62  CD        52.5860   85.9920   38.9760 C.3    32  PRO32       0.0939
     63  N         55.3680   84.3510   40.7130 N.am   33  ALA33      -0.1978
     64  CA        56.2030   83.3420   41.3430 C.3    33  ALA33       0.1597
     65  C         57.5610   83.3230   40.6510 C.2    33  ALA33       0.2287
     66  O         57.6290   82.9900   39.4440 O.2    33  ALA33      -0.2864
     67  CB        55.5270   81.9900   41.2420 C.3    33  ALA33       0.0319
     68  N         58.5960   80.2130   38.6940 N.3    36  ALA36      -0.1245
     69  CA        57.9160   80.1530   37.3690 C.3    36  ALA36       0.1562
     70  C         58.5370   81.0760   36.3420 C.2    36  ALA36       0.2260
     71  O         58.8690   80.6640   35.2260 O.2    36  ALA36      -0.2867
     72  CB        56.4190   80.4830   37.5230 C.3    36  ALA36       0.0290
     73  N         52.6660   92.7960   34.9260 N.3    51  ALA51      -0.1245
     74  CA        51.8330   92.3540   33.7600 C.3    51  ALA51       0.1562
     75  C         51.6490   93.4610   32.7010 C.2    51  ALA51       0.2260
     76  O         51.7920   93.2010   31.4790 O.2    51  ALA51      -0.2867
     77  CB        50.5180   91.8130   34.2050 C.3    51  ALA51       0.0290
     78  N         46.9530   82.2860   31.2910 N.3    64  MET64      -0.1230
     79  CA        46.8030   80.9220   31.7330 C.3    64  MET64       0.1702
     80  C         46.8330   80.9430   33.2530 C.2    64  MET64       0.2592
     81  O         47.8540   80.6470   33.8830 O.2    64  MET64      -0.2718
     82  CB        47.9230   80.0100   31.1130 C.3    64  MET64       0.0401
     83  CG        47.6650   78.5170   31.2470 C.3    64  MET64       0.0596
     84  SD        46.0740   78.0690   30.5090 S.3    64  MET64      -0.1393
     85  CE        46.0870   76.2630   30.5400 C.3    64  MET64       0.0692
     86  N         45.6870   81.2340   33.8440 N.am   65  LEU65      -0.1966
     87  CA        45.6430   81.6800   35.2410 C.3    65  LEU65       0.1713
     88  C         44.6970   80.8230   36.0600 C.2    65  LEU65       0.2458
     89  O         43.9920   80.0080   35.4810 O.2    65  LEU65      -0.2730
     90  CB        45.2550   83.1480   35.2920 C.3    65  LEU65       0.0310
     91  CG        46.1490   84.1430   34.5820 C.3    65  LEU65       0.0022
     92  CD1       45.4320   85.4960   34.5370 C.3    65  LEU65       0.0001
     93  CD2       47.4680   84.2510   35.3610 C.3    65  LEU65       0.0001
     94  N         44.7410   80.9310   37.4020 N.am   66  PRO66      -0.2727
     95  CA        44.0120   79.8920   38.1760 C.3    66  PRO66       0.1402
     96  C         42.5200   80.0120   38.2400 C.2    66  PRO66       0.2269
     97  O         41.8560   79.0050   38.3050 O.2    66  PRO66      -0.2865
     98  CB        44.6110   79.9730   39.6000 C.3    66  PRO66       0.0296
     99  CG        45.9360   80.6670   39.4180 C.3    66  PRO66       0.0237
    100  CD        45.7450   81.6230   38.2320 C.3    66  PRO66       0.0939
    101  N         41.0050   85.9570   39.0310 N.3    70  VAL70      -0.1245
    102  CA        42.3590   86.3810   38.7050 C.3    70  VAL70       0.1561
    103  C         42.3970   86.8540   37.2540 C.2    70  VAL70       0.2260
    104  O         43.0350   87.8490   36.9540 O.2    70  VAL70      -0.2867
    105  CB        43.3870   85.2520   38.9970 C.3    70  VAL70       0.0252
    106  CG1       44.7880   85.6060   38.5350 C.3    70  VAL70       0.0019
    107  CG2       43.4060   84.9300   40.4820 C.3    70  VAL70       0.0019
    108  N         43.4620   90.6250   36.1700 N.3    74  CYS74      -0.1235
    109  CA        44.5730   90.7420   35.2090 C.3    74  CYS74       0.1677
    110  C         44.1170   91.6210   34.0100 C.2    74  CYS74       0.2270
    111  O         44.8080   92.5330   33.6090 O.2    74  CYS74      -0.2867
    112  CB        44.9820   89.3400   34.7470 C.3    74  CYS74       0.0956
    113  SG        46.2570   89.3620   33.4620 S.3    74  CYS74      -0.0801
    114  N         42.7960   79.9280   30.4200 N.3    92  SER92      -0.1202
    115  CA        42.3460   79.4680   31.7540 C.3    92  SER92       0.2020
    116  C         41.0320   78.6690   31.6650 C.2    92  SER92       0.2619
    117  O         40.2160   78.8590   30.7420 O.2    92  SER92      -0.2717
    118  CB        42.1890   80.6500   32.7150 C.3    92  SER92       0.2103
    119  OG        43.2650   81.5390   32.5060 O.3    92  SER92      -0.2182
    120  N         40.7870   77.8640   32.6870 N.am   93  THR93      -0.1952
    121  CA        39.5150   77.1820   32.8250 C.3    93  THR93       0.1897
    122  C         38.7230   77.9870   33.8680 C.2    93  THR93       0.2313
    123  O         39.0680   78.0210   35.0010 O.2    93  THR93      -0.2863
    124  CB        39.6330   75.7190   33.2700 C.3    93  THR93       0.1794
    125  OG1       40.4710   75.0290   32.3770 O.3    93  THR93      -0.2208
    126  CG2       38.2750   75.0690   33.2780 C.3    93  THR93       0.0378
    127  N         41.7590   74.5490   27.5510 N.3   118  VAL118     -0.1231
    128  CA        42.3840   73.3520   27.0260 C.3   118  VAL118      0.1692
    129  C         42.1700   72.0950   27.8010 C.2   118  VAL118      0.2592
    130  O         41.9150   72.1070   29.0230 O.2   118  VAL118     -0.2718
    131  CB        43.8970   73.5360   26.8510 C.3   118  VAL118      0.0266
    132  CG1       44.1890   74.7630   25.9450 C.3   118  VAL118      0.0020
    133  CG2       44.6240   73.6710   28.1790 C.3   118  VAL118      0.0020
    134  N         42.3030   70.9850   27.0700 N.am  119  SER119     -0.1952
    135  CA        42.4300   69.6300   27.6370 C.3   119  SER119      0.1924
    136  C         43.7550   69.0110   27.2180 C.2   119  SER119      0.2314
    137  O         44.2030   69.2480   26.0870 O.2   119  SER119     -0.2863
    138  CB        41.3060   68.7800   27.0830 C.3   119  SER119      0.2116
    139  OG        40.0800   69.3300   27.4950 O.3   119  SER119     -0.2180
    140  N         46.5190   68.3130   29.8760 N.3   121  GLY121     -0.1210
    141  CA        47.5180   68.3290   30.9450 C.3   121  GLY121      0.1956
    142  C         48.8930   68.8420   30.5680 C.2   121  GLY121      0.2611
    143  O         49.1410   69.3270   29.4400 O.2   121  GLY121     -0.2717
    144  N         49.7740   68.7720   31.5450 N.am  122  VAL122     -0.1979
    145  CA        51.1740   69.1510   31.3780 C.3   122  VAL122      0.1595
    146  C         51.8740   68.3370   30.2530 C.2   122  VAL122      0.2287
    147  O         52.6440   68.8810   29.4830 O.2   122  VAL122     -0.2864
    148  CB        51.8910   69.0700   32.7200 C.3   122  VAL122      0.0276
    149  CG1       53.4040   69.2170   32.6000 C.3   122  VAL122      0.0022
    150  CG2       51.3550   70.1710   33.5990 C.3   122  VAL122      0.0022
    151  N         33.9100   72.6030   27.3140 N.3   168  LYS168     -0.1245
    152  CA        34.8140   71.8550   28.1850 C.3   168  LYS168      0.1561
    153  C         34.1010   71.4490   29.4920 C.2   168  LYS168      0.2260
    154  O         34.2920   70.3550   29.9540 O.2   168  LYS168     -0.2867
    155  CB        36.0140   72.6310   28.5700 C.3   168  LYS168      0.0271
    156  CG        36.9530   71.8750   29.4920 C.3   168  LYS168      0.0035
    157  CD        38.2730   72.6010   29.7910 C.3   168  LYS168      0.0206
    158  CE        39.0620   71.7910   30.8150 C.3   168  LYS168      0.1093
    159  NZ        40.3140   72.4570   31.1290 N.3   168  LYS168     -0.1314
    160  N         45.0070   62.6170   35.0840 N.3   236  PHE236     -0.1241
    161  CA        44.1530   63.7540   35.2730 C.3   236  PHE236      0.1605
    162  C         43.7760   63.7570   36.7460 C.2   236  PHE236      0.2264
    163  O         42.9610   62.8700   37.1720 O.2   236  PHE236     -0.2867
    164  CB        42.9100   63.6590   34.4010 C.3   236  PHE236      0.0534
    165  CG        42.0380   64.8870   34.4590 C.ar  236  PHE236     -0.0203
    166  CD1       42.5870   66.1710   34.3810 C.ar  236  PHE236     -0.0042
    167  CD2       40.7000   64.8000   34.6100 C.ar  236  PHE236     -0.0042
    168  CE1       41.7700   67.3210   34.4530 C.ar  236  PHE236     -0.0003
    169  CE2       39.8770   65.9480   34.6870 C.ar  236  PHE236     -0.0003
    170  CZ        40.4120   67.1890   34.6290 C.ar  236  PHE236     -0.0000
    171  N         42.0870   68.5660   39.9150 N.3   240  LEU240     -0.1245
    172  CA        41.6080   69.2530   38.6960 C.3   240  LEU240      0.1561
    173  C         40.1820   68.8550   38.3080 C.2   240  LEU240      0.2260
    174  O         39.4110   69.6830   37.9050 O.2   240  LEU240     -0.2867
    175  CB        42.5610   69.0100   37.5430 C.3   240  LEU240      0.0270
    176  CG        43.7970   69.9180   37.5300 C.3   240  LEU240      0.0019
    177  CD1       44.8560   69.3570   36.5800 C.3   240  LEU240      0.0001
    178  CD2       43.3280   71.3320   37.0800 C.3   240  LEU240      0.0001
    179  N         37.9650   70.7390   40.5930 N.3   243  LYS243     -0.1231
    180  CA        37.8880   72.1110   40.0790 C.3   243  LYS243      0.1693
    181  C         36.8840   72.2590   38.9310 C.2   243  LYS243      0.2592
    182  O         36.0280   73.1180   38.9590 O.2   243  LYS243     -0.2718
    183  CB        39.2820   72.5900   39.6440 C.3   243  LYS243      0.0285
    184  CG        39.2230   73.9140   38.8410 C.3   243  LYS243      0.0035
    185  CD        40.5990   74.5250   38.5850 C.3   243  LYS243      0.0206
    186  CE        40.6220   76.0370   38.4190 C.3   243  LYS243      0.1093
    187  NZ        40.4710   76.4180   36.9930 N.3   243  LYS243     -0.1314
    188  N         36.9790   71.4090   37.9130 N.am  244  ASP244     -0.1974
    189  CA        36.0840   71.4740   36.7910 C.3   244  ASP244      0.1709
    190  C         34.6250   71.2080   37.1330 C.2   244  ASP244      0.2293
    191  O         33.6760   71.8400   36.5900 O.2   244  ASP244     -0.2864
    192  CB        36.5570   70.4940   35.7030 C.3   244  ASP244      0.1436
    193  CG        37.8120   70.9730   34.9750 C.2   244  ASP244      0.3671
    194  OD1       38.1630   72.2150   35.0920 O.co2 244  ASP244     -0.2456
    195  OD2       38.4640   70.0860   34.2900 O.co2 244  ASP244     -0.2456
@<TRIPOS>BOND
     1   132   131    1
     2   137   136    2
     3   131   128    1
     4   131   133    1
     5   128   127    1
     6   128   129    1
     7   134   135    1
     8   134   129   am
     9   138   139    1
    10   138   135    1
    11   136   135    1
    12   151   152    1
    13   129   130    2
    14   152   155    1
    15   152   153    1
    16   155   156    1
    17   143   142    2
    18   147   146    2
    19   153   154    2
    20   156   157    1
    21    36    35    2
    22   157   158    1
    23   140   141    1
    24    28    27    2
    25    32    31    1
    26   146   145    1
    27     1     2    1
    28   114   115    1
    29    84    85    1
    30    84    83    1
    31   142   141    1
    32   142   144   am
    33    35    34    1
    34   117   116    2
    35   158   159    1
    36     6     7    1
    37     6     8    1
    38     6     5    1
    39    34    33    1
    40    27    33   am
    41    27    26    1
    42    82    83    1
    43    82    79    1
    44    78    79    1
    45   145   144    1
    46   145   148    1
    47    31    30    1
    48    76    75    2
    49   116   115    1
    50   116   120   am
    51     2     5    1
    52     2     3    1
    53    79    80    1
    54   115   118    1
    55    29    26    1
    56    29    30    1
    57    26    25    1
    58     4     3    2
    59    37    38    1
    60    12    11    2
    61   125   124    1
    62     3     9   am
    63   119   118    1
    64   149   148    1
    65   120   121    1
    66    75    74    1
    67   148   150    1
    68   121   124    1
    69   121   122    1
    70    20    19    2
    71     9    10    1
    72    80    86   am
    73    80    81    2
    74   124   126    1
    75    25    19   am
    76    11    10    1
    77   113   112    1
    78   111   110    2
    79    38    41    1
    80    38    39    1
    81    19    18    1
    82    74    77    1
    83    74    73    1
    84    41    42    1
    85    86    87    1
    86   122   123    2
    87   110   109    1
    88    16    15    2
    89    40    39    2
    90   195   193   ar
    91   166   168   ar
    92   166   165   ar
    93   164   165    1
    94   164   161    1
    95   168   170   ar
    96   165   167   ar
    97    39    48   am
    98    92    91    1
    99    91    90    1
   100    91    93    1
   101   167   169   ar
   102   170   169   ar
   103   112   109    1
   104    13    14    1
   105   193   194   ar
   106   193   192    1
   107   160   161    1
   108    15    17   am
   109    15    14    1
   110    18    17    1
   111    18    21    1
   112   109   108    1
   113    42    44   ar
   114    42    43   ar
   115    71    70    2
   116    87    90    1
   117    87    88    1
   118   161   162    1
   119    89    88    2
   120    48    49    1
   121   192   189    1
   122    44    46   ar
   123    43    45   ar
   124    21    22    1
   125    88    94   am
   126    70    69    1
   127    52    49    1
   128    52    53    1
   129   177   176    1
   130   191   190    2
   131    55    53   ar
   132    49    50    1
   133   162   163    2
   134   189   190    1
   135   189   188    1
   136   104   103    2
   137   187   186    1
   138   178   176    1
   139    46    47   ar
   140    53    54   ar
   141   103   102    1
   142    45    47   ar
   143    69    72    1
   144    69    68    1
   145    22    23    2
   146    22    24   am
   147    94    95    1
   148    94   100    1
   149   176   175    1
   150   175   172    1
   151   174   173    2
   152   188   181   am
   153    50    51    2
   154    50    56   am
   155    95    96    1
   156    95    98    1
   157   100    99    1
   158    96    97    2
   159   173   172    1
   160   186   185    1
   161   106   105    1
   162   185   184    1
   163   172   171    1
   164   102   105    1
   165   102   101    1
   166   184   183    1
   167   181   182    2
   168   181   180    1
   169    62    56    1
   170    62    61    1
   171   105   107    1
   172    56    57    1
   173    99    98    1
   174    66    65    2
   175   183   180    1
   176   180   179    1
   177    57    60    1
   178    57    58    1
   179    61    60    1
   180    65    64    1
   181    63    58   am
   182    63    64    1
   183    58    59    2
   184    67    64    1
