@<TRIPOS>MOLECULE
tmp/5y8wA00.pdb
 117 114 0 0 0
SMALL
GASTEIGER

@<TRIPOS>ATOM
      1  N         -0.7730    2.6860    5.1010 N.3    40  TRP40      -0.1228
      2  CA        -0.6200    4.0070    5.6500 C.3    40  TRP40       0.1722
      3  C         -1.9270    4.9130    5.7440 C.2    40  TRP40       0.2437
      4  O         -2.1070    5.5590    6.7860 O.2    40  TRP40      -0.2733
      5  CB         0.5800    4.7560    5.0780 C.3    40  TRP40       0.0563
      6  CG         0.4800    5.0630    3.5940 C.ar   40  TRP40       0.0003
      7  CD1        0.9440    4.2890    2.5720 C.ar   40  TRP40       0.0946
      8  CD2       -0.0980    6.2090    2.9960 C.ar   40  TRP40       0.0152
      9  NE1        0.6840    4.8670    1.3720 N.ar   40  TRP40      -0.2442
     10  CE2        0.0390    6.0580    1.5940 C.ar   40  TRP40       0.0810
     11  CE3       -0.7140    7.3620    3.5000 C.ar   40  TRP40       0.0012
     12  CZ2       -0.4330    7.0050    0.6970 C.ar   40  TRP40       0.0191
     13  CZ3       -1.1700    8.3110    2.6130 C.ar   40  TRP40       0.0001
     14  CH2       -1.0360    8.1370    1.2300 C.ar   40  TRP40       0.0015
     15  N         -2.7910    4.9530    4.7100 N.am   41  PRO41      -0.2718
     16  CA        -3.9320    5.8460    4.8550 C.3    41  PRO41       0.1535
     17  C         -4.9910    5.3290    5.8910 C.2    41  PRO41       0.2598
     18  O         -5.8790    6.0860    6.2750 O.2    41  PRO41      -0.2715
     19  CB        -4.5620    5.8650    3.4490 C.3    41  PRO41       0.0310
     20  CG        -3.5780    5.1690    2.5330 C.3    41  PRO41       0.0237
     21  CD        -2.8780    4.2040    3.4440 C.3    41  PRO41       0.0939
     22  N         -4.8760    4.0670    6.2740 N.am   42  PHE42      -0.1974
     23  CA        -5.8370    3.3460    7.0670 C.3    42  PHE42       0.1639
     24  C         -5.3490    3.0390    8.4810 C.2    42  PHE42       0.2290
     25  O         -6.0880    2.4130    9.2440 O.2    42  PHE42      -0.2864
     26  CB        -6.1810    2.0610    6.3870 C.3    42  PHE42       0.0560
     27  CG        -6.6280    2.2420    4.9750 C.ar   42  PHE42      -0.0200
     28  CD1       -7.8900    2.6590    4.7000 C.ar   42  PHE42      -0.0042
     29  CD2       -5.7570    1.9870    3.9170 C.ar   42  PHE42      -0.0042
     30  CE1       -8.2950    2.8660    3.3910 C.ar   42  PHE42      -0.0003
     31  CE2       -6.1580    2.1970    2.5920 C.ar   42  PHE42      -0.0003
     32  CZ        -7.4310    2.6340    2.3310 C.ar   42  PHE42      -0.0000
     33  N         -9.3510    9.1050    9.8560 N.3    46  VAL46      -0.1245
     34  CA        -9.3100   10.1390    8.8640 C.3    46  VAL46       0.1561
     35  C         -9.3340   11.4950    9.5520 C.2    46  VAL46       0.2260
     36  O        -10.2030   11.7770   10.3150 O.2    46  VAL46      -0.2867
     37  CB       -10.4470   10.0630    7.8360 C.3    46  VAL46       0.0252
     38  CG1      -10.4270   11.3110    6.9510 C.3    46  VAL46       0.0019
     39  CG2      -10.2900    8.8040    6.9810 C.3    46  VAL46       0.0019
     40  N         -6.0000   16.5110    6.2740 N.3    51  LEU51      -0.1245
     41  CA        -6.0330   16.0320    4.9000 C.3    51  LEU51       0.1561
     42  C         -6.8830   16.9080    3.9670 C.2    51  LEU51       0.2260
     43  O         -6.9840   16.6160    2.7900 O.2    51  LEU51      -0.2867
     44  CB        -6.4760   14.5800    4.8320 C.3    51  LEU51       0.0270
     45  CG        -5.6590   13.5560    5.5880 C.3    51  LEU51       0.0019
     46  CD1       -6.3910   12.2190    5.6420 C.3    51  LEU51       0.0001
     47  CD2       -4.2760   13.3700    4.9730 C.3    51  LEU51       0.0001
     48  N        -10.2620   17.3740    3.8200 N.3    53  LEU53      -0.1245
     49  CA       -11.3830   16.6190    3.3030 C.3    53  LEU53       0.1561
     50  C        -12.6220   17.0990    4.0680 C.2    53  LEU53       0.2260
     51  O        -13.1530   16.3650    4.8890 O.2    53  LEU53      -0.2867
     52  CB       -11.1530   15.1500    3.5050 C.3    53  LEU53       0.0270
     53  CG        -9.8990   14.4690    2.9340 C.3    53  LEU53       0.0019
     54  CD1       -9.8590   13.0520    3.4520 C.3    53  LEU53       0.0001
     55  CD2       -9.9240   14.4690    1.4170 C.3    53  LEU53       0.0001
     56  N        -15.6290   14.7980    4.2750 N.3    56  TYR56      -0.1241
     57  CA       -15.4540   13.3800    4.6780 C.3    56  TYR56       0.1605
     58  C        -16.5390   12.9200    5.6770 C.2    56  TYR56       0.2264
     59  O        -17.2620   11.9590    5.4240 O.2    56  TYR56      -0.2867
     60  CB       -14.0590   13.0840    5.2440 C.3    56  TYR56       0.0534
     61  CG       -13.8780   11.5840    5.3990 C.ar   56  TYR56      -0.0201
     62  CD1      -13.6060   10.7740    4.3050 C.ar   56  TYR56      -0.0009
     63  CD2      -14.0470   10.9790    6.6070 C.ar   56  TYR56      -0.0009
     64  CE1      -13.4900    9.3760    4.4310 C.ar   56  TYR56       0.0417
     65  CE2      -13.9030    9.6030    6.7610 C.ar   56  TYR56       0.0417
     66  CZ       -13.6840    8.7810    5.6740 C.ar   56  TYR56       0.1957
     67  OH       -13.6450    7.3790    5.8520 O.3    56  TYR56      -0.2866
     68  N        -14.2710    3.7320    2.5130 N.3    95  CYS95      -0.1235
     69  CA       -13.3760    4.1240    1.4420 C.3    95  CYS95       0.1677
     70  C        -14.0800    4.1050    0.0920 C.2    95  CYS95       0.2270
     71  O        -14.0080    5.0740   -0.6440 O.2    95  CYS95      -0.2867
     72  CB       -12.1770    3.1790    1.4160 C.3    95  CYS95       0.0956
     73  SG       -10.8730    3.8310    0.3410 S.3    95  CYS95      -0.0801
     74  N        -16.9060    6.9740   -0.0030 N.3    98  TYR98      -0.1227
     75  CA       -16.4470    8.3400   -0.1250 C.3    98  TYR98       0.1736
     76  C        -15.7740    8.5900   -1.4950 C.2    98  TYR98       0.2595
     77  O        -15.9040    9.6700   -2.0380 O.2    98  TYR98      -0.2718
     78  CB       -15.4910    8.6940    1.0180 C.3    98  TYR98       0.0548
     79  CG       -14.9580   10.1150    0.9390 C.ar   98  TYR98      -0.0200
     80  CD1      -15.7780   11.2210    1.1910 C.ar   98  TYR98      -0.0009
     81  CD2      -13.6180   10.3460    0.6300 C.ar   98  TYR98      -0.0009
     82  CE1      -15.2700   12.5290    1.0880 C.ar   98  TYR98       0.0417
     83  CE2      -13.1200   11.6110    0.5220 C.ar   98  TYR98       0.0417
     84  CZ       -13.9250   12.6960    0.7620 C.ar   98  TYR98       0.1957
     85  OH       -13.3980   13.9300    0.6190 O.3    98  TYR98      -0.2866
     86  N        -15.0140    7.6130   -1.9930 N.am   99  ASN99      -0.1974
     87  CA       -14.2340    7.7840   -3.1810 C.3    99  ASN99       0.1688
     88  C        -14.9160    7.2370   -4.4380 C.2    99  ASN99       0.2292
     89  O        -16.0910    6.8640   -4.3960 O.2    99  ASN99      -0.2864
     90  CB       -12.8720    7.1860   -2.9780 C.3    99  ASN99       0.1181
     91  CG       -12.1370    7.7990   -1.8160 C.2    99  ASN99       0.2629
     92  OD1      -11.6160    8.9210   -1.9360 O.2    99  ASN99      -0.2716
     93  ND2      -12.1070    7.0890   -0.6580 N.am   99  ASN99      -0.0877
     94  N         -6.8650    6.0750   -6.6380 N.3   104  ASP104     -0.1225
     95  CA        -5.7160    5.4240   -6.0530 C.3   104  ASP104      0.1805
     96  C         -6.0540    4.7570   -4.7140 C.2   104  ASP104      0.2597
     97  O         -5.6300    3.6290   -4.4520 O.2   104  ASP104     -0.2718
     98  CB        -4.5670    6.4330   -5.8000 C.3   104  ASP104      0.1424
     99  CG        -4.0120    7.0440   -7.1240 C.2   104  ASP104      0.3668
    100  OD1       -3.4770    6.3180   -7.9320 O.co2 104  ASP104     -0.2456
    101  OD2       -4.1290    8.2460   -7.3200 O.co2 104  ASP104     -0.2456
    102  N         -6.7130    5.5140   -3.8330 N.am  105  ILE105     -0.1980
    103  CA        -7.0500    5.0130   -2.4820 C.3   105  ILE105      0.1595
    104  C         -7.9760    3.7600   -2.5430 C.2   105  ILE105      0.2287
    105  O         -7.8130    2.8420   -1.7390 O.2   105  ILE105     -0.2864
    106  CB        -7.6610    6.1340   -1.6280 C.3   105  ILE105      0.0276
    107  CG1       -7.7840    5.7810   -0.1300 C.3   105  ILE105      0.0022
    108  CG2       -9.0270    6.5280   -2.0540 C.3   105  ILE105      0.0022
    109  CD1       -6.5380    5.9380    0.6270 C.3   105  ILE105      0.0001
    110  N         -6.0140    0.7300   -3.3630 N.3   108  MET108     -0.1245
    111  CA        -5.2990    0.2730   -2.2100 C.3   108  MET108      0.1570
    112  C         -6.2160   -0.4800   -1.2480 C.2   108  MET108      0.2261
    113  O         -5.8400   -1.5440   -0.7590 O.2   108  MET108     -0.2867
    114  CB        -4.6170    1.4160   -1.5150 C.3   108  MET108      0.0387
    115  CG        -3.4290    1.9310   -2.2960 C.3   108  MET108      0.0595
    116  SD        -2.9220    3.6310   -1.9290 S.3   108  MET108     -0.1393
    117  CE        -2.0430    3.3880   -0.3930 C.3   108  MET108      0.0692
@<TRIPOS>BOND
     1   100    99   ar
     2   101    99   ar
     3    99    98    1
     4    94    95    1
     5    95    98    1
     6    95    96    1
     7    96    97    2
     8    96   102   am
     9    88    89    2
    10    88    87    1
    11   102   103    1
    12   110   111    1
    13    87    90    1
    14    87    86    1
    15    90    91    1
    16   104   103    1
    17   104   105    2
    18   103   106    1
    19   115   116    1
    20   115   114    1
    21   111   114    1
    22   111   112    1
    23   108   106    1
    24    77    76    2
    25    86    76   am
    26    92    91    2
    27   116   117    1
    28    91    93   am
    29   106   107    1
    30    76    75    1
    31   112   113    2
    32    71    70    2
    33   107   109    1
    34    75    74    1
    35    75    78    1
    36    70    69    1
    37    73    72    1
    38    83    81   ar
    39    83    84   ar
    40    85    84    1
    41    81    79   ar
    42    12    14   ar
    43    12    10   ar
    44    84    82   ar
    45    79    78    1
    46    79    80   ar
    47    82    80   ar
    48    14    13   ar
    49     9    10   ar
    50     9     7   ar
    51    72    69    1
    52    55    53    1
    53    69    68    1
    54    10     8   ar
    55    32    31   ar
    56    32    30   ar
    57    20    21    1
    58    20    19    1
    59     7     6   ar
    60    31    29   ar
    61    13    11   ar
    62    43    42    2
    63    53    54    1
    64    53    52    1
    65     8    11   ar
    66     8     6   ar
    67    49    52    1
    68    49    48    1
    69    49    50    1
    70    30    28   ar
    71    21    15    1
    72    19    16    1
    73     6     5    1
    74    29    27   ar
    75    42    41    1
    76    50    51    2
    77    56    57    1
    78    62    64   ar
    79    62    61   ar
    80    64    66   ar
    81    57    60    1
    82    57    58    1
    83    28    27   ar
    84    15    16    1
    85    15     3   am
    86    44    41    1
    87    44    45    1
    88    16    17    1
    89    41    40    1
    90    47    45    1
    91    27    26    1
    92     5     2    1
    93     1     2    1
    94    60    61    1
    95    61    63   ar
    96    59    58    2
    97    45    46    1
    98     2     3    1
    99    66    67    1
   100    66    65   ar
   101     3     4    2
   102    17    22   am
   103    17    18    2
   104    22    23    1
   105    26    23    1
   106    63    65   ar
   107    38    37    1
   108    39    37    1
   109    23    24    1
   110    37    34    1
   111    24    25    2
   112    34    35    1
   113    34    33    1
   114    35    36    2
