@<TRIPOS>MOLECULE
tmp/5y8xB00.pdb
 111 103 0 0 0
SMALL
GASTEIGER

@<TRIPOS>ATOM
      1  N         12.9630  -10.2670   19.2410 N.3     1  THR1       -0.1218
      2  CA        12.7360   -8.8460   18.8820 C.3     1  THR1        0.1862
      3  C         13.7110   -7.9670   19.6650 C.2     1  THR1        0.2287
      4  O         14.1680   -8.3540   20.7540 O.2     1  THR1       -0.2866
      5  CB        11.2850   -8.4230   19.1390 C.3     1  THR1        0.1770
      6  OG1       10.4720   -9.3860   18.4740 O.3     1  THR1       -0.2211
      7  CG2       10.9440   -7.0390   18.6380 C.3     1  THR1        0.0375
      8  N         13.0630   -7.8170   14.3040 N.3    19  THR19      -0.1218
      9  CA        12.7790   -9.1780   14.8530 C.3    19  THR19       0.1862
     10  C         13.0240  -10.3000   13.8370 C.2    19  THR19       0.2287
     11  O         13.0850  -10.0460   12.6050 O.2    19  THR19      -0.2866
     12  CB        11.3280   -9.2190   15.3380 C.3    19  THR19       0.1770
     13  OG1       11.1140  -10.4290   16.0590 O.3    19  THR19      -0.2211
     14  CG2       10.3460   -9.0990   14.1970 C.3    19  THR19       0.0375
     15  N         11.1330  -13.0620   14.9950 N.3    21  GLU21      -0.1231
     16  CA         9.9340  -13.6550   15.6480 C.3    21  GLU21       0.1699
     17  C         10.3730  -14.3280   16.9550 C.2    21  GLU21       0.2592
     18  O         10.7080  -13.5970   17.9210 O.2    21  GLU21      -0.2718
     19  CB         9.1530  -14.5130   14.6510 C.3    21  GLU21       0.0402
     20  CG         7.6770  -14.6520   14.9830 C.3    21  GLU21       0.1161
     21  CD         7.3110  -14.8590   16.4460 C.2    21  GLU21       0.3649
     22  OE1        7.0320  -16.0210   16.8230 O.co2  21  GLU21      -0.2457
     23  OE2        7.2560  -13.8430   17.1910 O.co2  21  GLU21      -0.2457
     24  N         10.4000  -15.6570   17.0180 N.am   22  GLN22      -0.1966
     25  CA        10.8380  -16.3730   18.2360 C.3    22  GLN22       0.1733
     26  C         12.3000  -16.0320   18.4690 C.2    22  GLN22       0.2616
     27  O         12.9570  -15.5610   17.5330 O.2    22  GLN22      -0.2715
     28  CB        10.6500  -17.8950   18.1090 C.3    22  GLN22       0.0408
     29  CG         9.2110  -18.3350   18.1230 C.3    22  GLN22       0.0908
     30  CD         8.5990  -18.0480   19.4700 C.2    22  GLN22       0.2608
     31  OE1        8.9200  -18.7020   20.4580 O.2    22  GLN22      -0.2717
     32  NE2        7.7130  -17.0670   19.5110 N.am   22  GLN22      -0.0878
     33  N         12.8190  -16.2730   19.6680 N.am   23  LEU23      -0.1977
     34  CA        14.2920  -16.2470   19.8000 C.3    23  LEU23       0.1596
     35  C         14.8680  -17.2640   18.8020 C.2    23  LEU23       0.2287
     36  O         14.3580  -18.4060   18.7450 O.2    23  LEU23      -0.2864
     37  CB        14.7030  -16.5460   21.2430 C.3    23  LEU23       0.0297
     38  CG        14.7420  -15.3340   22.1630 C.3    23  LEU23       0.0022
     39  CD1       13.3980  -14.6270   22.1850 C.3    23  LEU23       0.0001
     40  CD2       15.1610  -15.7480   23.5600 C.3    23  LEU23       0.0001
     41  N          8.3760  -15.6630   11.1230 N.3    40  GLU40      -0.1245
     42  CA         7.4220  -14.5280   11.2230 C.3    40  GLU40       0.1567
     43  C          6.0250  -14.9670   10.7740 C.2    40  GLU40       0.2260
     44  O          5.0460  -14.3960   11.2890 O.2    40  GLU40      -0.2867
     45  CB         7.8810  -13.3180   10.4020 C.3    40  GLU40       0.0388
     46  CG         7.7000  -11.9960   11.1280 C.3    40  GLU40       0.1160
     47  CD         8.6500  -11.8280   12.3120 C.2    40  GLU40       0.3649
     48  OE1        9.8900  -11.8210   12.0880 O.co2  40  GLU40      -0.2457
     49  OE2        8.1390  -11.6700   13.4480 O.co2  40  GLU40      -0.2457
     50  N          3.0000  -15.4690   12.9910 N.3    43  ASP43      -0.1239
     51  CA         2.2510  -14.2760   13.4500 C.3    43  ASP43       0.1674
     52  C          0.9010  -14.1880   12.7240 C.2    43  ASP43       0.2266
     53  O          0.0150  -13.4660   13.2400 O.2    43  ASP43      -0.2867
     54  CB         3.0800  -13.0080   13.2890 C.3    43  ASP43       0.1410
     55  CG         4.0610  -12.7640   14.4210 C.2    43  ASP43       0.3668
     56  OD1        4.1110  -13.5910   15.3600 O.co2  43  ASP43      -0.2456
     57  OD2        4.7490  -11.7320   14.3450 O.co2  43  ASP43      -0.2456
     58  N          1.9400   -7.7590   13.0240 N.3    62  SER62      -0.1202
     59  CA         2.9780   -7.5180   14.0470 C.3    62  SER62       0.2020
     60  C          2.2980   -6.8060   15.2270 C.2    62  SER62       0.2619
     61  O          1.1580   -6.3120   15.0610 O.2    62  SER62      -0.2717
     62  CB         4.0870   -6.6790   13.4730 C.3    62  SER62       0.2103
     63  OG         5.1300   -6.4880   14.4200 O.3    62  SER62      -0.2182
     64  N          2.9830   -6.7390   16.3600 N.am   63  SER63      -0.1937
     65  CA         2.6130   -5.8790   17.5020 C.3    63  SER63       0.2055
     66  C          3.7220   -4.8570   17.7530 C.2    63  SER63       0.2642
     67  O          3.5910   -4.0910   18.7040 O.2    63  SER63      -0.2714
     68  CB         2.3350   -6.7310   18.7040 C.3    63  SER63       0.2130
     69  OG         1.3040   -7.6590   18.4320 O.3    63  SER63      -0.2179
     70  N          4.7480   -4.8240   16.9000 N.am   64  MET64      -0.1976
     71  CA         5.8950   -3.9030   17.0430 C.3    64  MET64       0.1605
     72  C          5.3690   -2.4690   16.9420 C.2    64  MET64       0.2287
     73  O          4.4520   -2.2060   16.1120 O.2    64  MET64      -0.2864
     74  CB         6.9900   -4.1830   16.0100 C.3    64  MET64       0.0413
     75  CG         7.6520   -5.5260   16.2000 C.3    64  MET64       0.0598
     76  SD         9.1420   -5.7050   15.1820 S.3    64  MET64      -0.1393
     77  CE         8.4100   -5.9860   13.5610 C.3    64  MET64       0.0692
     78  N         10.6340   -4.8910   22.4830 N.3    82  PRO82      -0.2102
     79  CA        10.2800   -6.2640   22.1230 C.3    82  PRO82       0.1504
     80  C          9.1770   -6.8520   23.0170 C.2    82  PRO82       0.2576
     81  O          8.8000   -6.2080   24.0310 O.2    82  PRO82      -0.2718
     82  CB        11.6000   -7.0150   22.3390 C.3    82  PRO82       0.0282
     83  CG        12.2100   -6.3090   23.5350 C.3    82  PRO82       0.0208
     84  CD        11.8410   -4.8460   23.3270 C.3    82  PRO82       0.0893
     85  N          8.7260   -8.0730   22.6660 N.am   83  GLY83      -0.1943
     86  CA         7.8430   -8.8960   23.5200 C.3    83  GLY83       0.2014
     87  C          6.4950   -9.2890   22.9130 C.2    83  GLY83       0.2639
     88  O          5.5520   -9.5110   23.7040 O.2    83  GLY83      -0.2714
     89  N          6.3920   -9.4550   21.5910 N.am   84  GLY84      -0.1954
     90  CA         5.1580   -9.8980   20.9070 C.3    84  GLY84       0.1869
     91  C          3.9670   -9.0170   21.2390 C.2    84  GLY84       0.2309
     92  O          4.0930   -7.7800   21.1980 O.2    84  GLY84      -0.2863
     93  N          4.1880   -5.9070   23.6260 N.3    87  ILE87      -0.1245
     94  CA         4.8500   -4.6380   23.2040 C.3    87  ILE87       0.1561
     95  C          3.8710   -3.4880   23.4560 C.2    87  ILE87       0.2260
     96  O          4.2850   -2.4490   24.0230 O.2    87  ILE87      -0.2867
     97  CB         5.2760   -4.6870   21.7240 C.3    87  ILE87       0.0252
     98  CG1        6.3990   -5.7060   21.5160 C.3    87  ILE87       0.0019
     99  CG2        5.6280   -3.2910   21.2170 C.3    87  ILE87       0.0019
    100  CD1        6.7670   -5.9730   20.0670 C.3    87  ILE87       0.0001
    101  N         17.3260   -6.2880   29.9040 N.3   173  ARG173     -0.1245
    102  CA        18.4650   -6.8310   29.1060 C.3   173  ARG173      0.1563
    103  C         19.7330   -6.0460   29.4700 C.2   173  ARG173      0.2260
    104  O         19.6430   -5.0990   30.2770 O.2   173  ARG173     -0.2867
    105  CB        18.1650   -6.7700   27.5970 C.3   173  ARG173      0.0307
    106  CG        17.0800   -7.7380   27.1330 C.3   173  ARG173      0.0489
    107  CD        16.9650   -7.8490   25.6310 C.3   173  ARG173      0.2205
    108  NE        15.7310   -8.5130   25.2140 N.pl3 173  ARG173     -0.0865
    109  CZ        15.2520   -8.5070   23.9750 C.cat 173  ARG173      0.5346
    110  NH1       15.9410   -7.9400   22.9900 N.pl3 173  ARG173      0.1354
    111  NH2       14.1220   -9.1440   23.7030 N.pl3 173  ARG173      0.1354
@<TRIPOS>BOND
     1    45    46    1
     2    45    42    1
     3    43    42    1
     4    43    44    2
     5    41    42    1
     6    46    47    1
     7    48    47   ar
     8    47    49   ar
     9    11    10    2
    10    52    53    2
    11    52    51    1
    12    50    51    1
    13    58    59    1
    14    54    51    1
    15    54    55    1
    16    62    59    1
    17    62    63    1
    18    77    76    1
    19    10     9    1
    20    59    60    1
    21    14    12    1
    22     8     9    1
    23    57    55   ar
    24    55    56   ar
    25    19    20    1
    26    19    16    1
    27     9    12    1
    28    20    21    1
    29    15    16    1
    30    61    60    2
    31    76    75    1
    32    60    64   am
    33    12    13    1
    34    16    17    1
    35    74    75    1
    36    74    71    1
    37    73    72    2
    38    64    65    1
    39    21    22   ar
    40    21    23   ar
    41    70    71    1
    42    70    66   am
    43    72    71    1
    44    17    24   am
    45    17    18    2
    46    24    25    1
    47    65    66    1
    48    65    68    1
    49    27    26    2
    50    66    67    2
    51    28    29    1
    52    28    25    1
    53    29    30    1
    54    25    26    1
    55    69    68    1
    56    26    33   am
    57     6     5    1
    58     7     5    1
    59    36    35    2
    60    35    34    1
    61     2     5    1
    62     2     1    1
    63     2     3    1
    64    30    32   am
    65    30    31    2
    66     3     4    2
    67    33    34    1
    68    34    37    1
    69   100    98    1
    70    90    91    1
    71    90    89    1
    72    92    91    2
    73    99    97    1
    74    37    38    1
    75    98    97    1
    76    89    87   am
    77    97    94    1
    78    79    82    1
    79    79    78    1
    80    79    80    1
    81    38    39    1
    82    38    40    1
    83    82    83    1
    84    78    84    1
    85    85    80   am
    86    85    86    1
    87    87    86    1
    88    87    88    2
    89   110   109    1
    90    80    81    2
    91    94    95    1
    92    94    93    1
    93    84    83    1
    94    95    96    2
    95   111   109    1
    96   109   108    2
    97   108   107    1
    98   107   106    1
    99   106   105    1
   100   105   102    1
   101   102   103    1
   102   102   101    1
   103   103   104    2
