@<TRIPOS>MOLECULE
tmp/5y8yA00.pdb
 117 114 0 0 0
SMALL
GASTEIGER

@<TRIPOS>ATOM
      1  N          3.7350    1.0180   -0.7000 N.3    49  TRP49      -0.1228
      2  CA         3.5020    2.3550   -1.2330 C.3    49  TRP49       0.1722
      3  C          4.7500    3.2160   -1.5390 C.2    49  TRP49       0.2437
      4  O          4.6910    3.9280   -2.5240 O.2    49  TRP49      -0.2733
      5  CB         2.4390    3.1380   -0.3960 C.3    49  TRP49       0.0563
      6  CG         2.8650    3.4160    1.0260 C.ar   49  TRP49       0.0003
      7  CD1        2.6080    2.6750    2.1080 C.ar   49  TRP49       0.0946
      8  CD2        3.7440    4.4580    1.4490 C.ar   49  TRP49       0.0152
      9  NE1        3.2290    3.2090    3.2310 N.ar   49  TRP49      -0.2442
     10  CE2        3.9400    4.3030    2.8490 C.ar   49  TRP49       0.0810
     11  CE3        4.4220    5.4710    0.7880 C.ar   49  TRP49       0.0012
     12  CZ2        4.7190    5.1740    3.5910 C.ar   49  TRP49       0.0191
     13  CZ3        5.1980    6.3350    1.5290 C.ar   49  TRP49       0.0001
     14  CH2        5.3210    6.1880    2.9180 C.ar   49  TRP49       0.0015
     15  N          5.8520    3.1720   -0.7280 N.am   50  PRO50      -0.2718
     16  CA         6.9880    3.9910   -1.1620 C.3    50  PRO50       0.1535
     17  C          7.6510    3.4980   -2.4610 C.2    50  PRO50       0.2598
     18  O          8.4950    4.2210   -3.0290 O.2    50  PRO50      -0.2715
     19  CB         7.9930    3.8250   -0.0280 C.3    50  PRO50       0.0310
     20  CG         7.1940    3.3080    1.1560 C.3    50  PRO50       0.0237
     21  CD         6.2100    2.4080    0.4820 C.3    50  PRO50       0.0939
     22  N          7.3760    2.2300   -2.7840 N.am   51  PHE51      -0.1974
     23  CA         7.9650    1.4870   -3.8980 C.3    51  PHE51       0.1639
     24  C          7.0640    1.3630   -5.1510 C.2    51  PHE51       0.2290
     25  O          7.4790    0.7780   -6.1640 O.2    51  PHE51      -0.2864
     26  CB         8.4160    0.1210   -3.3650 C.3    51  PHE51       0.0560
     27  CG         9.2940    0.2250   -2.1500 C.ar   51  PHE51      -0.0200
     28  CD1       10.5990    0.7160   -2.2570 C.ar   51  PHE51      -0.0042
     29  CD2        8.8110   -0.0900   -0.8880 C.ar   51  PHE51      -0.0042
     30  CE1       11.4010    0.8740   -1.1410 C.ar   51  PHE51      -0.0003
     31  CE2        9.6090    0.0620    0.2310 C.ar   51  PHE51      -0.0003
     32  CZ        10.9040    0.5410    0.1110 C.ar   51  PHE51      -0.0000
     33  N         11.1740    7.2270   -7.3660 N.3    55  VAL55      -0.1245
     34  CA        11.4370    8.1570   -6.2940 C.3    55  VAL55       0.1561
     35  C         11.2980    9.5900   -6.8510 C.2    55  VAL55       0.2260
     36  O         11.9690    9.9790   -7.8100 O.2    55  VAL55      -0.2867
     37  CB        12.7870    7.9470   -5.6290 C.3    55  VAL55       0.0252
     38  CG1       13.0520    9.0670   -4.6420 C.3    55  VAL55       0.0019
     39  CG2       12.7850    6.6030   -4.8810 C.3    55  VAL55       0.0019
     40  N          9.5400   14.6080   -2.1820 N.3    60  LEU60      -0.1245
     41  CA         9.9100   14.0310   -0.8980 C.3    60  LEU60       0.1561
     42  C         11.1000   14.7070   -0.2310 C.2    60  LEU60       0.2260
     43  O         11.5940   14.2330    0.7950 O.2    60  LEU60      -0.2867
     44  CB        10.1700   12.5480   -1.0810 C.3    60  LEU60       0.0270
     45  CG         9.1050   11.6910   -1.7670 C.3    60  LEU60       0.0019
     46  CD1        9.7250   10.3400   -2.1150 C.3    60  LEU60       0.0001
     47  CD2        7.8890   11.4950   -0.8730 C.3    60  LEU60       0.0001
     48  N         14.3160   14.9220   -1.1730 N.3    62  LEU62      -0.1245
     49  CA        15.5020   14.0390   -1.1220 C.3    62  LEU62       0.1561
     50  C         16.4720   14.5140   -2.2340 C.2    62  LEU62       0.2260
     51  O         16.6990   13.8030   -3.2050 O.2    62  LEU62      -0.2867
     52  CB        15.1140   12.5480   -1.3130 C.3    62  LEU62       0.0270
     53  CG        13.9850   12.0260   -0.3790 C.3    62  LEU62       0.0019
     54  CD1       13.4920   10.6420   -0.8220 C.3    62  LEU62       0.0001
     55  CD2       14.4330   12.0140    1.0810 C.3    62  LEU62       0.0001
     56  N         19.1080   12.2160   -3.5490 N.3    65  TYR65      -0.1241
     57  CA        18.7720   10.8240   -3.8900 C.3    65  TYR65       0.1605
     58  C         19.4600   10.4010   -5.1970 C.2    65  TYR65       0.2264
     59  O         20.1860    9.3920   -5.2680 O.2    65  TYR65      -0.2867
     60  CB        17.2670   10.6600   -4.0400 C.3    65  TYR65       0.0534
     61  CG        16.9200    9.1820   -4.2270 C.ar   65  TYR65      -0.0201
     62  CD1       16.8960    8.3170   -3.1230 C.ar   65  TYR65      -0.0009
     63  CD2       16.7370    8.6430   -5.4970 C.ar   65  TYR65      -0.0009
     64  CE1       16.5860    6.9700   -3.2670 C.ar   65  TYR65       0.0417
     65  CE2       16.4640    7.2860   -5.6800 C.ar   65  TYR65       0.0417
     66  CZ        16.3800    6.4340   -4.5670 C.ar   65  TYR65       0.1957
     67  OH        16.1010    5.0910   -4.7120 O.3    65  TYR65      -0.2866
     68  N         17.3920    1.1180   -1.8870 N.3   104  CYS104     -0.1235
     69  CA        16.8250    1.5350   -0.6210 C.3   104  CYS104      0.1677
     70  C         17.8540    1.3430    0.5340 C.2   104  CYS104      0.2270
     71  O         18.0090    2.2480    1.3570 O.2   104  CYS104     -0.2867
     72  CB        15.5490    0.7940   -0.3690 C.3   104  CYS104      0.0956
     73  SG        14.7470    1.2640    1.1620 S.3   104  CYS104     -0.0801
     74  N         20.6860    4.0560    0.1710 N.3   107  TYR107     -0.1227
     75  CA        20.3880    5.4620    0.4210 C.3   107  TYR107      0.1736
     76  C         20.1640    5.6770    1.9120 C.2   107  TYR107      0.2595
     77  O         20.5070    6.7150    2.4340 O.2   107  TYR107     -0.2718
     78  CB        19.2160    5.9500   -0.4760 C.3   107  TYR107      0.0548
     79  CG        18.8380    7.3710   -0.1990 C.ar  107  TYR107     -0.0200
     80  CD1       19.6700    8.4330   -0.5940 C.ar  107  TYR107     -0.0009
     81  CD2       17.6990    7.6680    0.5200 C.ar  107  TYR107     -0.0009
     82  CE1       19.3530    9.7370   -0.2840 C.ar  107  TYR107      0.0417
     83  CE2       17.3710    8.9690    0.8410 C.ar  107  TYR107      0.0417
     84  CZ        18.2040    9.9930    0.4240 C.ar  107  TYR107      0.1957
     85  OH        17.8880   11.2350    0.7770 O.3   107  TYR107     -0.2866
     86  N         19.5800    4.6820    2.5850 N.am  108  ASN108     -0.1974
     87  CA        19.1110    4.8260    3.9420 C.3   108  ASN108      0.1688
     88  C         20.0010    4.0700    4.9370 C.2   108  ASN108      0.2292
     89  O         20.9430    3.4870    4.5360 O.2   108  ASN108     -0.2864
     90  CB        17.6730    4.3450    4.0210 C.3   108  ASN108      0.1181
     91  CG        16.7910    5.0980    3.0880 C.2   108  ASN108      0.2629
     92  OD1       16.4380    6.2460    3.3570 O.2   108  ASN108     -0.2716
     93  ND2       16.5170    4.5130    1.9270 N.am  108  ASN108     -0.0877
     94  N         12.6890    3.3430    9.1290 N.3   113  ASP113     -0.1225
     95  CA        11.3690    2.8240    8.7290 C.3   113  ASP113      0.1805
     96  C         11.3030    2.2670    7.2960 C.2   113  ASP113      0.2597
     97  O         10.7630    1.1470    7.0500 O.2   113  ASP113     -0.2718
     98  CB        10.3450    3.9240    8.8660 C.3   113  ASP113      0.1424
     99  CG         9.7570    4.0150   10.2950 C.2   113  ASP113      0.3668
    100  OD1        9.9040    3.0730   11.1130 O.co2 113  ASP113     -0.2456
    101  OD2        9.1360    5.0570   10.5730 O.co2 113  ASP113     -0.2456
    102  N         11.8530    3.0320    6.3540 N.am  114  ILE114     -0.1980
    103  CA        11.8450    2.6530    4.9400 C.3   114  ILE114      0.1595
    104  C         12.5880    1.3480    4.7310 C.2   114  ILE114      0.2287
    105  O         12.1530    0.5150    3.9040 O.2   114  ILE114     -0.2864
    106  CB        12.3950    3.8010    4.0160 C.3   114  ILE114      0.0276
    107  CG1       12.1740    3.4860    2.5320 C.3   114  ILE114      0.0022
    108  CG2       13.8500    4.0770    4.2390 C.3   114  ILE114      0.0022
    109  CD1       10.7310    3.4840    2.1140 C.3   114  ILE114      0.0001
    110  N         10.5670   -1.5820    6.0720 N.3   117  MET117     -0.1245
    111  CA         9.6060   -1.8720    5.0120 C.3   117  MET117      0.1570
    112  C         10.2880   -2.7050    3.8760 C.2   117  MET117      0.2261
    113  O          9.8150   -3.7800    3.4830 O.2   117  MET117     -0.2867
    114  CB         9.0070   -0.5710    4.4230 C.3   117  MET117      0.0387
    115  CG         8.0220    0.1820    5.3330 C.3   117  MET117      0.0595
    116  SD         6.9190    1.3070    4.4380 S.3   117  MET117     -0.1393
    117  CE         5.8670    1.9650    5.7030 C.3   117  MET117      0.0692
@<TRIPOS>BOND
     1    36    35    2
     2    33    34    1
     3    35    34    1
     4    34    37    1
     5    25    24    2
     6    65    63   ar
     7    65    66   ar
     8    37    39    1
     9    37    38    1
    10    63    61   ar
    11    59    58    2
    12    58    57    1
    13    24    23    1
    14    67    66    1
    15    66    64   ar
    16    61    60    1
    17    61    62   ar
    18    60    57    1
    19    23    26    1
    20    23    22    1
    21    57    56    1
    22    26    27    1
    23    64    62   ar
    24    51    50    2
    25    18    17    2
    26    22    17   am
    27     4     3    2
    28    17    16    1
    29    28    27   ar
    30    28    30   ar
    31    50    49    1
    32    40    41    1
    33    27    29   ar
    34    46    45    1
    35    68    69    1
    36    45    44    1
    37    45    47    1
    38     3     2    1
    39     3    15   am
    40    52    49    1
    41    52    53    1
    42     2     1    1
    43     2     5    1
    44    48    49    1
    45    16    15    1
    46    16    19    1
    47    30    32   ar
    48    44    41    1
    49    41    42    1
    50    29    31   ar
    51    54    53    1
    52    15    21    1
    53    69    72    1
    54    69    70    1
    55    80    82   ar
    56    80    79   ar
    57    78    79    1
    58    78    75    1
    59     5     6    1
    60    53    55    1
    61    72    73    1
    62    82    84   ar
    63    42    43    2
    64    79    81   ar
    65    19    20    1
    66    32    31   ar
    67    74    75    1
    68    75    76    1
    69    84    85    1
    70    84    83   ar
    71    21    20    1
    72    81    83   ar
    73    70    71    2
    74    11     8   ar
    75    11    13   ar
    76     6     8   ar
    77     6     7   ar
    78     8    10   ar
    79    13    14   ar
    80    76    77    2
    81    76    86   am
    82    93    91   am
    83     7     9   ar
    84   109   107    1
    85   107   106    1
    86    86    87    1
    87    10     9   ar
    88    10    12   ar
    89    14    12   ar
    90    91    92    2
    91    91    90    1
    92   113   112    2
    93   112   111    1
    94   105   104    2
    95    87    90    1
    96    87    88    1
    97   106   108    1
    98   106   103    1
    99   114   111    1
   100   114   115    1
   101   116   115    1
   102   116   117    1
   103    89    88    2
   104   104   103    1
   105   103   102    1
   106   111   110    1
   107   102    96   am
   108    97    96    2
   109    96    95    1
   110    95    98    1
   111    95    94    1
   112    98    99    1
   113    99   101   ar
   114    99   100   ar
