@<TRIPOS>MOLECULE
tmp/5y93A00.pdb
 125 123 0 0 0
SMALL
GASTEIGER

@<TRIPOS>ATOM
      1  N         -3.7150    1.1890    0.7820 N.3    49  TRP49      -0.1228
      2  CA        -3.5600    2.5610    1.3110 C.3    49  TRP49       0.1722
      3  C         -4.8300    3.3550    1.6220 C.2    49  TRP49       0.2437
      4  O         -4.8370    4.0520    2.6190 O.2    49  TRP49      -0.2733
      5  CB        -2.5740    3.4160    0.4650 C.3    49  TRP49       0.0563
      6  CG        -2.9960    3.6030   -0.9690 C.ar   49  TRP49       0.0003
      7  CD1       -2.6780    2.8120   -2.0160 C.ar   49  TRP49       0.0946
      8  CD2       -3.8460    4.6320   -1.4900 C.ar   49  TRP49       0.0152
      9  NE1       -3.2530    3.2730   -3.1680 N.ar   49  TRP49      -0.2442
     10  CE2       -3.9870    4.3870   -2.8770 C.ar   49  TRP49       0.0810
     11  CE3       -4.5040    5.7310   -0.9310 C.ar   49  TRP49       0.0012
     12  CZ2       -4.7490    5.2110   -3.7130 C.ar   49  TRP49       0.0191
     13  CZ3       -5.2690    6.5350   -1.7580 C.ar   49  TRP49       0.0001
     14  CH2       -5.3660    6.2890   -3.1290 C.ar   49  TRP49       0.0015
     15  N         -5.9060    3.2410    0.8100 N.am   50  PRO50      -0.2718
     16  CA        -7.0680    4.0480    1.2320 C.3    50  PRO50       0.1535
     17  C         -7.7520    3.5320    2.4880 C.2    50  PRO50       0.2598
     18  O         -8.5940    4.2500    3.0700 O.2    50  PRO50      -0.2715
     19  CB        -8.0430    3.9410    0.0480 C.3    50  PRO50       0.0310
     20  CG        -7.2130    3.4390   -1.0830 C.3    50  PRO50       0.0237
     21  CD        -6.1990    2.5270   -0.4440 C.3    50  PRO50       0.0939
     22  N         -7.4270    2.2910    2.8480 N.am   51  PHE51      -0.1974
     23  CA        -8.0440    1.5840    3.9610 C.3    51  PHE51       0.1639
     24  C         -7.1440    1.4510    5.1780 C.2    51  PHE51       0.2290
     25  O         -7.5430    0.8100    6.1510 O.2    51  PHE51      -0.2864
     26  CB        -8.5100    0.2110    3.4610 C.3    51  PHE51       0.0560
     27  CG        -9.3410    0.2920    2.2090 C.ar   51  PHE51      -0.0200
     28  CD1      -10.6710    0.6880    2.2620 C.ar   51  PHE51      -0.0042
     29  CD2       -8.7780    0.0300    0.9660 C.ar   51  PHE51      -0.0042
     30  CE1      -11.4460    0.7820    1.1210 C.ar   51  PHE51      -0.0003
     31  CE2       -9.5550    0.1220   -0.1840 C.ar   51  PHE51      -0.0003
     32  CZ       -10.8860    0.5190   -0.1140 C.ar   51  PHE51      -0.0000
     33  N        -11.3380    7.1550    7.2710 N.3    55  VAL55      -0.1245
     34  CA       -11.5720    8.1010    6.1870 C.3    55  VAL55       0.1561
     35  C        -11.4380    9.5350    6.7420 C.2    55  VAL55       0.2260
     36  O        -12.1220    9.9000    7.6970 O.2    55  VAL55      -0.2867
     37  CB       -12.9300    7.8810    5.5110 C.3    55  VAL55       0.0252
     38  CG1      -13.2670    9.0070    4.5430 C.3    55  VAL55       0.0019
     39  CG2      -12.9390    6.5370    4.7880 C.3    55  VAL55       0.0019
     40  N         -9.6410   14.4340    2.2330 N.3    60  LEU60      -0.1231
     41  CA       -10.0240   13.8560    0.9550 C.3    60  LEU60       0.1693
     42  C        -11.1920   14.5730    0.2640 C.2    60  LEU60       0.2592
     43  O        -11.6600   14.1380   -0.7790 O.2    60  LEU60      -0.2718
     44  CB       -10.3350   12.3720    1.1420 C.3    60  LEU60       0.0284
     45  CG        -9.2480   11.5450    1.8140 C.3    60  LEU60       0.0019
     46  CD1       -9.7710   10.1550    2.1320 C.3    60  LEU60       0.0001
     47  CD2       -7.9980   11.4810    0.9400 C.3    60  LEU60       0.0001
     48  N        -11.6950   15.6480    0.8740 N.am   61  ASN61      -0.1960
     49  CA       -12.7700   16.4370    0.2920 C.3    61  ASN61       0.1819
     50  C        -14.0190   15.5960    0.0380 C.2    61  ASN61       0.2621
     51  O        -14.5850   15.6080   -1.0540 O.2    61  ASN61      -0.2715
     52  CB       -12.2890   17.1150   -0.9900 C.3    61  ASN61       0.1195
     53  CG       -12.9650   18.4450   -1.2350 C.2    61  ASN61       0.2630
     54  OD1      -13.8420   18.8640   -0.4780 O.2    61  ASN61      -0.2716
     55  ND2      -12.5410   19.1290   -2.2830 N.am   61  ASN61      -0.0877
     56  N        -14.4350   14.8760    1.0830 N.am   62  LEU62      -0.1977
     57  CA       -15.6030   14.0100    1.0660 C.3    62  LEU62       0.1596
     58  C        -16.5600   14.5010    2.1560 C.2    62  LEU62       0.2287
     59  O        -16.8340   13.7690    3.1370 O.2    62  LEU62      -0.2864
     60  CB       -15.2070   12.5450    1.3670 C.3    62  LEU62       0.0297
     61  CG       -14.0950   11.9730    0.5010 C.3    62  LEU62       0.0022
     62  CD1      -13.8450   10.5200    0.8700 C.3    62  LEU62       0.0001
     63  CD2      -14.4410   12.0290   -1.0010 C.3    62  LEU62       0.0001
     64  N        -19.2670   12.2100    3.4590 N.3    65  TYR65      -0.1241
     65  CA       -18.9400   10.8110    3.8150 C.3    65  TYR65       0.1605
     66  C        -19.6500   10.3710    5.0870 C.2    65  TYR65       0.2264
     67  O        -20.2870    9.3280    5.1200 O.2    65  TYR65      -0.2867
     68  CB       -17.4200   10.5780    3.9280 C.3    65  TYR65       0.0534
     69  CG       -17.0860    9.1110    4.1130 C.ar   65  TYR65      -0.0201
     70  CD1      -17.0220    8.2510    3.0170 C.ar   65  TYR65      -0.0009
     71  CD2      -16.9450    8.5570    5.3960 C.ar   65  TYR65      -0.0009
     72  CE1      -16.7420    6.8930    3.1740 C.ar   65  TYR65       0.0417
     73  CE2      -16.6700    7.2070    5.5750 C.ar   65  TYR65       0.0417
     74  CZ       -16.5820    6.3720    4.4650 C.ar   65  TYR65       0.1957
     75  OH       -16.3280    5.0330    4.6170 O.3    65  TYR65      -0.2866
     76  N        -17.4860    0.9830    1.7410 N.3   104  CYS104     -0.1235
     77  CA       -16.9240    1.4160    0.4830 C.3   104  CYS104      0.1677
     78  C        -17.9450    1.2170   -0.6730 C.2   104  CYS104      0.2270
     79  O        -18.1280    2.0770   -1.5100 O.2   104  CYS104     -0.2867
     80  CB       -15.6300    0.6570    0.2420 C.3   104  CYS104      0.0956
     81  SG       -14.7520    1.2270   -1.2120 S.3   104  CYS104     -0.0801
     82  N        -20.8590    3.8930   -0.2230 N.3   107  TYR107     -0.1227
     83  CA       -20.5370    5.2750   -0.5110 C.3   107  TYR107      0.1736
     84  C        -20.2980    5.4900   -2.0050 C.2   107  TYR107      0.2595
     85  O        -20.6610    6.5290   -2.5400 O.2   107  TYR107     -0.2718
     86  CB       -19.3700    5.7660    0.3660 C.3   107  TYR107      0.0548
     87  CG       -19.0000    7.1940    0.1040 C.ar  107  TYR107     -0.0200
     88  CD1      -19.7870    8.2510    0.5750 C.ar  107  TYR107     -0.0009
     89  CD2      -17.8760    7.5070   -0.6330 C.ar  107  TYR107     -0.0009
     90  CE1      -19.4340    9.5710    0.3080 C.ar  107  TYR107      0.0417
     91  CE2      -17.5270    8.8190   -0.9070 C.ar  107  TYR107      0.0417
     92  CZ       -18.3180    9.8530   -0.4360 C.ar  107  TYR107      0.1957
     93  OH       -17.9890   11.1510   -0.7460 O.3   107  TYR107     -0.2866
     94  N        -19.6770    4.5190   -2.6710 N.am  108  ASN108     -0.1974
     95  CA       -19.2110    4.6740   -4.0440 C.3   108  ASN108      0.1688
     96  C        -20.1310    3.8820   -4.9800 C.2   108  ASN108      0.2292
     97  O        -21.1840    3.4200   -4.5450 O.2   108  ASN108     -0.2864
     98  CB       -17.7480    4.2350   -4.1060 C.3   108  ASN108      0.1181
     99  CG       -16.8670    5.0410   -3.1480 C.2   108  ASN108      0.2629
    100  OD1      -16.5580    6.1970   -3.4100 O.2   108  ASN108     -0.2716
    101  ND2      -16.4740    4.4450   -2.0250 N.am  108  ASN108     -0.0877
    102  N        -12.7120    3.3380   -9.1090 N.3   113  ASP113     -0.1225
    103  CA       -11.3920    2.8170   -8.7060 C.3   113  ASP113      0.1805
    104  C        -11.3340    2.3110   -7.2640 C.2   113  ASP113      0.2597
    105  O        -10.7370    1.2620   -6.9780 O.2   113  ASP113     -0.2718
    106  CB       -10.3100    3.8850   -8.8440 C.3   113  ASP113      0.1424
    107  CG        -9.7590    4.0050  -10.2560 C.2   113  ASP113      0.3668
    108  OD1       -9.8460    3.0600  -11.0530 O.co2 113  ASP113     -0.2456
    109  OD2       -9.2000    5.0700  -10.5480 O.co2 113  ASP113     -0.2456
    110  N        -11.9180    3.0640   -6.3460 N.am  114  ILE114     -0.1980
    111  CA       -11.8750    2.6850   -4.9340 C.3   114  ILE114      0.1595
    112  C        -12.6350    1.3740   -4.7120 C.2   114  ILE114      0.2287
    113  O        -12.2400    0.5470   -3.8940 O.2   114  ILE114     -0.2864
    114  CB       -12.4040    3.8160   -4.0210 C.3   114  ILE114      0.0276
    115  CG1      -12.1360    3.4930   -2.5420 C.3   114  ILE114      0.0022
    116  CG2      -13.8850    4.0880   -4.2590 C.3   114  ILE114      0.0022
    117  CD1      -10.7080    3.6860   -2.0800 C.3   114  ILE114      0.0001
    118  N        -10.5010   -1.5240   -5.9050 N.3   117  MET117     -0.1245
    119  CA        -9.5280   -1.7830   -4.8380 C.3   117  MET117      0.1570
    120  C        -10.1550   -2.6250   -3.7270 C.2   117  MET117      0.2261
    121  O         -9.5710   -3.6180   -3.2920 O.2   117  MET117     -0.2867
    122  CB        -8.9570   -0.4770   -4.2290 C.3   117  MET117      0.0387
    123  CG        -7.8680    0.2240   -5.0530 C.3   117  MET117      0.0595
    124  SD        -6.6800    1.2860   -4.1490 S.3   117  MET117     -0.1393
    125  CE        -5.7440    1.9750   -5.5010 C.3   117  MET117      0.0692
@<TRIPOS>BOND
     1   108   107   ar
     2   109   107   ar
     3   107   106    1
     4   102   103    1
     5   106   103    1
     6   103   104    1
     7   104   105    2
     8   104   110   am
     9   110   111    1
    10   118   119    1
    11   125   124    1
    12   123   122    1
    13   123   124    1
    14    96    97    2
    15    96    95    1
    16   111   112    1
    17   111   114    1
    18   119   122    1
    19   119   120    1
    20   112   113    2
    21   116   114    1
    22    98    95    1
    23    98    99    1
    24    95    94    1
    25   114   115    1
    26   120   121    2
    27    12    14   ar
    28    12    10   ar
    29   100    99    2
    30     9    10   ar
    31     9     7   ar
    32    99   101   am
    33    14    13   ar
    34    10     8   ar
    35    94    84   am
    36   115   117    1
    37    85    84    2
    38    55    53   am
    39     7     6   ar
    40    84    83    1
    41    13    11   ar
    42    79    78    2
    43     8     6   ar
    44     8    11   ar
    45    53    52    1
    46    53    54    2
    47    81    80    1
    48    20    21    1
    49    20    19    1
    50    51    50    2
    51    63    61    1
    52    52    49    1
    53     6     5    1
    54    91    89   ar
    55    91    92   ar
    56    43    42    2
    57    93    92    1
    58    78    77    1
    59    89    87   ar
    60    83    82    1
    61    83    86    1
    62    21    15    1
    63    92    90   ar
    64    31    32   ar
    65    31    29   ar
    66    32    30   ar
    67    50    49    1
    68    50    56   am
    69    19    16    1
    70    87    86    1
    71    87    88   ar
    72    80    77    1
    73    42    48   am
    74    42    41    1
    75    49    48    1
    76    90    88   ar
    77     5     2    1
    78    77    76    1
    79    61    62    1
    80    61    60    1
    81     1     2    1
    82    15    16    1
    83    15     3   am
    84    47    45    1
    85    41    44    1
    86    41    40    1
    87    29    27   ar
    88    57    56    1
    89    57    60    1
    90    57    58    1
    91    30    28   ar
    92    44    45    1
    93    16    17    1
    94     2     3    1
    95     3     4    2
    96    45    46    1
    97    58    59    2
    98    27    28   ar
    99    27    26    1
   100    17    22   am
   101    17    18    2
   102    22    23    1
   103    70    72   ar
   104    70    69   ar
   105    72    74   ar
   106    64    65    1
   107    26    23    1
   108    65    68    1
   109    65    66    1
   110    68    69    1
   111    23    24    1
   112    69    71   ar
   113    74    75    1
   114    74    73   ar
   115    38    37    1
   116    39    37    1
   117    66    67    2
   118    24    25    2
   119    71    73   ar
   120    37    34    1
   121    34    35    1
   122    34    33    1
   123    35    36    2
