@<TRIPOS>MOLECULE
tmp/5y94A00.pdb
 117 114 0 0 0
SMALL
GASTEIGER

@<TRIPOS>ATOM
      1  N         -0.6210    2.6290    5.1790 N.3    40  TRP40      -0.1228
      2  CA        -0.3820    3.9020    5.8070 C.3    40  TRP40       0.1722
      3  C         -1.5830    4.8730    5.8640 C.2    40  TRP40       0.2437
      4  O         -1.7420    5.5660    6.8960 O.2    40  TRP40      -0.2733
      5  CB         0.8750    4.5970    5.2440 C.3    40  TRP40       0.0563
      6  CG         0.7760    4.9520    3.7760 C.ar   40  TRP40       0.0003
      7  CD1        1.2090    4.1740    2.7270 C.ar   40  TRP40       0.0946
      8  CD2        0.1760    6.1170    3.1890 C.ar   40  TRP40       0.0152
      9  NE1        0.9590    4.8090    1.5340 N.ar   40  TRP40      -0.2442
     10  CE2        0.3170    5.9920    1.7780 C.ar   40  TRP40       0.0810
     11  CE3       -0.4470    7.2750    3.7140 C.ar   40  TRP40       0.0012
     12  CZ2       -0.1740    6.9710    0.8710 C.ar   40  TRP40       0.0191
     13  CZ3       -0.9090    8.2630    2.8300 C.ar   40  TRP40       0.0001
     14  CH2       -0.7730    8.1070    1.4220 C.ar   40  TRP40       0.0015
     15  N         -2.4700    4.8770    4.8360 N.am   41  PRO41      -0.2718
     16  CA        -3.6370    5.7950    4.9650 C.3    41  PRO41       0.1535
     17  C         -4.6840    5.2790    5.9470 C.2    41  PRO41       0.2598
     18  O         -5.5720    6.0230    6.3110 O.2    41  PRO41      -0.2715
     19  CB        -4.2460    5.8620    3.5400 C.3    41  PRO41       0.0310
     20  CG        -3.3060    5.0490    2.6580 C.3    41  PRO41       0.0237
     21  CD        -2.5040    4.1300    3.5820 C.3    41  PRO41       0.0939
     22  N         -4.5740    4.0100    6.3440 N.am   42  PHE42      -0.1974
     23  CA        -5.5610    3.3350    7.1870 C.3    42  PHE42       0.1639
     24  C         -5.0690    3.0350    8.5810 C.2    42  PHE42       0.2290
     25  O         -5.8090    2.3930    9.3360 O.2    42  PHE42      -0.2864
     26  CB        -5.9590    2.0250    6.5430 C.3    42  PHE42       0.0560
     27  CG        -6.3670    2.1870    5.1190 C.ar   42  PHE42      -0.0200
     28  CD1       -7.6210    2.6410    4.8140 C.ar   42  PHE42      -0.0042
     29  CD2       -5.4300    1.9620    4.0450 C.ar   42  PHE42      -0.0042
     30  CE1       -8.0190    2.7990    3.4830 C.ar   42  PHE42      -0.0003
     31  CE2       -5.8440    2.1310    2.6940 C.ar   42  PHE42      -0.0003
     32  CZ        -7.1300    2.5580    2.4170 C.ar   42  PHE42      -0.0000
     33  N         -9.0920    9.0850    9.9200 N.3    46  VAL46      -0.1245
     34  CA        -8.9650   10.1460    8.9400 C.3    46  VAL46       0.1561
     35  C         -8.9430   11.5130    9.6500 C.2    46  VAL46       0.2260
     36  O         -9.8240   11.8320   10.4640 O.2    46  VAL46      -0.2867
     37  CB       -10.0620   10.0840    7.8670 C.3    46  VAL46       0.0252
     38  CG1      -10.0400   11.3350    6.9800 C.3    46  VAL46       0.0019
     39  CG2       -9.9200    8.8140    7.0190 C.3    46  VAL46       0.0019
     40  N         -5.6110   16.3950    6.2450 N.3    51  LEU51      -0.1245
     41  CA        -5.6800   15.8990    4.8370 C.3    51  LEU51       0.1561
     42  C         -6.4510   16.8050    3.8800 C.2    51  LEU51       0.2260
     43  O         -6.6170   16.4510    2.6900 O.2    51  LEU51      -0.2867
     44  CB        -6.2320   14.4970    4.7970 C.3    51  LEU51       0.0270
     45  CG        -5.4440   13.4680    5.6550 C.3    51  LEU51       0.0019
     46  CD1       -6.1990   12.1330    5.7300 C.3    51  LEU51       0.0001
     47  CD2       -4.0460   13.2200    5.1560 C.3    51  LEU51       0.0001
     48  N         -9.7830   17.3630    3.7980 N.3    53  LEU53      -0.1245
     49  CA       -10.9350   16.6490    3.2980 C.3    53  LEU53       0.1561
     50  C        -12.1840   17.1300    4.0570 C.2    53  LEU53       0.2260
     51  O        -12.7570   16.3750    4.8830 O.2    53  LEU53      -0.2867
     52  CB       -10.7190   15.1580    3.4940 C.3    53  LEU53       0.0270
     53  CG        -9.5550   14.4250    2.8580 C.3    53  LEU53       0.0019
     54  CD1       -9.5270   13.0030    3.4040 C.3    53  LEU53       0.0001
     55  CD2       -9.6710   14.4700    1.3400 C.3    53  LEU53       0.0001
     56  N        -15.2970   14.8370    4.3160 N.3    56  TYR56      -0.1241
     57  CA       -15.1310   13.4260    4.6780 C.3    56  TYR56       0.1605
     58  C        -16.2230   12.9960    5.6960 C.2    56  TYR56       0.2264
     59  O        -16.9700   12.0460    5.4850 O.2    56  TYR56      -0.2867
     60  CB       -13.7390   13.1040    5.2080 C.3    56  TYR56       0.0534
     61  CG       -13.6020   11.6290    5.4110 C.ar   56  TYR56      -0.0201
     62  CD1      -13.2620   10.7820    4.3430 C.ar   56  TYR56      -0.0009
     63  CD2      -13.8800   11.0350    6.6320 C.ar   56  TYR56      -0.0009
     64  CE1      -13.1160    9.4160    4.5240 C.ar   56  TYR56       0.0417
     65  CE2      -13.7630    9.6540    6.8240 C.ar   56  TYR56       0.0417
     66  CZ       -13.3740    8.8440    5.7730 C.ar   56  TYR56       0.1957
     67  OH       -13.3550    7.4640    5.9390 O.3    56  TYR56      -0.2866
     68  N        -14.0270    3.7150    2.5310 N.3    95  CYS95      -0.1235
     69  CA       -13.1110    4.1480    1.4780 C.3    95  CYS95       0.1677
     70  C        -13.8310    4.1500    0.1190 C.2    95  CYS95       0.2270
     71  O        -13.7760    5.1500   -0.6120 O.2    95  CYS95      -0.2867
     72  CB       -11.8880    3.2180    1.4410 C.3    95  CYS95       0.0956
     73  SG       -10.5300    3.7970    0.3850 S.3    95  CYS95      -0.0801
     74  N        -16.5080    6.9820   -0.0520 N.3    98  TYR98      -0.1227
     75  CA       -16.0730    8.3810   -0.1500 C.3    98  TYR98       0.1736
     76  C        -15.3860    8.6570   -1.4850 C.2    98  TYR98       0.2595
     77  O        -15.4820    9.7400   -2.0380 O.2    98  TYR98      -0.2718
     78  CB       -15.1480    8.7130    0.9960 C.3    98  TYR98       0.0548
     79  CG       -14.6070   10.1270    0.9350 C.ar   98  TYR98      -0.0200
     80  CD1      -15.4330   11.2420    1.2090 C.ar   98  TYR98      -0.0009
     81  CD2      -13.2590   10.3450    0.6030 C.ar   98  TYR98      -0.0009
     82  CE1      -14.9230   12.5420    1.1090 C.ar   98  TYR98       0.0417
     83  CE2      -12.7450   11.6160    0.5070 C.ar   98  TYR98       0.0417
     84  CZ       -13.5740   12.7140    0.7840 C.ar   98  TYR98       0.1957
     85  OH       -12.9940   13.9550    0.6350 O.3    98  TYR98      -0.2866
     86  N        -14.6430    7.6910   -1.9820 N.am   99  ASN99      -0.1974
     87  CA       -13.8630    7.9080   -3.1820 C.3    99  ASN99       0.1688
     88  C        -14.5500    7.3500   -4.4420 C.2    99  ASN99       0.2292
     89  O        -15.7530    6.9510   -4.3900 O.2    99  ASN99      -0.2864
     90  CB       -12.4920    7.3340   -2.9770 C.3    99  ASN99       0.1181
     91  CG       -11.7970    7.9300   -1.7670 C.2    99  ASN99       0.2629
     92  OD1      -11.2050    8.9860   -1.8980 O.2    99  ASN99      -0.2716
     93  ND2      -11.7720    7.1830   -0.5920 N.am   99  ASN99      -0.0877
     94  N         -6.5390    5.9260   -6.5940 N.3   104  ASP104     -0.1225
     95  CA        -5.3450    5.3330   -6.0170 C.3   104  ASP104      0.1805
     96  C         -5.7070    4.6460   -4.6500 C.2   104  ASP104      0.2597
     97  O         -5.3060    3.5450   -4.3800 O.2   104  ASP104     -0.2718
     98  CB        -4.2450    6.4100   -5.7500 C.3   104  ASP104      0.1424
     99  CG        -3.7450    7.1600   -7.0370 C.2   104  ASP104      0.3668
    100  OD1       -3.2270    6.5190   -7.9550 O.co2 104  ASP104     -0.2456
    101  OD2       -3.8370    8.4160   -7.0770 O.co2 104  ASP104     -0.2456
    102  N         -6.4190    5.3700   -3.7820 N.am  105  ILE105     -0.1980
    103  CA        -6.7190    4.8950   -2.4180 C.3   105  ILE105      0.1595
    104  C         -7.6610    3.6980   -2.4550 C.2   105  ILE105      0.2287
    105  O         -7.5410    2.7610   -1.6560 O.2   105  ILE105     -0.2864
    106  CB        -7.3150    6.0510   -1.5620 C.3   105  ILE105      0.0276
    107  CG1       -7.3870    5.6870   -0.1020 C.3   105  ILE105      0.0022
    108  CG2       -8.6660    6.5010   -2.0670 C.3   105  ILE105      0.0022
    109  CD1       -6.1350    5.8240    0.6160 C.3   105  ILE105      0.0001
    110  N         -5.6840    0.6790   -3.3480 N.3   108  MET108     -0.1245
    111  CA        -5.0090    0.2150   -2.1400 C.3   108  MET108      0.1570
    112  C         -5.9450   -0.5410   -1.1630 C.2   108  MET108      0.2261
    113  O         -5.5950   -1.6010   -0.6480 O.2   108  MET108     -0.2867
    114  CB        -4.2640    1.3450   -1.4650 C.3   108  MET108      0.0387
    115  CG        -3.1150    1.9100   -2.3350 C.3   108  MET108      0.0595
    116  SD        -2.6050    3.5410   -1.7730 S.3   108  MET108     -0.1393
    117  CE        -1.7240    3.2440   -0.2150 C.3   108  MET108      0.0692
@<TRIPOS>BOND
     1   100    99   ar
     2   101    99   ar
     3    99    98    1
     4    94    95    1
     5    95    98    1
     6    95    96    1
     7    96    97    2
     8    96   102   am
     9    88    89    2
    10    88    87    1
    11   102   103    1
    12   110   111    1
    13    87    90    1
    14    87    86    1
    15    90    91    1
    16   104   103    1
    17   104   105    2
    18   103   106    1
    19   115   116    1
    20   115   114    1
    21   111   114    1
    22   111   112    1
    23   108   106    1
    24    77    76    2
    25    86    76   am
    26    92    91    2
    27   116   117    1
    28    91    93   am
    29   106   107    1
    30    76    75    1
    31   112   113    2
    32    71    70    2
    33    75    74    1
    34    75    78    1
    35   107   109    1
    36    70    69    1
    37    73    72    1
    38    83    81   ar
    39    83    84   ar
    40    81    79   ar
    41    85    84    1
    42    84    82   ar
    43    12    14   ar
    44    12    10   ar
    45    79    78    1
    46    79    80   ar
    47    82    80   ar
    48    55    53    1
    49    14    13   ar
    50    72    69    1
    51    69    68    1
    52     9    10   ar
    53     9     7   ar
    54    10     8   ar
    55    32    31   ar
    56    32    30   ar
    57    20    19    1
    58    20    21    1
    59    43    42    2
    60    31    29   ar
    61     7     6   ar
    62    13    11   ar
    63    53    54    1
    64    53    52    1
    65     8    11   ar
    66     8     6   ar
    67    49    52    1
    68    49    48    1
    69    49    50    1
    70    30    28   ar
    71    19    16    1
    72    21    15    1
    73     6     5    1
    74    42    41    1
    75    29    27   ar
    76    50    51    2
    77    56    57    1
    78    62    64   ar
    79    62    61   ar
    80    64    66   ar
    81    57    60    1
    82    57    58    1
    83    44    41    1
    84    44    45    1
    85    28    27   ar
    86    15    16    1
    87    15     3   am
    88    41    40    1
    89    16    17    1
    90    27    26    1
    91    47    45    1
    92     1     2    1
    93    60    61    1
    94     5     2    1
    95    61    63   ar
    96    59    58    2
    97    45    46    1
    98    66    67    1
    99    66    65   ar
   100     2     3    1
   101     3     4    2
   102    17    18    2
   103    17    22   am
   104    22    23    1
   105    26    23    1
   106    63    65   ar
   107    38    37    1
   108    39    37    1
   109    23    24    1
   110    37    34    1
   111    24    25    2
   112    34    35    1
   113    34    33    1
   114    35    36    2
