@<TRIPOS>MOLECULE
tmp/5y95A00.pdb
 173 168 0 0 0
SMALL
GASTEIGER

@<TRIPOS>ATOM
      1  N         10.4310   -0.0010    5.5090 N.3    12  ASP12      -0.1225
      2  CA         9.6450    1.1450    5.0750 C.3    12  ASP12       0.1805
      3  C          8.1630    0.7870    4.9900 C.2    12  ASP12       0.2597
      4  O          7.3530    1.5370    4.4420 O.2    12  ASP12      -0.2718
      5  CB        10.1660    1.6680    3.7200 C.3    12  ASP12       0.1424
      6  CG        10.3070    0.5900    2.6470 C.2    12  ASP12       0.3668
      7  OD1       10.6140   -0.5750    2.9900 O.co2  12  ASP12      -0.2456
      8  OD2       10.1560    0.9170    1.4520 O.co2  12  ASP12      -0.2456
      9  N          7.8110   -0.3470    5.5730 N.am   13  ALA13      -0.1979
     10  CA         6.4370   -0.8240    5.5770 C.3    13  ALA13       0.1597
     11  C          5.5240    0.1120    6.3670 C.2    13  ALA13       0.2287
     12  O          4.4170    0.4340    5.9340 O.2    13  ALA13      -0.2864
     13  CB         6.3880   -2.2250    6.1560 C.3    13  ALA13       0.0319
     14  N          4.6880    3.8540    4.3880 N.3    16  TYR16      -0.1227
     15  CA         3.5690    3.9400    3.4540 C.3    16  TYR16       0.1736
     16  C          2.2410    3.6630    4.1570 C.2    16  TYR16       0.2595
     17  O          1.2100    4.2240    3.7890 O.2    16  TYR16      -0.2718
     18  CB         3.7830    2.9580    2.2940 C.3    16  TYR16       0.0548
     19  CG         2.5830    2.7740    1.3750 C.ar   16  TYR16      -0.0200
     20  CD1        1.6230    1.7960    1.6270 C.ar   16  TYR16      -0.0009
     21  CD2        2.4190    3.5690    0.2470 C.ar   16  TYR16      -0.0009
     22  CE1        0.5410    1.6210    0.7870 C.ar   16  TYR16       0.0417
     23  CE2        1.3360    3.3980   -0.5980 C.ar   16  TYR16       0.0417
     24  CZ         0.4000    2.4230   -0.3220 C.ar   16  TYR16       0.1957
     25  OH        -0.6790    2.2510   -1.1570 O.3    16  TYR16      -0.2866
     26  N          2.2810    2.8080    5.1740 N.am   17  LEU17      -0.1980
     27  CA         1.0860    2.4390    5.9350 C.3    17  LEU17       0.1596
     28  C          0.3750    3.6710    6.4920 C.2    17  LEU17       0.2287
     29  O         -0.8170    3.8620    6.2690 O.2    17  LEU17      -0.2864
     30  CB         1.4640    1.4950    7.0840 C.3    17  LEU17       0.0297
     31  CG         0.5720    0.2550    7.2400 C.3    17  LEU17       0.0022
     32  CD1       -0.8610    0.6440    7.5800 C.3    17  LEU17       0.0001
     33  CD2        0.6050   -0.5940    5.9760 C.3    17  LEU17       0.0001
     34  N         -8.8900    0.0140    2.4060 N.3    34  PHE34      -0.1241
     35  CA        -7.4730   -0.3330    2.3530 C.3    34  PHE34       0.1605
     36  C         -7.1440   -1.3710    3.4250 C.2    34  PHE34       0.2264
     37  O         -6.4250   -2.3420    3.1700 O.2    34  PHE34      -0.2867
     38  CB        -6.6260    0.9340    2.5480 C.3    34  PHE34       0.0534
     39  CG        -5.1530    0.6820    2.7130 C.ar   34  PHE34      -0.0203
     40  CD1       -4.5540    0.8050    3.9560 C.ar   34  PHE34      -0.0042
     41  CD2       -4.3660    0.3320    1.6260 C.ar   34  PHE34      -0.0042
     42  CE1       -3.2010    0.5820    4.1120 C.ar   34  PHE34      -0.0003
     43  CE2       -3.0100    0.1070    1.7790 C.ar   34  PHE34      -0.0003
     44  CZ        -2.4290    0.2320    3.0220 C.ar   34  PHE34      -0.0000
     45  N         -8.5840   -4.9130    2.5560 N.3    37  ILE37      -0.1231
     46  CA        -7.7620   -5.6350    1.6010 C.3    37  ILE37       0.1692
     47  C         -6.5360   -6.2270    2.2970 C.2    37  ILE37       0.2591
     48  O         -6.0970   -7.3320    1.9750 O.2    37  ILE37      -0.2718
     49  CB        -7.3220   -4.7170    0.4420 C.3    37  ILE37       0.0266
     50  CG1       -8.5460   -4.0640   -0.2060 C.3    37  ILE37       0.0019
     51  CG2       -6.5280   -5.5040   -0.5930 C.3    37  ILE37       0.0020
     52  CD1       -8.2120   -2.8670   -1.0670 C.3    37  ILE37       0.0001
     53  N         -6.0050   -5.4930    3.2740 N.am   38  MET38      -0.1979
     54  CA        -4.8460   -5.9440    4.0350 C.3    38  MET38       0.1605
     55  C         -5.1900   -7.2020    4.8220 C.2    38  MET38       0.2287
     56  O         -4.3680   -8.1060    4.9610 O.2    38  MET38      -0.2864
     57  CB        -4.3730   -4.8580    5.0060 C.3    38  MET38       0.0413
     58  CG        -3.6740   -3.6820    4.3430 C.3    38  MET38       0.0598
     59  SD        -2.9940   -2.5240    5.5500 S.3    38  MET38      -0.1393
     60  CE        -1.7810   -3.5540    6.3740 C.3    38  MET38       0.0692
     61  N         -4.8840  -10.3740    2.8940 N.3    41  PHE41      -0.1227
     62  CA        -3.4990  -10.7860    2.7520 C.3    41  PHE41       0.1736
     63  C         -3.0090  -11.4070    4.0580 C.2    41  PHE41       0.2595
     64  O         -2.2180  -12.3520    4.0530 O.2    41  PHE41      -0.2718
     65  CB        -2.6160   -9.6000    2.3560 C.3    41  PHE41       0.0547
     66  CG        -1.1970   -9.9970    2.0420 C.ar   41  PHE41      -0.0202
     67  CD1       -0.1470   -9.5670    2.8380 C.ar   41  PHE41      -0.0042
     68  CD2       -0.9180  -10.8150    0.9570 C.ar   41  PHE41      -0.0042
     69  CE1        1.1550   -9.9420    2.5580 C.ar   41  PHE41      -0.0003
     70  CE2        0.3800  -11.1930    0.6690 C.ar   41  PHE41      -0.0003
     71  CZ         1.4190  -10.7570    1.4710 C.ar   41  PHE41      -0.0000
     72  N         -3.4850  -10.8670    5.1790 N.am   42  LYS42      -0.1980
     73  CA        -3.1240  -11.3820    6.4980 C.3    42  LYS42       0.1596
     74  C         -3.6930  -12.7850    6.6970 C.2    42  LYS42       0.2287
     75  O         -3.1890  -13.5670    7.5000 O.2    42  LYS42      -0.2864
     76  CB        -3.6380  -10.4510    7.6020 C.3    42  LYS42       0.0298
     77  CG        -2.9250   -9.1070    7.6530 C.3    42  LYS42       0.0038
     78  CD        -3.5800   -8.1630    8.6500 C.3    42  LYS42       0.0206
     79  CE        -3.2710   -8.5550   10.0840 C.3    42  LYS42       0.1093
     80  NZ        -4.0820   -7.7780   11.0600 N.3    42  LYS42      -0.1314
     81  N          0.7360  -11.9670   -3.8950 N.3    48  THR48      -0.1218
     82  CA         1.2560  -10.7190   -4.4180 C.3    48  THR48       0.1862
     83  C          0.3800  -10.1880   -5.5640 C.2    48  THR48       0.2287
     84  O         -0.1870   -9.1050   -5.4440 O.2    48  THR48      -0.2866
     85  CB         2.7160  -10.8800   -4.8830 C.3    48  THR48       0.1770
     86  OG1        3.4010  -11.8040   -4.0250 O.3    48  THR48      -0.2211
     87  CG2        3.4310   -9.5430   -4.8650 C.3    48  THR48       0.0375
     88  N         -3.2870   -9.0860   -4.2590 N.3    51  VAL51      -0.1231
     89  CA        -3.4830   -7.8130   -3.5670 C.3    51  VAL51       0.1692
     90  C         -3.3510   -6.6380   -4.5380 C.2    51  VAL51       0.2591
     91  O         -4.1010   -5.6650   -4.4500 O.2    51  VAL51      -0.2718
     92  CB        -2.5050   -7.6430   -2.3740 C.3    51  VAL51       0.0266
     93  CG1       -1.0580   -7.5760   -2.8290 C.3    51  VAL51       0.0020
     94  CG2       -2.8660   -6.4180   -1.5530 C.3    51  VAL51       0.0020
     95  N         -2.4310   -6.7610   -5.4900 N.am   52  ILE52      -0.1980
     96  CA        -2.1980   -5.7150   -6.4810 C.3    52  ILE52       0.1595
     97  C         -3.4690   -5.4180   -7.2760 C.2    52  ILE52       0.2287
     98  O         -3.7770   -4.2570   -7.5660 O.2    52  ILE52      -0.2864
     99  CB        -1.0600   -6.1010   -7.4560 C.3    52  ILE52       0.0276
    100  CG1        0.2350   -6.3540   -6.6820 C.3    52  ILE52       0.0022
    101  CG2       -0.8470   -5.0090   -8.4980 C.3    52  ILE52       0.0022
    102  CD1        1.2740   -7.1210   -7.4700 C.3    52  ILE52       0.0001
    103  N         -5.7310   -3.1920   -5.1730 N.3    55  VAL55      -0.1245
    104  CA        -5.1850   -1.8380   -5.0820 C.3    55  VAL55       0.1561
    105  C         -5.4110   -1.0690   -6.3820 C.2    55  VAL55       0.2260
    106  O         -5.7240    0.1220   -6.3640 O.2    55  VAL55      -0.2867
    107  CB        -3.6700   -1.8510   -4.7600 C.3    55  VAL55       0.0252
    108  CG1       -3.1880   -0.4540   -4.4050 C.3    55  VAL55       0.0019
    109  CG2       -3.3670   -2.8150   -3.6250 C.3    55  VAL55       0.0019
    110  N         -7.3040    2.4160   -5.5780 N.3    59  PHE59      -0.1241
    111  CA        -6.5570    3.6350   -5.8300 C.3    59  PHE59       0.1605
    112  C         -6.4170    3.8630   -7.3300 C.2    59  PHE59       0.2264
    113  O         -5.3320    4.1480   -7.8280 O.2    59  PHE59      -0.2867
    114  CB        -5.1720    3.5630   -5.1700 C.3    59  PHE59       0.0534
    115  CG        -5.2200    3.4050   -3.6760 C.ar   59  PHE59      -0.0203
    116  CD1       -6.1140    4.1410   -2.9150 C.ar   59  PHE59      -0.0042
    117  CD2       -4.3700    2.5230   -3.0330 C.ar   59  PHE59      -0.0042
    118  CE1       -6.1570    3.9950   -1.5430 C.ar   59  PHE59      -0.0003
    119  CE2       -4.4100    2.3730   -1.6620 C.ar   59  PHE59      -0.0003
    120  CZ        -5.3060    3.1100   -0.9160 C.ar   59  PHE59      -0.0000
    121  N          0.4850    5.5140   -5.7620 N.3    65  LEU65      -0.1231
    122  CA         0.5270    4.6700   -4.5760 C.3    65  LEU65       0.1693
    123  C          0.8730    3.2300   -4.9360 C.2    65  LEU65       0.2591
    124  O          1.6940    2.5970   -4.2740 O.2    65  LEU65      -0.2718
    125  CB        -0.8160    4.7210   -3.8470 C.3    65  LEU65       0.0284
    126  CG        -1.2050    6.0950   -3.2920 C.3    65  LEU65       0.0019
    127  CD1       -2.5800    6.0440   -2.6480 C.3    65  LEU65       0.0001
    128  CD2       -0.1740    6.5810   -2.2860 C.3    65  LEU65       0.0001
    129  N          0.2690    2.7360   -6.0060 N.am   66  ILE66      -0.1980
    130  CA         0.4940    1.3660   -6.4500 C.3    66  ILE66       0.1595
    131  C          1.8770    1.2140   -7.0790 C.2    66  ILE66       0.2287
    132  O          2.5720    0.2160   -6.8560 O.2    66  ILE66      -0.2864
    133  CB        -0.5720    0.9250   -7.4750 C.3    66  ILE66       0.0276
    134  CG1       -1.9290    1.5630   -7.1490 C.3    66  ILE66       0.0022
    135  CG2       -0.6880   -0.5960   -7.4970 C.3    66  ILE66       0.0022
    136  CD1       -2.9750    1.3650   -8.2250 C.3    66  ILE66       0.0001
    137  N          4.6670    1.5620   -4.4730 N.3    69  PHE69      -0.1241
    138  CA         4.7030    0.3770   -3.6230 C.3    69  PHE69       0.1605
    139  C          5.6200   -0.6970   -4.2110 C.2    69  PHE69       0.2264
    140  O          6.1650   -1.5240   -3.4830 O.2    69  PHE69      -0.2867
    141  CB         3.2900   -0.1810   -3.4360 C.3    69  PHE69       0.0534
    142  CG         3.2410   -1.4160   -2.5800 C.ar   69  PHE69      -0.0203
    143  CD1        3.6440   -1.3750   -1.2550 C.ar   69  PHE69      -0.0042
    144  CD2        2.7990   -2.6190   -3.1050 C.ar   69  PHE69      -0.0042
    145  CE1        3.6070   -2.5120   -0.4730 C.ar   69  PHE69      -0.0003
    146  CE2        2.7590   -3.7570   -2.3250 C.ar   69  PHE69      -0.0003
    147  CZ         3.1650   -3.7020   -1.0080 C.ar   69  PHE69      -0.0000
    148  N          8.6920    0.1870   -2.8330 N.3    72  PHE72      -0.1227
    149  CA         8.5590    0.2370   -1.3830 C.3    72  PHE72       0.1736
    150  C          8.3770   -1.1660   -0.8160 C.2    72  PHE72       0.2595
    151  O          7.6990   -1.3680    0.1930 O.2    72  PHE72      -0.2718
    152  CB         7.3880    1.1350   -0.9820 C.3    72  PHE72       0.0547
    153  CG         7.8160    2.3920   -0.2780 C.ar   72  PHE72      -0.0202
    154  CD1        8.8320    3.1790   -0.7950 C.ar   72  PHE72      -0.0042
    155  CD2        7.2010    2.7880    0.8970 C.ar   72  PHE72      -0.0042
    156  CE1        9.2250    4.3370   -0.1540 C.ar   72  PHE72      -0.0003
    157  CE2        7.5900    3.9440    1.5430 C.ar   72  PHE72      -0.0003
    158  CZ         8.6030    4.7190    1.0170 C.ar   72  PHE72      -0.0000
    159  N          8.9840   -2.1330   -1.4870 N.am   73  LEU73      -0.1966
    160  CA         8.9230   -3.5200   -1.0660 C.3    73  LEU73       0.1713
    161  C         10.3360   -4.0320   -0.8250 C.2    73  LEU73       0.2458
    162  O         11.1070   -4.1930   -1.7720 O.2    73  LEU73      -0.2730
    163  CB         8.2250   -4.3810   -2.1280 C.3    73  LEU73       0.0310
    164  CG         6.7170   -4.5490   -1.9470 C.3    73  LEU73       0.0022
    165  CD1        6.1030   -5.1880   -3.1820 C.3    73  LEU73       0.0001
    166  CD2        6.4100   -5.3870   -0.7110 C.3    73  LEU73       0.0001
    167  N         10.7160   -4.2510    0.4470 N.am   74  PRO74      -0.2727
    168  CA        12.0500   -4.7430    0.7930 C.3    74  PRO74       0.1402
    169  C         12.3370   -6.0980    0.1580 C.2    74  PRO74       0.2269
    170  O         13.3790   -6.2920   -0.4710 O.2    74  PRO74      -0.2865
    171  CB        12.0310   -4.8510    2.3220 C.3    74  PRO74       0.0296
    172  CG        10.5970   -4.7800    2.7230 C.3    74  PRO74       0.0237
    173  CD         9.8820   -4.0190    1.6410 C.3    74  PRO74       0.0939
@<TRIPOS>BOND
     1   101    99    1
     2   136   134    1
     3   113   112    2
     4    98    97    2
     5   135   133    1
     6   133   134    1
     7   133   130    1
     8   102   100    1
     9    99   100    1
    10    99    96    1
    11   112   111    1
    12    97    96    1
    13   131   132    2
    14   131   130    1
    15    96    95    1
    16   130   129    1
    17   105   106    2
    18   105   104    1
    19   129   123   am
    20   111   110    1
    21   111   114    1
    22   121   122    1
    23    83    84    2
    24    83    82    1
    25    95    90   am
    26   103   104    1
    27   114   115    1
    28   104   107    1
    29   123   122    1
    30   123   124    2
    31    85    87    1
    32    85    82    1
    33    85    86    1
    34   107   108    1
    35   107   109    1
    36   122   125    1
    37    90    91    2
    38    90    89    1
    39   137   138    1
    40    82    81    1
    41    88    89    1
    42   139   138    1
    43   139   140    2
    44   125   126    1
    45   115   117   ar
    46   115   116   ar
    47   138   141    1
    48    89    92    1
    49   141   142    1
    50   126   127    1
    51   126   128    1
    52   165   164    1
    53   144   142   ar
    54   144   146   ar
    55   117   119   ar
    56   116   118   ar
    57   148   149    1
    58    93    92    1
    59   142   143   ar
    60    92    94    1
    61   146   147   ar
    62   163   164    1
    63   163   160    1
    64   164   166    1
    65   162   161    2
    66   119   120   ar
    67   118   120   ar
    68   159   160    1
    69   159   150   am
    70   149   152    1
    71   149   150    1
    72   143   145   ar
    73    25    24    1
    74    52    50    1
    75   160   161    1
    76   147   145   ar
    77   152   153    1
    78   161   167   am
    79   150   151    2
    80   154   153   ar
    81   154   156   ar
    82    23    24   ar
    83    23    21   ar
    84    51    49    1
    85   170   169    2
    86    24    22   ar
    87   153   155   ar
    88    50    49    1
    89   156   158   ar
    90   169   168    1
    91    21    19   ar
    92    49    46    1
    93   167   168    1
    94   167   173    1
    95    70    68   ar
    96    70    71   ar
    97    22    20   ar
    98   168   171    1
    99   155   157   ar
   100    68    66   ar
   101   158   157   ar
   102    19    20   ar
   103    19    18    1
   104     8     6   ar
   105    71    69   ar
   106    46    47    1
   107    46    45    1
   108    41    43   ar
   109    41    39   ar
   110   173   172    1
   111    43    44   ar
   112    48    47    2
   113    66    65    1
   114    66    67   ar
   115    18    15    1
   116    47    53   am
   117   171   172    1
   118    35    34    1
   119    35    38    1
   120    35    36    1
   121    65    62    1
   122    38    39    1
   123    69    67   ar
   124     6     7   ar
   125     6     5    1
   126    39    40   ar
   127    62    61    1
   128    62    63    1
   129    44    42   ar
   130    37    36    2
   131    53    54    1
   132    15    16    1
   133    15    14    1
   134     5     2    1
   135    17    16    2
   136    40    42   ar
   137    54    55    1
   138    54    57    1
   139    64    63    2
   140    63    72   am
   141    16    26   am
   142    58    57    1
   143    58    59    1
   144     4     3    2
   145    55    56    2
   146     3     2    1
   147     3     9   am
   148     2     1    1
   149    26    27    1
   150    72    73    1
   151    59    60    1
   152     9    10    1
   153    10    13    1
   154    10    11    1
   155    12    11    2
   156    27    28    1
   157    27    30    1
   158    33    31    1
   159    29    28    2
   160    73    74    1
   161    73    76    1
   162    74    75    2
   163    30    31    1
   164    31    32    1
   165    76    77    1
   166    77    78    1
   167    78    79    1
   168    79    80    1
