@<TRIPOS>MOLECULE
tmp/5y97C01.pdb
 100 94 0 0 0
SMALL
GASTEIGER

@<TRIPOS>ATOM
      1  N         13.9170   28.8940  -12.0430 N.3    21  ASP21      -0.1225
      2  CA        13.0360   27.7580  -12.1040 C.3    21  ASP21       0.1805
      3  C         13.0990   27.1590  -13.5320 C.2    21  ASP21       0.2598
      4  O         12.8900   27.8490  -14.4820 O.2    21  ASP21      -0.2718
      5  CB        11.5880   28.2100  -11.8400 C.3    21  ASP21       0.1424
      6  CG        10.5940   27.0270  -11.8520 C.2    21  ASP21       0.3668
      7  OD1       10.9410   25.9120  -12.2670 O.co2  21  ASP21      -0.2456
      8  OD2        9.4580   27.2220  -11.4220 O.co2  21  ASP21      -0.2456
      9  N         13.4320   25.8910  -13.6290 N.am   22  VAL22      -0.1966
     10  CA        13.3520   25.1690  -14.8850 C.3    22  VAL22       0.1727
     11  C         11.8830   25.0580  -15.3010 C.2    22  VAL22       0.2616
     12  O         10.9990   24.6250  -14.5350 O.2    22  VAL22      -0.2715
     13  CB        14.0120   23.7860  -14.8000 C.3    22  VAL22       0.0290
     14  CG1       13.5020   22.8450  -15.8850 C.3    22  VAL22       0.0023
     15  CG2       15.5270   23.9420  -14.8760 C.3    22  VAL22       0.0023
     16  N         11.6200   25.4790  -16.5030 N.am   23  ALA23      -0.1963
     17  CA        10.2590   25.5610  -17.0880 C.3    23  ALA23       0.1728
     18  C          9.4490   24.2800  -16.9070 C.2    23  ALA23       0.2617
     19  O          9.8340   23.2490  -17.4310 O.2    23  ALA23      -0.2715
     20  CB        10.4030   25.8570  -18.5820 C.3    23  ALA23       0.0334
     21  N          8.3250   24.3940  -16.2100 N.am   24  GLY24      -0.1940
     22  CA         7.3790   23.2580  -16.0650 C.3    24  GLY24       0.2014
     23  C          7.9190   21.8980  -15.6120 C.2    24  GLY24       0.2639
     24  O          7.2360   20.9070  -15.9090 O.2    24  GLY24      -0.2714
     25  N          9.0180   21.8520  -14.8770 N.am   25  ALA25      -0.1963
     26  CA         9.6840   20.6350  -14.4800 C.3    25  ALA25       0.1728
     27  C         10.1310   19.7230  -15.6440 C.2    25  ALA25       0.2616
     28  O         10.4570   18.5550  -15.4230 O.2    25  ALA25      -0.2715
     29  CB         8.7840   19.8190  -13.5450 C.3    25  ALA25       0.0334
     30  N         10.2200   20.2640  -16.8530 N.am   26  LEU26      -0.1977
     31  CA        10.4480   19.4150  -18.0270 C.3    26  LEU26       0.1596
     32  C         11.9230   19.0430  -18.0610 C.2    26  LEU26       0.2287
     33  O         12.7690   19.9120  -17.8670 O.2    26  LEU26      -0.2864
     34  CB         9.9920   20.1230  -19.3270 C.3    26  LEU26       0.0297
     35  CG         8.4940   20.4140  -19.4990 C.3    26  LEU26       0.0022
     36  CD1        8.1990   21.2520  -20.7440 C.3    26  LEU26       0.0001
     37  CD2        7.6850   19.1210  -19.4900 C.3    26  LEU26       0.0001
     38  N         13.8120   25.1650  -21.0490 N.3    32  ARG32      -0.1245
     39  CA        13.8880   26.5770  -20.6550 C.3    32  ARG32       0.1563
     40  C         13.9040   26.9820  -19.1700 C.2    32  ARG32       0.2260
     41  O         13.2570   26.3550  -18.3470 O.2    32  ARG32      -0.2867
     42  CB        12.6930   27.2770  -21.3320 C.3    32  ARG32       0.0307
     43  CG        12.6790   28.7970  -21.3120 C.3    32  ARG32       0.0489
     44  CD        11.5020   29.3860  -22.0600 C.3    32  ARG32       0.2205
     45  NE        10.2420   29.2900  -21.3380 N.pl3  32  ARG32      -0.0865
     46  CZ         9.5120   28.1890  -21.2670 C.cat  32  ARG32       0.5346
     47  NH1        9.9340   27.0830  -21.8450 N.pl3  32  ARG32       0.1354
     48  NH2        8.3710   28.1930  -20.6040 N.pl3  32  ARG32       0.1354
     49  N         13.2450   30.0790  -16.3900 N.3    34  ILE34      -0.1245
     50  CA        12.2420   31.1060  -16.1020 C.3    34  ILE34       0.1561
     51  C         12.3860   31.6220  -14.6960 C.2    34  ILE34       0.2260
     52  O         13.0380   30.9520  -13.8860 O.2    34  ILE34      -0.2867
     53  CB        10.7810   30.8070  -16.5290 C.3    34  ILE34       0.0252
     54  CG1       10.2120   29.5500  -15.8470 C.3    34  ILE34       0.0019
     55  CG2       10.6840   30.5960  -18.0500 C.3    34  ILE34       0.0019
     56  CD1        9.5420   29.7970  -14.5220 C.3    34  ILE34       0.0001
     57  N         10.2080   31.9380  -11.3770 N.3    36  TYR36      -0.1241
     58  CA         8.9470   31.5410  -10.8040 C.3    36  TYR36       0.1605
     59  C          8.9150   31.7810   -9.2750 C.2    36  TYR36       0.2264
     60  O          9.9500   31.7190   -8.6740 O.2    36  TYR36      -0.2867
     61  CB         8.6440   30.0780  -11.0850 C.3    36  TYR36       0.0534
     62  CG         7.1650   29.7490  -11.2060 C.ar   36  TYR36      -0.0201
     63  CD1        6.4990   29.8410  -12.4190 C.ar   36  TYR36      -0.0009
     64  CD2        6.4350   29.3400  -10.0950 C.ar   36  TYR36      -0.0009
     65  CE1        5.1400   29.5710  -12.4890 C.ar   36  TYR36       0.0417
     66  CE2        5.0910   29.0300  -10.1910 C.ar   36  TYR36       0.0417
     67  CZ         4.4530   29.1630  -11.3700 C.ar   36  TYR36       0.1957
     68  OH         3.1300   28.8290  -11.4010 O.3    36  TYR36      -0.2866
     69  N         10.2920   22.7270   -4.9320 N.3    41  GLN41      -0.1245
     70  CA        10.2070   21.8530   -6.1020 C.3    41  GLN41       0.1566
     71  C         11.6040   21.5600   -6.6190 C.2    41  GLN41       0.2260
     72  O         12.5340   22.4410   -6.6220 O.2    41  GLN41      -0.2867
     73  CB         9.3600   22.4940   -7.1900 C.3    41  GLN41       0.0367
     74  CG         7.8850   22.7040   -6.8520 C.3    41  GLN41       0.0905
     75  CD         7.5930   23.9940   -6.0910 C.2    41  GLN41       0.2608
     76  OE1        8.5060   24.7540   -5.8060 O.2    41  GLN41      -0.2717
     77  NE2        6.3290   24.2300   -5.7200 N.am   41  GLN41      -0.0878
     78  N         12.7890   21.1170   -9.5940 N.3    43  ASN43      -0.1225
     79  CA        13.2000   21.9990  -10.7180 C.3    43  ASN43       0.1785
     80  C         13.7680   23.3590  -10.2290 C.2    43  ASN43       0.2597
     81  O         14.7200   23.9090  -10.8610 O.2    43  ASN43      -0.2718
     82  CB        12.0750   22.1710  -11.7660 C.3    43  ASN43       0.1169
     83  CG        10.8550   22.8330  -11.1950 C.2    43  ASN43       0.2627
     84  OD1       10.6220   22.8000   -9.9880 O.2    43  ASN43      -0.2716
     85  ND2       10.0480   23.4190  -12.0640 N.am   43  ASN43      -0.0877
     86  N         13.2760   23.8950   -9.1280 N.am   44  GLN44      -0.1979
     87  CA        13.8370   25.1160   -8.5650 C.3    44  GLN44       0.1601
     88  C         15.1500   24.8840   -7.7710 C.2    44  GLN44       0.2287
     89  O         15.9280   25.8570   -7.5800 O.2    44  GLN44      -0.2864
     90  CB        12.8310   25.8760   -7.6760 C.3    44  GLN44       0.0394
     91  CG        11.8130   26.6720   -8.4680 C.3    44  GLN44       0.0908
     92  CD        11.0820   27.6960   -7.6050 C.2    44  GLN44       0.2608
     93  OE1       11.4650   27.9490   -6.4600 O.2    44  GLN44      -0.2717
     94  NE2       10.0270   28.2900   -8.1570 N.am   44  GLN44      -0.0878
     95  N          7.2320   33.7100  -14.8670 N.3   113  SER113     -0.1217
     96  CA         7.4680   32.9200  -16.0990 C.3   113  SER113      0.1889
     97  C          8.2920   33.6400  -17.1540 C.2   113  SER113      0.2288
     98  O          8.3590   33.1420  -18.2930 O.2   113  SER113     -0.2866
     99  CB         6.1470   32.3880  -16.6470 C.3   113  SER113      0.2089
    100  OG         5.3310   31.9190  -15.5850 O.3   113  SER113     -0.2183
@<TRIPOS>BOND
     1    44    45    1
     2    44    43    1
     3    47    46    1
     4    45    46    2
     5    42    43    1
     6    42    39    1
     7    46    48    1
     8    38    39    1
     9    36    35    1
    10    39    40    1
    11    35    37    1
    12    35    34    1
    13    34    31    1
    14    40    41    2
    15    20    17    1
    16    98    97    2
    17    32    31    1
    18    32    33    2
    19    55    53    1
    20    31    30    1
    21    19    18    2
    22    97    96    1
    23    17    18    1
    24    17    16    1
    25    18    21   am
    26    30    27   am
    27    99    96    1
    28    99   100    1
    29    53    50    1
    30    53    54    1
    31    16    11   am
    32    49    50    1
    33    21    22    1
    34    50    51    1
    35    96    95    1
    36    22    23    1
    37    24    23    2
    38    14    13    1
    39    54    56    1
    40    27    28    2
    41    27    26    1
    42    23    25   am
    43    11    10    1
    44    11    12    2
    45    10    13    1
    46    10     9    1
    47    25    26    1
    48    15    13    1
    49    51    52    2
    50     4     3    2
    51    26    29    1
    52     9     3   am
    53     3     2    1
    54    65    63   ar
    55    65    67   ar
    56    63    62   ar
    57     7     6   ar
    58     2     1    1
    59     2     5    1
    60    85    83   am
    61     6     5    1
    62     6     8   ar
    63    82    83    1
    64    82    79    1
    65    68    67    1
    66    57    58    1
    67    67    66   ar
    68    62    61    1
    69    62    64   ar
    70    83    84    2
    71    61    58    1
    72    81    80    2
    73    58    59    1
    74    79    80    1
    75    79    78    1
    76    80    86   am
    77    66    64   ar
    78    59    60    2
    79    86    87    1
    80    87    88    1
    81    87    90    1
    82    91    90    1
    83    91    92    1
    84    94    92   am
    85    88    89    2
    86    92    93    2
    87    73    74    1
    88    73    70    1
    89    74    75    1
    90    72    71    2
    91    71    70    1
    92    70    69    1
    93    75    76    2
    94    75    77   am
