@<TRIPOS>MOLECULE
tmp/5y97C00.pdb
 111 108 0 0 0
SMALL
GASTEIGER

@<TRIPOS>ATOM
      1  N         25.2370   66.3850   -6.8110 N.3   198  TYR198     -0.1227
      2  CA        25.7900   67.3580   -5.8480 C.3   198  TYR198      0.1736
      3  C         27.3220   67.2090   -5.9910 C.2   198  TYR198      0.2595
      4  O         27.8470   66.1080   -5.9680 O.2   198  TYR198     -0.2718
      5  CB        25.3410   66.9750   -4.4170 C.3   198  TYR198      0.0548
      6  CG        25.7700   67.9280   -3.3190 C.ar  198  TYR198     -0.0200
      7  CD1       27.0660   67.8800   -2.8000 C.ar  198  TYR198     -0.0009
      8  CD2       24.8730   68.8070   -2.7270 C.ar  198  TYR198     -0.0009
      9  CE1       27.4700   68.7270   -1.7760 C.ar  198  TYR198      0.0417
     10  CE2       25.2620   69.6620   -1.6990 C.ar  198  TYR198      0.0417
     11  CZ        26.5760   69.6370   -1.2350 C.ar  198  TYR198      0.1957
     12  OH        26.9590   70.4610   -0.2010 O.3   198  TYR198     -0.2866
     13  N         27.9880   68.3460   -6.1300 N.am  199  ASP199     -0.1974
     14  CA        29.4450   68.4280   -6.3120 C.3   199  ASP199      0.1709
     15  C         30.0490   67.3880   -7.2670 C.2   199  ASP199      0.2293
     16  O         31.1040   66.8390   -7.0100 O.2   199  ASP199     -0.2864
     17  CB        30.1610   68.4570   -4.9230 C.3   199  ASP199      0.1436
     18  CG        29.9980   69.8040   -4.1870 C.2   199  ASP199      0.3671
     19  OD1       29.7050   70.8280   -4.8580 O.co2 199  ASP199     -0.2456
     20  OD2       30.2040   69.8680   -2.9520 O.co2 199  ASP199     -0.2456
     21  N         28.6810   64.3880   -8.1850 N.3   201  TRP201     -0.1241
     22  CA        28.3990   63.0280   -7.6770 C.3   201  TRP201      0.1605
     23  C         26.8980   62.8640   -7.6050 C.2   201  TRP201      0.2264
     24  O         26.1850   63.7700   -7.3010 O.2   201  TRP201     -0.2867
     25  CB        29.0400   62.8080   -6.2670 C.3   201  TRP201      0.0550
     26  CG        30.5090   63.0700   -6.1950 C.ar  201  TRP201      0.0003
     27  CD1       31.0990   64.1640   -5.6560 C.ar  201  TRP201      0.0946
     28  CD2       31.5660   62.2590   -6.7300 C.ar  201  TRP201      0.0152
     29  NE1       32.4590   64.0980   -5.8170 N.ar  201  TRP201     -0.2442
     30  CE2       32.7780   62.9390   -6.4700 C.ar  201  TRP201      0.0810
     31  CE3       31.6090   61.0250   -7.4080 C.ar  201  TRP201      0.0012
     32  CZ2       34.0430   62.4170   -6.8420 C.ar  201  TRP201      0.0191
     33  CZ3       32.8730   60.4950   -7.7780 C.ar  201  TRP201      0.0001
     34  CH2       34.0710   61.1970   -7.4870 C.ar  201  TRP201      0.0015
     35  N         26.9400   57.5420    0.5210 N.3   236  ASP236     -0.1239
     36  CA        27.7880   58.4480    1.2780 C.3   236  ASP236      0.1674
     37  C         26.9570   59.6400    1.7490 C.2   236  ASP236      0.2266
     38  O         26.2830   60.2990    0.9550 O.2   236  ASP236     -0.2867
     39  CB        28.9480   58.8880    0.3690 C.3   236  ASP236      0.1410
     40  CG        29.8780   59.9530    1.0040 C.2   236  ASP236      0.3668
     41  OD1       29.5190   60.6300    2.0050 O.co2 236  ASP236     -0.2456
     42  OD2       30.9940   60.1440    0.4780 O.co2 236  ASP236     -0.2456
     43  N         26.8560   63.2660    2.3940 N.3   238  ALA238     -0.1231
     44  CA        27.7930   64.2410    1.8390 C.3   238  ALA238      0.1694
     45  C         28.3940   65.0940    2.9540 C.2   238  ALA238      0.2592
     46  O         27.6710   65.7740    3.6770 O.2   238  ALA238     -0.2718
     47  CB        27.1190   65.1110    0.8200 C.3   238  ALA238      0.0304
     48  N         29.7030   64.9780    3.1330 N.am  239  ARG239     -0.1966
     49  CA        30.4800   65.7310    4.1270 C.3   239  ARG239      0.1729
     50  C         29.9940   65.5390    5.5820 C.2   239  ARG239      0.2616
     51  O         30.0680   66.4640    6.3970 O.2   239  ARG239     -0.2715
     52  CB        30.5210   67.2400    3.8120 C.3   239  ARG239      0.0348
     53  CG        31.3880   67.5250    2.6250 C.3   239  ARG239      0.0492
     54  CD        31.6380   68.9870    2.4710 C.3   239  ARG239      0.2205
     55  NE        30.4620   69.6700    1.9860 N.pl3 239  ARG239     -0.0865
     56  CZ        29.5940   70.2650    2.7820 C.cat 239  ARG239      0.5346
     57  NH1       29.7150   70.2960    4.1120 N.pl3 239  ARG239      0.1354
     58  NH2       28.5510   70.8230    2.2140 N.pl3 239  ARG239      0.1354
     59  N         29.4710   64.3480    5.8510 N.am  240  SER240     -0.1950
     60  CA        29.1160   63.9730    7.1860 C.3   240  SER240      0.1924
     61  C         28.1780   64.9580    7.8350 C.2   240  SER240      0.2314
     62  O         28.1960   65.1320    9.0480 O.2   240  SER240     -0.2863
     63  CB        30.3790   63.8520    8.0420 C.3   240  SER240      0.2116
     64  OG        31.4380   63.3030    7.2830 O.3   240  SER240     -0.2180
     65  N         25.1830   60.9110   -1.2560 N.3   248  ILE248     -0.1245
     66  CA        25.8320   61.0420   -2.5730 C.3   248  ILE248      0.1561
     67  C         26.6460   59.7930   -2.9130 C.2   248  ILE248      0.2260
     68  O         27.2760   59.2440   -2.0150 O.2   248  ILE248     -0.2867
     69  CB        26.7140   62.3300   -2.5640 C.3   248  ILE248      0.0252
     70  CG1       26.6730   63.0280   -3.9110 C.3   248  ILE248      0.0019
     71  CG2       28.1730   62.1020   -2.1840 C.3   248  ILE248      0.0019
     72  CD1       25.3130   63.5850   -4.2540 C.3   248  ILE248      0.0001
     73  N         29.7700   58.1250   -4.1880 N.3   250  HIS250     -0.1226
     74  CA        31.0940   58.7050   -4.3210 C.3   250  HIS250      0.1752
     75  C         32.1780   57.6600   -4.4510 C.2   250  HIS250      0.2595
     76  O         31.9890   56.5020   -4.0570 O.2   250  HIS250     -0.2718
     77  CB        31.3720   59.5400   -3.0610 C.3   250  HIS250      0.0759
     78  CG        32.7300   60.1810   -3.0400 C.ar  250  HIS250      0.0818
     79  ND1       33.5250   60.2170   -1.9160 N.ar  250  HIS250     -0.2268
     80  CD2       33.4310   60.8090   -4.0070 C.ar  250  HIS250      0.1154
     81  CE1       34.6540   60.8430   -2.1890 C.ar  250  HIS250      0.1986
     82  NE2       34.6250   61.2110   -3.4560 N.ar  250  HIS250     -0.2212
     83  N         33.3270   58.0370   -5.0090 N.am  251  ARG251     -0.1980
     84  CA        34.5940   57.3470   -4.8890 C.3   251  ARG251      0.1597
     85  C         34.7930   56.7950   -3.4660 C.2   251  ARG251      0.2287
     86  O         34.6170   57.5490   -2.5080 O.2   251  ARG251     -0.2864
     87  CB        35.7630   58.2640   -5.2350 C.3   251  ARG251      0.0334
     88  CG        37.1600   57.6320   -5.2050 C.3   251  ARG251      0.0492
     89  CD        38.0060   58.0460   -3.9940 C.3   251  ARG251      0.2205
     90  NE        37.9430   59.4880   -3.7080 N.pl3 251  ARG251     -0.0865
     91  CZ        38.5230   60.4540   -4.4290 C.cat 251  ARG251      0.5346
     92  NH1       39.2520   60.1750   -5.5160 N.pl3 251  ARG251      0.1354
     93  NH2       38.3780   61.7290   -4.0720 N.pl3 251  ARG251      0.1354
     94  N         36.5500   56.3780   -0.6480 N.3   253  HIS253     -0.1241
     95  CA        37.6140   56.7270    0.3050 C.3   253  HIS253      0.1621
     96  C         37.5760   55.9410    1.6220 C.2   253  HIS253      0.2264
     97  O         38.6230   55.8180    2.3010 O.2   253  HIS253     -0.2867
     98  CB        37.6600   58.2420    0.5750 C.3   253  HIS253      0.0745
     99  CG        36.4650   58.7790    1.3020 C.ar  253  HIS253      0.0817
    100  ND1       36.5700   59.6010    2.4050 N.ar  253  HIS253     -0.2268
    101  CD2       35.1450   58.6370    1.0630 C.ar  253  HIS253      0.1154
    102  CE1       35.3590   59.9290    2.8220 C.ar  253  HIS253      0.1986
    103  NE2       34.4760   59.3520    2.0250 N.ar  253  HIS253     -0.2212
    104  N         31.6380   58.3830    7.0640 N.3   257  ASN257     -0.1240
    105  CA        30.4820   58.7650    6.2360 C.3   257  ASN257      0.1653
    106  C         30.0830   57.6760    5.2330 C.2   257  ASN257      0.2266
    107  O         28.9120   57.6220    4.7840 O.2   257  ASN257     -0.2867
    108  CB        30.7190   60.0860    5.4630 C.3   257  ASN257      0.1155
    109  CG        32.0240   60.1130    4.6730 C.2   257  ASN257      0.2627
    110  OD1       32.9330   59.3190    4.9030 O.2   257  ASN257     -0.2716
    111  ND2       32.1220   61.0450    3.7490 N.am  257  ASN257     -0.0877
@<TRIPOS>BOND
     1    21    22    1
     2    33    34   ar
     3    33    31   ar
     4    22    23    1
     5    22    25    1
     6    23    24    2
     7    34    32   ar
     8    31    28   ar
     9    15    16    2
    10    15    14    1
    11    32    30   ar
    12     1     2    1
    13    28    30   ar
    14    28    26   ar
    15    30    29   ar
    16    14    13    1
    17    14    17    1
    18    25    26    1
    19    26    27   ar
    20    13     3   am
    21     3     4    2
    22     3     2    1
    23     2     5    1
    24    29    27   ar
    25    92    91    1
    26    87    88    1
    27    87    84    1
    28    88    89    1
    29    83    84    1
    30    83    75   am
    31    17    18    1
    32    84    85    1
    33    19    18   ar
    34    75    74    1
    35    75    76    2
    36    91    93    1
    37    91    90    2
    38     5     6    1
    39    74    73    1
    40    74    77    1
    41    72    70    1
    42    18    20   ar
    43    80    82   ar
    44    80    78   ar
    45    89    90    1
    46    70    69    1
    47    85    86    2
    48    82    81   ar
    49     6     7   ar
    50     6     8   ar
    51    77    78    1
    52    78    79   ar
    53    67    66    1
    54    67    68    2
    55     7     9   ar
    56     8    10   ar
    57    66    69    1
    58    66    65    1
    59    69    71    1
    60    81    79   ar
    61     9    11   ar
    62    10    11   ar
    63    11    12    1
    64    94    95    1
    65    95    98    1
    66    95    96    1
    67    39    40    1
    68    39    36    1
    69    42    40   ar
    70    35    36    1
    71    98    99    1
    72    47    44    1
    73    38    37    2
    74    40    41   ar
    75   101    99   ar
    76   101   103   ar
    77    36    37    1
    78    99   100   ar
    79    96    97    2
    80    44    43    1
    81    44    45    1
    82    55    54    1
    83    55    56    2
    84   103   102   ar
    85    58    56    1
    86   100   102   ar
    87    54    53    1
    88    53    52    1
    89    56    57    1
    90    45    48   am
    91    45    46    2
    92    48    49    1
    93   111   109   am
    94    52    49    1
    95    49    50    1
    96   109   110    2
    97   109   108    1
    98   107   106    2
    99   106   105    1
   100   108   105    1
   101    50    59   am
   102    50    51    2
   103    59    60    1
   104   105   104    1
   105    60    61    1
   106    60    63    1
   107    64    63    1
   108    61    62    2
