@<TRIPOS>MOLECULE
tmp/5y9bB00.pdb
 102 93 0 0 0
SMALL
GASTEIGER

@<TRIPOS>ATOM
      1  N         14.9170    4.4840  -17.6870 N.3     1  THR1       -0.1218
      2  CA        13.4280    4.5490  -17.8180 C.3     1  THR1        0.1862
      3  C         12.7460    5.6000  -16.9540 C.2     1  THR1        0.2287
      4  O         13.2250    5.9330  -15.8530 O.2     1  THR1       -0.2866
      5  CB        12.7960    3.2020  -17.4300 C.3     1  THR1        0.1770
      6  OG1       13.5660    2.1470  -17.9860 O.3     1  THR1       -0.2211
      7  CG2       11.3910    3.0650  -17.9260 C.3     1  THR1        0.0375
      8  N         12.5000    5.1570  -22.1580 N.3    19  THR19      -0.1218
      9  CA        13.8300    5.0100  -21.5910 C.3    19  THR19       0.1862
     10  C         14.9420    5.2440  -22.6100 C.2    19  THR19       0.2287
     11  O         14.7070    5.1490  -23.8320 O.2    19  THR19      -0.2866
     12  CB        13.9890    3.5640  -21.0590 C.3    19  THR19       0.1770
     13  OG1       15.2110    3.4380  -20.3330 O.3    19  THR19      -0.2211
     14  CG2       13.9290    2.5390  -22.1910 C.3    19  THR19       0.0375
     15  N         17.7960    3.3810  -21.4120 N.3    21  GLU21      -0.1245
     16  CA        18.4590    2.2260  -20.8410 C.3    21  GLU21       0.1567
     17  C         19.1020    2.6500  -19.5350 C.2    21  GLU21       0.2260
     18  O         18.3520    2.9870  -18.6170 O.2    21  GLU21      -0.2867
     19  CB        19.3560    1.4190  -21.8320 C.3    21  GLU21       0.0388
     20  CG        19.4440   -0.0810  -21.5620 C.3    21  GLU21       0.1160
     21  CD        19.6320   -0.4450  -20.0510 C.2    21  GLU21       0.3649
     22  OE1       20.7700   -0.7560  -19.5890 O.co2  21  GLU21      -0.2457
     23  OE2       18.5890   -0.4600  -19.3600 O.co2  21  GLU21      -0.2457
     24  N         21.1120    5.0610  -16.8840 N.3    23  LEU23      -0.1245
     25  CA        21.0680    6.4570  -16.6000 C.3    23  LEU23       0.1561
     26  C         22.1140    7.1070  -17.5670 C.2    23  LEU23       0.2260
     27  O         23.2990    6.7320  -17.5640 O.2    23  LEU23      -0.2867
     28  CB        21.3650    6.7020  -15.1100 C.3    23  LEU23       0.0270
     29  CG        20.1070    6.6670  -14.1590 C.3    23  LEU23       0.0019
     30  CD1       19.3360    5.3130  -14.1120 C.3    23  LEU23       0.0001
     31  CD2       20.4800    7.1000  -12.7450 C.3    23  LEU23       0.0001
     32  N         20.5210    0.8240  -25.2770 N.3    40  GLU40      -0.1245
     33  CA        19.4150   -0.1200  -25.2710 C.3    40  GLU40       0.1567
     34  C         19.8220   -1.5090  -25.7580 C.2    40  GLU40       0.2260
     35  O         19.2000   -2.5050  -25.3690 O.2    40  GLU40      -0.2867
     36  CB        18.2570    0.4000  -26.1180 C.3    40  GLU40       0.0388
     37  CG        16.8750    0.1310  -25.5870 C.3    40  GLU40       0.1160
     38  CD        16.5910    0.9630  -24.3670 C.2    40  GLU40       0.3649
     39  OE1       16.4020    2.2080  -24.4660 O.co2  40  GLU40      -0.2457
     40  OE2       16.5700    0.3400  -23.2970 O.co2  40  GLU40      -0.2457
     41  N         20.3900   -4.7140  -23.6670 N.3    43  ASP43      -0.1239
     42  CA        19.2680   -5.5040  -23.1580 C.3    43  ASP43       0.1674
     43  C         19.1860   -6.8190  -23.8720 C.2    43  ASP43       0.2266
     44  O         18.5010   -7.7590  -23.3840 O.2    43  ASP43      -0.2867
     45  CB        17.9280   -4.7930  -23.2410 C.3    43  ASP43       0.1410
     46  CG        17.7060   -3.7730  -22.1160 C.2    43  ASP43       0.3668
     47  OD1       18.4510   -3.6980  -21.1140 O.co2  43  ASP43      -0.2456
     48  OD2       16.7220   -3.0450  -22.2670 O.co2  43  ASP43      -0.2456
     49  N         12.6530   -5.8410  -23.7250 N.3    62  SER62      -0.1202
     50  CA        12.4100   -4.9000  -22.6310 C.3    62  SER62       0.2020
     51  C         11.7460   -5.6610  -21.4960 C.2    62  SER62       0.2619
     52  O         11.2800   -6.7840  -21.7120 O.2    62  SER62      -0.2717
     53  CB        11.4710   -3.7810  -23.0970 C.3    62  SER62       0.2103
     54  OG        11.5180   -2.6710  -22.2230 O.3    62  SER62      -0.2182
     55  N         11.7090   -5.0090  -20.3300 N.am   63  SER63      -0.1937
     56  CA        10.8780   -5.3230  -19.2110 C.3    63  SER63       0.2055
     57  C          9.8360   -4.2220  -18.9660 C.2    63  SER63       0.2642
     58  O          9.0840   -4.3220  -18.0000 O.2    63  SER63      -0.2714
     59  CB        11.7130   -5.4470  -17.9460 C.3    63  SER63       0.2130
     60  OG        12.6570   -6.4960  -18.0610 O.3    63  SER63      -0.2179
     61  N          9.7430   -3.2140  -19.8430 N.am   64  MET64      -0.1976
     62  CA         8.7890   -2.1110  -19.6070 C.3    64  MET64       0.1605
     63  C          7.3580   -2.6130  -19.6910 C.2    64  MET64       0.2287
     64  O          7.0430   -3.5140  -20.4780 O.2    64  MET64      -0.2864
     65  CB         9.0010   -0.9150  -20.5250 C.3    64  MET64       0.0413
     66  CG        10.3140   -0.1800  -20.3210 C.3    64  MET64       0.0598
     67  SD        10.5060    1.2550  -21.4120 S.3    64  MET64      -0.1393
     68  CE        11.0310    0.5290  -22.9880 C.3    64  MET64       0.0692
     69  N          9.6380    2.5790  -13.9910 N.3    82  PRO82      -0.2102
     70  CA        11.0020    2.2740  -14.3800 C.3    82  PRO82       0.1504
     71  C         11.6090    1.2110  -13.4740 C.2    82  PRO82       0.2576
     72  O         10.9260    0.7100  -12.5360 O.2    82  PRO82      -0.2718
     73  CB        11.7010    3.5850  -14.1810 C.3    82  PRO82       0.0282
     74  CG        11.0480    4.1980  -13.0300 C.3    82  PRO82       0.0208
     75  CD         9.5870    3.8090  -13.1780 C.3    82  PRO82       0.0893
     76  N         12.8550    0.8310  -13.7920 N.am   83  GLY83      -0.1943
     77  CA        13.6850   -0.0700  -12.9400 C.3    83  GLY83       0.2014
     78  C         14.2110   -1.3400  -13.5800 C.2    83  GLY83       0.2639
     79  O         14.4480   -2.3680  -12.8840 O.2    83  GLY83      -0.2714
     80  N         14.3870   -1.3370  -14.9040 N.am   84  GLY84      -0.1954
     81  CA        14.9210   -2.5460  -15.5850 C.3    84  GLY84       0.1869
     82  C         14.0330   -3.7760  -15.3910 C.2    84  GLY84       0.2309
     83  O         12.7950   -3.6870  -15.4290 O.2    84  GLY84      -0.2863
     84  N         10.9180   -3.8680  -13.0520 N.3    87  ILE87      -0.1245
     85  CA         9.6270   -3.2690  -13.4400 C.3    87  ILE87       0.1561
     86  C          8.4720   -4.2660  -13.2860 C.2    87  ILE87       0.2260
     87  O          7.4130   -3.8930  -12.8670 O.2    87  ILE87      -0.2867
     88  CB         9.6460   -2.7350  -14.9000 C.3    87  ILE87       0.0252
     89  CG1       10.5480   -1.4790  -14.9530 C.3    87  ILE87       0.0019
     90  CG2        8.2370   -2.4190  -15.4330 C.3    87  ILE87       0.0019
     91  CD1       10.9540   -1.0960  -16.3560 C.3    87  ILE87       0.0001
     92  N         11.1370    9.0530   -6.4990 N.3   173  ARG173     -0.1245
     93  CA        11.6350   10.2020   -7.2610 C.3   173  ARG173      0.1563
     94  C         10.7720   11.3780   -6.8650 C.2   173  ARG173      0.2260
     95  O          9.7660   11.1890   -6.1400 O.2   173  ARG173     -0.2867
     96  CB        11.5070    9.9570   -8.7810 C.3   173  ARG173      0.0307
     97  CG        12.4050    8.8140   -9.2880 C.3   173  ARG173      0.0489
     98  CD        12.4550    8.7710  -10.8140 C.3   173  ARG173      0.2205
     99  NE        13.1740    7.5920  -11.2430 N.pl3 173  ARG173     -0.0865
    100  CZ        13.3110    7.1770  -12.4960 C.cat 173  ARG173      0.5346
    101  NH1       12.7450    7.8180  -13.5090 N.pl3 173  ARG173      0.1354
    102  NH2       13.9890    6.0520  -12.7180 N.pl3 173  ARG173      0.1354
@<TRIPOS>BOND
     1    36    37    1
     2    36    33    1
     3    34    35    2
     4    34    33    1
     5    37    38    1
     6    32    33    1
     7    39    38   ar
     8    38    40   ar
     9    43    44    2
    10    43    42    1
    11    11    10    2
    12    49    50    1
    13    41    42    1
    14    45    42    1
    15    45    46    1
    16    53    50    1
    17    53    54    1
    18    68    67    1
    19    50    51    1
    20    10     9    1
    21    48    46   ar
    22    14    12    1
    23     8     9    1
    24    46    47   ar
    25    19    20    1
    26    19    16    1
    27    52    51    2
    28     9    12    1
    29    20    21    1
    30    51    55   am
    31    15    16    1
    32    67    66    1
    33    12    13    1
    34    16    17    1
    35    65    66    1
    36    65    62    1
    37    64    63    2
    38    55    56    1
    39    21    22   ar
    40    21    23   ar
    41    61    62    1
    42    61    57   am
    43    63    62    1
    44    17    18    2
    45    56    57    1
    46    56    59    1
    47    57    58    2
    48    60    59    1
    49     6     5    1
    50     7     5    1
    51     2     1    1
    52     2     5    1
    53     2     3    1
    54    26    27    2
    55    26    25    1
    56     3     4    2
    57    24    25    1
    58    25    28    1
    59    91    89    1
    60    81    82    1
    61    81    80    1
    62    90    88    1
    63    83    82    2
    64    28    29    1
    65    89    88    1
    66    80    78   am
    67    88    85    1
    68    70    73    1
    69    70    69    1
    70    70    71    1
    71    73    74    1
    72    29    30    1
    73    29    31    1
    74    69    75    1
    75    76    71   am
    76    76    77    1
    77    78    77    1
    78    78    79    2
    79   101   100    1
    80    71    72    2
    81    85    86    1
    82    85    84    1
    83    86    87    2
    84    75    74    1
    85   102   100    1
    86   100    99    2
    87    99    98    1
    88    98    97    1
    89    97    96    1
    90    96    93    1
    91    93    94    1
    92    93    92    1
    93    94    95    2
