@<TRIPOS>MOLECULE
tmp/5y9lA00.pdb
 198 196 0 0 0
SMALL
GASTEIGER

@<TRIPOS>ATOM
      1  N         12.7100   47.0110   33.8980 N.3    23  GLN23      -0.1231
      2  CA        13.0500   46.9730   32.4900 C.3    23  GLN23       0.1698
      3  C         13.3890   45.5460   32.0620 C.2    23  GLN23       0.2592
      4  O         14.0950   44.8320   32.7600 O.2    23  GLN23      -0.2718
      5  CB        14.1890   47.9500   32.1970 C.3    23  GLN23       0.0381
      6  CG        14.9540   47.5810   30.9350 C.3    23  GLN23       0.0905
      7  CD        15.5940   48.7410   30.2100 C.2    23  GLN23       0.2608
      8  OE1       15.7770   49.8420   30.7590 O.2    23  GLN23      -0.2717
      9  NE2       15.9550   48.4860   28.9500 N.am   23  GLN23      -0.0878
     10  N         12.8770   45.1640   30.8860 N.am   24  LEU24      -0.1966
     11  CA        13.0370   43.8130   30.3290 C.3    24  LEU24       0.1728
     12  C         14.4500   43.6610   29.9010 C.2    24  LEU24       0.2616
     13  O         14.9660   44.5370   29.2340 O.2    24  LEU24      -0.2715
     14  CB        12.1400   43.5740   29.1010 C.3    24  LEU24       0.0311
     15  CG        12.3920   42.3250   28.2130 C.3    24  LEU24       0.0022
     16  CD1       11.8650   41.0600   28.8990 C.3    24  LEU24       0.0001
     17  CD2       11.7550   42.4560   26.8390 C.3    24  LEU24       0.0001
     18  N         15.0430   42.5310   30.2710 N.am   25  HIS25      -0.1959
     19  CA        16.4370   42.1740   29.9160 C.3    25  HIS25       0.1787
     20  C         16.4660   40.9080   29.0450 C.2    25  HIS25       0.2620
     21  O         17.0300   40.9310   27.9800 O.2    25  HIS25      -0.2715
     22  CB        17.2630   41.9690   31.2080 C.3    25  HIS25       0.0785
     23  CG        18.6950   41.5820   30.9820 C.ar   25  HIS25       0.0821
     24  ND1       19.6800   42.5080   30.7240 N.ar   25  HIS25      -0.2267
     25  CD2       19.3180   40.3760   31.0180 C.ar   25  HIS25       0.1154
     26  CE1       20.8430   41.8930   30.5830 C.ar   25  HIS25       0.1986
     27  NE2       20.6540   40.5990   30.7580 N.ar   25  HIS25      -0.2212
     28  N         15.8680   39.8240   29.5350 N.am   26  CYS26      -0.1968
     29  CA        15.6840   38.5360   28.8270 C.3    26  CYS26       0.1712
     30  C         14.3420   37.8480   29.1070 C.2    26  CYS26       0.2296
     31  O         13.6350   38.1780   30.0470 O.2    26  CYS26      -0.2864
     32  CB        16.8060   37.5600   29.1980 C.3    26  CYS26       0.0983
     33  SG        18.2810   37.9380   28.2520 S.3    26  CYS26      -0.0798
     34  N         23.9590   34.1660   27.7620 N.3    41  HIS41      -0.1241
     35  CA        24.2840   35.5590   27.4500 C.3    41  HIS41       0.1621
     36  C         23.4380   36.6120   28.2140 C.2    41  HIS41       0.2264
     37  O         23.7550   37.7990   28.1690 O.2    41  HIS41      -0.2867
     38  CB        24.2930   35.7830   25.9350 C.3    41  HIS41       0.0745
     39  CG        22.9510   35.9310   25.3100 C.ar   41  HIS41       0.0817
     40  ND1       22.3730   34.9330   24.5560 N.ar   41  HIS41      -0.2268
     41  CD2       22.1080   36.9980   25.2360 C.ar   41  HIS41       0.1154
     42  CE1       21.2110   35.3590   24.0780 C.ar   41  HIS41       0.1986
     43  NE2       21.0260   36.6080   24.4740 N.ar   41  HIS41      -0.2212
     44  N         29.2760   31.8630   21.4480 N.3    80  HIS80      -0.1241
     45  CA        27.9050   31.5420   21.9390 C.3    80  HIS80       0.1621
     46  C         27.4220   30.1040   21.8550 C.2    80  HIS80       0.2264
     47  O         26.2290   29.8300   21.9940 O.2    80  HIS80      -0.2867
     48  CB        26.8710   32.4410   21.2770 C.3    80  HIS80       0.0745
     49  CG        27.2400   33.8680   21.3720 C.ar   80  HIS80       0.0817
     50  ND1       27.4040   34.4870   22.5920 N.ar   80  HIS80      -0.2268
     51  CD2       27.5780   34.7750   20.4250 C.ar   80  HIS80       0.1154
     52  CE1       27.8010   35.7350   22.3880 C.ar   80  HIS80       0.1986
     53  NE2       27.9160   35.9340   21.0870 N.ar   80  HIS80      -0.2212
     54  N         24.7120   28.1260   24.9000 N.3    83  ASP83      -0.1239
     55  CA        24.1020   29.3420   25.3930 C.3    83  ASP83       0.1674
     56  C         22.8790   29.0220   26.2240 C.2    83  ASP83       0.2266
     57  O         21.7200   29.1370   25.7370 O.2    83  ASP83      -0.2867
     58  CB        23.7260   30.2410   24.2130 C.3    83  ASP83       0.1410
     59  CG        23.4010   31.6730   24.6170 C.2    83  ASP83       0.3668
     60  OD1       23.6780   32.0660   25.7650 O.co2  83  ASP83      -0.2456
     61  OD2       22.8460   32.3880   23.7560 O.co2  83  ASP83      -0.2456
     62  N         13.2800   50.1910   17.5210 N.3   128  VAL128     -0.1245
     63  CA        12.7140   49.2530   18.5180 C.3   128  VAL128      0.1561
     64  C         11.2810   49.6480   18.9560 C.2   128  VAL128      0.2260
     65  O         10.9870   50.8280   19.0890 O.2   128  VAL128     -0.2867
     66  CB        13.6610   49.0940   19.7420 C.3   128  VAL128      0.0252
     67  CG1       15.1230   49.0660   19.3030 C.3   128  VAL128      0.0019
     68  CG2       13.4740   50.2160   20.7480 C.3   128  VAL128      0.0019
     69  N          8.5790   48.1190   22.0150 N.3   130  PHE130     -0.1241
     70  CA         8.3390   47.1080   23.0480 C.3   130  PHE130      0.1605
     71  C          6.8580   46.9620   23.4470 C.2   130  PHE130      0.2264
     72  O          6.2210   47.9510   23.7980 O.2   130  PHE130     -0.2867
     73  CB         9.2100   47.3640   24.2770 C.3   130  PHE130      0.0534
     74  CG        10.6770   47.2070   24.0080 C.ar  130  PHE130     -0.0203
     75  CD1       11.2250   45.9570   23.7630 C.ar  130  PHE130     -0.0042
     76  CD2       11.5110   48.3180   23.9540 C.ar  130  PHE130     -0.0042
     77  CE1       12.5720   45.8040   23.4910 C.ar  130  PHE130     -0.0003
     78  CE2       12.8620   48.1790   23.6550 C.ar  130  PHE130     -0.0003
     79  CZ        13.3900   46.9210   23.4230 C.ar  130  PHE130     -0.0000
     80  N         10.2510   35.9590   13.3670 N.3   170  ASN170     -0.1225
     81  CA        11.4790   35.7130   14.0650 C.3   170  ASN170      0.1785
     82  C         11.4430   36.2980   15.4810 C.2   170  ASN170      0.2597
     83  O         10.4380   36.8360   15.9170 O.2   170  ASN170     -0.2718
     84  CB        12.6440   36.3020   13.2530 C.3   170  ASN170      0.1169
     85  CG        13.7960   35.3280   13.1120 C.2   170  ASN170      0.2627
     86  OD1       14.0620   34.5570   14.0140 O.2   170  ASN170     -0.2716
     87  ND2       14.4820   35.3640   11.9720 N.am  170  ASN170     -0.0877
     88  N         12.5540   36.1560   16.1950 N.am  171  ALA171     -0.1966
     89  CA        12.7150   36.7910   17.4950 C.3   171  ALA171      0.1728
     90  C         13.6240   37.9610   17.3530 C.2   171  ALA171      0.2616
     91  O         14.2210   38.1960   16.2800 O.2   171  ALA171     -0.2715
     92  CB        13.2690   35.8070   18.5060 C.3   171  ALA171      0.0334
     93  N         13.7350   38.7000   18.4450 N.am  172  CYS172     -0.1954
     94  CA        14.4630   39.9390   18.4430 C.3   172  CYS172      0.1843
     95  C         14.8270   40.3810   19.8480 C.2   172  CYS172      0.2625
     96  O         14.5430   39.7050   20.8290 O.2   172  CYS172     -0.2714
     97  CB        13.6260   41.0010   17.7420 C.3   172  CYS172      0.0997
     98  SG        14.6130   42.2790   17.0270 S.3   172  CYS172     -0.0797
     99  N         15.4910   41.5210   19.9220 N.am  173  ASN173     -0.1958
    100  CA        16.0500   41.9670   21.1780 C.3   173  ASN173      0.1819
    101  C         14.9440   42.0370   22.2540 C.2   173  ASN173      0.2621
    102  O         13.9180   42.7020   22.0690 O.2   173  ASN173     -0.2715
    103  CB        16.7720   43.3190   21.0100 C.3   173  ASN173      0.1195
    104  CG        17.6610   43.3560   19.7740 C.2   173  ASN173      0.2630
    105  OD1       17.2500   43.8710   18.7380 O.2   173  ASN173     -0.2716
    106  ND2       18.8430   42.7110   19.8490 N.am  173  ASN173     -0.0877
    107  N         15.1640   41.3180   23.3450 N.am  174  GLY174     -0.1954
    108  CA        14.2400   41.2130   24.4500 C.3   174  GLY174      0.1869
    109  C         13.7390   39.7870   24.5400 C.2   174  GLY174      0.2309
    110  O         13.4300   39.3170   25.6300 O.2   174  GLY174     -0.2863
    111  N         15.5070   37.0820   23.8740 N.3   176  SER176     -0.1217
    112  CA        16.6750   36.2800   24.2740 C.3   176  SER176      0.1889
    113  C         16.3920   35.4400   25.5580 C.2   176  SER176      0.2288
    114  O         15.7650   35.8990   26.5280 O.2   176  SER176     -0.2866
    115  CB        17.8900   37.2250   24.3590 C.3   176  SER176      0.2089
    116  OG        18.8780   36.7690   25.2240 O.3   176  SER176     -0.2183
    117  N         15.9140   30.9520   22.8550 N.3   190  VAL190     -0.1231
    118  CA        16.3190   31.9440   21.8760 C.3   190  VAL190      0.1692
    119  C         17.7560   32.3890   22.1220 C.2   190  VAL190      0.2593
    120  O         18.0560   32.8600   23.2450 O.2   190  VAL190     -0.2718
    121  CB        15.4710   33.2160   21.9780 C.3   190  VAL190      0.0266
    122  CG1       16.0200   34.3110   21.0710 C.3   190  VAL190      0.0020
    123  CG2       14.0070   32.9370   21.6550 C.3   190  VAL190      0.0020
    124  N         18.6170   32.2580   21.1070 N.am  191  SER191     -0.1938
    125  CA        20.0430   32.5430   21.2750 C.3   191  SER191      0.2055
    126  C         20.5420   33.6980   20.4250 C.2   191  SER191      0.2643
    127  O         20.9130   34.7400   20.9960 O.2   191  SER191     -0.2714
    128  CB        20.9120   31.3170   21.0540 C.3   191  SER191      0.2130
    129  OG        22.2690   31.6280   21.3480 O.3   191  SER191     -0.2179
    130  N         20.5640   33.5200   19.0880 N.am  192  TRP192     -0.1959
    131  CA        21.0510   34.5540   18.1800 C.3   192  TRP192      0.1771
    132  C         20.4730   34.4770   16.7610 C.2   192  TRP192      0.2620
    133  O         19.7690   33.5430   16.4200 O.2   192  TRP192     -0.2715
    134  CB        22.5850   34.5500   18.1420 C.3   192  TRP192      0.0590
    135  CG        23.2240   33.2710   17.7000 C.ar  192  TRP192      0.0006
    136  CD1       23.5940   32.2050   18.4900 C.ar  192  TRP192      0.0946
    137  CD2       23.6020   32.9270   16.3710 C.ar  192  TRP192      0.0152
    138  NE1       24.1550   31.2280   17.7370 N.ar  192  TRP192     -0.2442
    139  CE2       24.1900   31.6480   16.4250 C.ar  192  TRP192      0.0810
    140  CE3       23.5260   33.5900   15.1300 C.ar  192  TRP192      0.0012
    141  CZ2       24.6800   30.9950   15.2570 C.ar  192  TRP192      0.0191
    142  CZ3       24.0280   32.9650   13.9950 C.ar  192  TRP192      0.0001
    143  CH2       24.5790   31.6670   14.0600 C.ar  192  TRP192      0.0015
    144  N         20.7710   35.4910   15.9620 N.am  193  GLY193     -0.1940
    145  CA        20.4900   35.4720   14.5260 C.3   193  GLY193      0.2014
    146  C         21.1480   36.6440   13.8530 C.2   193  GLY193      0.2640
    147  O         22.2080   37.0280   14.2490 O.2   193  GLY193     -0.2714
    148  N         20.5140   37.2410   12.8530 N.am  194  THR194     -0.1936
    149  CA        21.1160   38.3980   12.1920 C.3   194  THR194      0.2028
    150  C         20.4150   39.7110   12.5610 C.2   194  THR194      0.2642
    151  O         19.2340   39.7200   12.9520 O.2   194  THR194     -0.2714
    152  CB        21.1890   38.2060   10.6480 C.3   194  THR194      0.1808
    153  OG1       19.9140   37.8300   10.0980 O.3   194  THR194     -0.2208
    154  CG2       22.1860   37.1610   10.3390 C.3   194  THR194      0.0379
    155  N         21.1540   40.8170   12.4040 N.am  195  PHE195     -0.1973
    156  CA        20.6530   42.1780   12.6350 C.3   195  PHE195      0.1639
    157  C         20.6140   43.0010   11.3310 C.2   195  PHE195      0.2290
    158  O         21.5810   42.9680   10.5540 O.2   195  PHE195     -0.2864
    159  CB        21.5380   42.8640   13.6470 C.3   195  PHE195      0.0560
    160  CG        21.0650   44.2320   14.0290 C.ar  195  PHE195     -0.0200
    161  CD1       20.0680   44.3910   14.9770 C.ar  195  PHE195     -0.0042
    162  CD2       21.6260   45.3550   13.4540 C.ar  195  PHE195     -0.0042
    163  CE1       19.6190   45.6530   15.3290 C.ar  195  PHE195     -0.0003
    164  CE2       21.1860   46.6120   13.8000 C.ar  195  PHE195     -0.0003
    165  CZ        20.1750   46.7620   14.7320 C.ar  195  PHE195     -0.0000
    166  N         16.6210   42.3200   12.8580 N.3   197  CYS197     -0.1221
    167  CA        15.8420   41.1240   13.0310 C.3   197  CYS197      0.1808
    168  C         14.8830   40.9900   11.8900 C.2   197  CYS197      0.2601
    169  O         14.5050   41.9760   11.2430 O.2   197  CYS197     -0.2717
    170  CB        15.0400   41.1490   14.3450 C.3   197  CYS197      0.0970
    171  SG        15.9960   41.3400   15.8850 S.3   197  CYS197     -0.0800
    172  N         14.4990   39.7450   11.6540 N.am  198  GLY198     -0.1957
    173  CA        13.4500   39.4100   10.7200 C.3   198  GLY198      0.1869
    174  C         13.8350   39.5550    9.2650 C.2   198  GLY198      0.2309
    175  O         12.9870   39.8770    8.4450 O.2   198  GLY198     -0.2863
    176  N         16.3780   32.3150   12.8690 N.3   204  GLY204     -0.1210
    177  CA        16.7490   32.4590   14.2870 C.3   204  GLY204      0.1956
    178  C         17.4750   31.2240   14.7960 C.2   204  GLY204      0.2612
    179  O         17.1640   30.1160   14.3850 O.2   204  GLY204     -0.2717
    180  N         18.4510   31.4040   15.6760 N.am  205  VAL205     -0.1965
    181  CA        19.2030   30.2560   16.2100 C.3   205  VAL205      0.1727
    182  C         18.8760   30.0090   17.7140 C.2   205  VAL205      0.2616
    183  O         18.6990   30.9230   18.4700 O.2   205  VAL205     -0.2715
    184  CB        20.7280   30.4090   15.9230 C.3   205  VAL205      0.0290
    185  CG1       21.5510   29.2770   16.5590 C.3   205  VAL205      0.0023
    186  CG2       20.9870   30.4310   14.4170 C.3   205  VAL205      0.0023
    187  N         18.8040   28.7430   18.1240 N.am  206  TYR206     -0.1974
    188  CA        18.3080   28.3760   19.4630 C.3   206  TYR206      0.1639
    189  C         19.2310   27.4100   20.1320 C.2   206  TYR206      0.2290
    190  O         19.8330   26.5670   19.4710 O.2   206  TYR206     -0.2864
    191  CB        16.9180   27.7240   19.4040 C.3   206  TYR206      0.0560
    192  CG        15.8670   28.6470   18.8210 C.ar  206  TYR206     -0.0198
    193  CD1       15.8250   28.8840   17.4480 C.ar  206  TYR206     -0.0009
    194  CD2       14.9280   29.3390   19.6420 C.ar  206  TYR206     -0.0009
    195  CE1       14.9180   29.7810   16.8800 C.ar  206  TYR206      0.0417
    196  CE2       14.0030   30.2450   19.0730 C.ar  206  TYR206      0.0417
    197  CZ        13.9940   30.4540   17.6890 C.ar  206  TYR206      0.1957
    198  OH        13.0900   31.3290   17.0620 O.3   206  TYR206     -0.2866
@<TRIPOS>BOND
     1   175   174    2
     2   174   173    1
     3   153   152    1
     4   154   152    1
     5   158   157    2
     6   152   149    1
     7   173   172    1
     8   169   168    2
     9   157   156    1
    10   172   168   am
    11   168   167    1
    12    87    85   am
    13   149   150    1
    14   149   148    1
    15   155   150   am
    16   155   156    1
    17   150   151    2
    18   156   159    1
    19   148   146   am
    20   166   167    1
    21   176   177    1
    22   167   170    1
    23    85    84    1
    24    85    86    2
    25    84    81    1
    26    80    81    1
    27   162   164   ar
    28   162   160   ar
    29   159   160    1
    30   164   165   ar
    31   146   147    2
    32   146   145    1
    33   142   143   ar
    34   142   140   ar
    35   160   161   ar
    36   143   141   ar
    37    81    82    1
    38   177   178    1
    39   170   171    1
    40   179   178    2
    41   186   184    1
    42   145   144    1
    43   165   163   ar
    44   178   180   am
    45   161   163   ar
    46   140   137   ar
    47   141   139   ar
    48    82    83    2
    49    82    88   am
    50   180   181    1
    51   171    98    1
    52   184   181    1
    53   184   185    1
    54   144   132   am
    55    88    89    1
    56   181   182    1
    57    91    90    2
    58   137   139   ar
    59   137   135   ar
    60   133   132    2
    61   139   138   ar
    62   132   131    1
    63   195   193   ar
    64   195   197   ar
    65    98    97    1
    66   198   197    1
    67    90    89    1
    68    90    93   am
    69   193   192   ar
    70    89    92    1
    71    62    63    1
    72   197   196   ar
    73   135   134    1
    74   135   136   ar
    75   182   187   am
    76   182   183    2
    77   138   136   ar
    78    97    94    1
    79   187   188    1
    80   134   131    1
    81   131   130    1
    82    94    93    1
    83    94    95    1
    84    63    64    1
    85    63    66    1
    86   105   104    2
    87   192   191    1
    88   192   194   ar
    89    64    65    2
    90   196   194   ar
    91   130   126   am
    92    67    66    1
    93   191   188    1
    94   188   189    1
    95   190   189    2
    96    66    68    1
    97   104   106   am
    98   104   103    1
    99    95    99   am
   100    95    96    2
   101    99   100    1
   102    51    53   ar
   103    51    49   ar
   104   126   127    2
   105   126   125    1
   106   103   100    1
   107   128   125    1
   108   128   129    1
   109   122   121    1
   110    53    52   ar
   111   124   125    1
   112   124   119   am
   113   100   101    1
   114    48    49    1
   115    48    45    1
   116    49    50   ar
   117    44    45    1
   118   123   121    1
   119    46    45    1
   120    46    47    2
   121   118   121    1
   122   118   119    1
   123   118   117    1
   124    69    70    1
   125   102   101    2
   126   119   120    2
   127   101   107   am
   128    52    50   ar
   129    70    71    1
   130    70    73    1
   131   107   108    1
   132    79    77   ar
   133    79    78   ar
   134    71    72    2
   135    77    75   ar
   136    78    76   ar
   137    61    59   ar
   138    75    74   ar
   139   111   112    1
   140    76    74   ar
   141    74    73    1
   142    42    43   ar
   143    42    40   ar
   144    58    59    1
   145    58    55    1
   146   112   115    1
   147   112   113    1
   148   115   116    1
   149   108   109    1
   150    43    41   ar
   151   109   110    2
   152    40    39   ar
   153    59    60   ar
   154    54    55    1
   155    41    39   ar
   156    39    38    1
   157    55    56    1
   158   113   114    2
   159    57    56    2
   160    38    35    1
   161    17    15    1
   162    35    34    1
   163    35    36    1
   164    21    20    2
   165    37    36    2
   166    15    16    1
   167    15    14    1
   168    33    32    1
   169    29    30    1
   170    29    32    1
   171    29    28    1
   172     9     7   am
   173    20    28   am
   174    20    19    1
   175    14    11    1
   176    30    31    2
   177    13    12    2
   178    12    18   am
   179    12    11    1
   180    19    18    1
   181    19    22    1
   182     7     8    2
   183     7     6    1
   184    11    10    1
   185    26    24   ar
   186    26    27   ar
   187    24    23   ar
   188    27    25   ar
   189    10     3   am
   190     6     5    1
   191    23    25   ar
   192    23    22    1
   193     3     2    1
   194     3     4    2
   195     5     2    1
   196     2     1    1
