@<TRIPOS>MOLECULE
tmp/5y9mB00.pdb
 109 104 0 0 0
SMALL
GASTEIGER

@<TRIPOS>ATOM
      1  N          6.0740  -21.5050   -1.9210 N.3    40  LEU40      -0.1245
      2  CA         7.5300  -21.4640   -1.8510 C.3    40  LEU40       0.1561
      3  C          8.1480  -22.7690   -1.3420 C.2    40  LEU40       0.2260
      4  O          9.0900  -23.2910   -1.9390 O.2    40  LEU40      -0.2867
      5  CB         7.9910  -20.3150   -0.9570 C.3    40  LEU40       0.0270
      6  CG         9.5030  -20.2860   -0.7010 C.3    40  LEU40       0.0019
      7  CD1       10.2620  -20.0570   -2.0070 C.3    40  LEU40       0.0001
      8  CD2        9.8670  -19.2250    0.3460 C.3    40  LEU40       0.0001
      9  N          6.6410  -23.1250    3.7960 N.3    42  TYR42      -0.1241
     10  CA         6.3850  -21.8280    4.4280 C.3    42  TYR42       0.1605
     11  C          4.9200  -21.4280    4.2370 C.2    42  TYR42       0.2264
     12  O          4.5190  -20.9670    3.1590 O.2    42  TYR42      -0.2867
     13  CB         7.3280  -20.7660    3.8640 C.3    42  TYR42       0.0534
     14  CG         8.7670  -21.2180    3.8410 C.ar   42  TYR42      -0.0201
     15  CD1        9.6200  -20.9410    4.9030 C.ar   42  TYR42      -0.0009
     16  CD2        9.2660  -21.9430    2.7670 C.ar   42  TYR42      -0.0009
     17  CE1       10.9420  -21.3640    4.8910 C.ar   42  TYR42       0.0417
     18  CE2       10.5840  -22.3760    2.7420 C.ar   42  TYR42       0.0417
     19  CZ        11.4180  -22.0820    3.8050 C.ar   42  TYR42       0.1957
     20  OH        12.7290  -22.5160    3.7700 O.3    42  TYR42      -0.2866
     21  N          3.3310  -18.4030    2.1820 N.3    45  VAL45      -0.1245
     22  CA         4.4140  -17.7820    1.4490 C.3    45  VAL45       0.1561
     23  C          4.4140  -18.3190    0.0160 C.2    45  VAL45       0.2260
     24  O          4.4230  -19.5280   -0.1950 O.2    45  VAL45      -0.2867
     25  CB         5.7690  -18.0280    2.1400 C.3    45  VAL45       0.0252
     26  CG1        6.8540  -17.3340    1.3850 C.3    45  VAL45       0.0019
     27  CG2        5.7180  -17.5180    3.5680 C.3    45  VAL45       0.0019
     28  N          9.3570  -13.2610   -3.5020 N.3    58  VAL58      -0.1245
     29  CA         8.6010  -14.0820   -2.5780 C.3    58  VAL58       0.1561
     30  C          7.5590  -13.2000   -1.9010 C.2    58  VAL58       0.2260
     31  O          7.8800  -12.1060   -1.4500 O.2    58  VAL58      -0.2867
     32  CB         9.5430  -14.7390   -1.5400 C.3    58  VAL58       0.0252
     33  CG1        8.8120  -15.0790   -0.2890 C.3    58  VAL58       0.0019
     34  CG2       10.2120  -15.9620   -2.1400 C.3    58  VAL58       0.0019
     35  N          4.7060  -12.9150    1.1330 N.3    60  LYS60      -0.1245
     36  CA         4.1880  -13.4580    2.3840 C.3    60  LYS60       0.1561
     37  C          2.8840  -12.7520    2.7500 C.2    60  LYS60       0.2260
     38  O          2.8670  -11.5420    2.9720 O.2    60  LYS60      -0.2867
     39  CB         5.2250  -13.2970    3.5000 C.3    60  LYS60       0.0271
     40  CG         4.7420  -13.6490    4.8960 C.3    60  LYS60       0.0035
     41  CD         5.7340  -13.1070    5.9290 C.3    60  LYS60       0.0206
     42  CE         5.6040  -13.8150    7.2560 C.3    60  LYS60       0.1093
     43  NZ         6.6390  -13.3180    8.1930 N.3    60  LYS60      -0.1314
     44  N         16.9690  -10.9560    5.5300 N.3    87  ILE87      -0.1245
     45  CA        16.1480  -11.0620    4.3250 C.3    87  ILE87       0.1561
     46  C         15.7280   -9.6450    3.9120 C.2    87  ILE87       0.2260
     47  O         15.3990   -8.7990    4.7540 O.2    87  ILE87      -0.2867
     48  CB        14.9300  -11.9750    4.5490 C.3    87  ILE87       0.0252
     49  CG1       14.2360  -12.3250    3.2210 C.3    87  ILE87       0.0019
     50  CG2       13.9690  -11.3460    5.5740 C.3    87  ILE87       0.0019
     51  CD1       15.0100  -13.3150    2.3360 C.3    87  ILE87       0.0001
     52  N          9.5020  -10.0570   -0.5310 N.3   105  PHE105     -0.1227
     53  CA        10.9150  -10.2980   -0.1920 C.3   105  PHE105      0.1736
     54  C         11.7550  -10.7670   -1.3840 C.2   105  PHE105      0.2595
     55  O         11.2290  -11.3000   -2.3700 O.2   105  PHE105     -0.2718
     56  CB        11.0480  -11.3660    0.9110 C.3   105  PHE105      0.0547
     57  CG        10.4060  -11.0030    2.2250 C.ar  105  PHE105     -0.0202
     58  CD1       11.0650  -10.1870    3.1380 C.ar  105  PHE105     -0.0042
     59  CD2        9.1610  -11.5390    2.5770 C.ar  105  PHE105     -0.0042
     60  CE1       10.4760   -9.8690    4.3600 C.ar  105  PHE105     -0.0003
     61  CE2        8.5690  -11.2410    3.8040 C.ar  105  PHE105     -0.0003
     62  CZ         9.2300  -10.4040    4.7010 C.ar  105  PHE105     -0.0000
     63  N         13.0690  -10.6110   -1.2740 N.am  106  GLU106     -0.1979
     64  CA        13.9780  -11.2170   -2.2400 C.3   106  GLU106      0.1602
     65  C         13.7930  -12.7380   -2.2370 C.2   106  GLU106      0.2287
     66  O         13.4700  -13.3320   -1.2010 O.2   106  GLU106     -0.2864
     67  CB        15.4330  -10.8560   -1.9160 C.3   106  GLU106      0.0415
     68  CG        15.9120  -11.4690   -0.6090 C.3   106  GLU106      0.1163
     69  CD        17.3470  -11.1020   -0.2610 C.2   106  GLU106      0.3649
     70  OE1       18.1610  -10.9070   -1.1850 O.co2 106  GLU106     -0.2457
     71  OE2       17.6560  -11.0180    0.9410 O.co2 106  GLU106     -0.2457
     72  N         17.5320  -19.5350    6.1230 N.3   155  MET155     -0.1245
     73  CA        17.5010  -20.0870    4.7750 C.3   155  MET155      0.1570
     74  C         18.9230  -20.1560    4.2670 C.2   155  MET155      0.2261
     75  O         19.6870  -19.1940    4.3970 O.2   155  MET155     -0.2867
     76  CB        16.6480  -19.2370    3.8190 C.3   155  MET155      0.0387
     77  CG        15.1380  -19.2950    4.0690 C.3   155  MET155      0.0595
     78  SD        14.2420  -18.3210    2.8320 S.3   155  MET155     -0.1393
     79  CE        13.6510  -19.5870    1.7060 C.3   155  MET155      0.0692
     80  N         15.2850  -15.1030    8.2620 N.3   166  ILE166     -0.1231
     81  CA        13.9320  -14.7350    7.8360 C.3   166  ILE166      0.1692
     82  C         12.9220  -14.7190    8.9890 C.2   166  ILE166      0.2592
     83  O         13.2680  -14.9960   10.1390 O.2   166  ILE166     -0.2718
     84  CB        13.3910  -15.6970    6.7440 C.3   166  ILE166      0.0266
     85  CG1       13.2940  -17.1250    7.2860 C.3   166  ILE166      0.0019
     86  CG2       14.2580  -15.6390    5.4790 C.3   166  ILE166      0.0020
     87  CD1       12.4270  -18.0660    6.4570 C.3   166  ILE166      0.0001
     88  N         11.6780  -14.3880    8.6410 N.am  167  ASP167     -0.1960
     89  CA        10.5260  -14.3400    9.5510 C.3   167  ASP167      0.1840
     90  C         10.7410  -13.5340   10.8210 C.2   167  ASP167      0.2622
     91  O         10.9910  -14.0730   11.9080 O.2   167  ASP167     -0.2715
     92  CB        10.0590  -15.7310    9.9420 C.3   167  ASP167      0.1450
     93  CG         8.6060  -15.7230   10.3720 C.2   167  ASP167      0.3671
     94  OD1        8.0870  -14.6190   10.6650 O.co2 167  ASP167     -0.2456
     95  OD2        7.9790  -16.7950   10.4050 O.co2 167  ASP167     -0.2456
     96  N         10.6040  -12.2300   10.6640 N.am  168  TRP168     -0.1974
     97  CA        10.7810  -11.2910   11.7490 C.3   168  TRP168      0.1640
     98  C          9.4530  -11.0070   12.4510 C.2   168  TRP168      0.2290
     99  O          9.2960  -10.0040   13.1310 O.2   168  TRP168     -0.2864
    100  CB        11.4380  -10.0330   11.1850 C.3   168  TRP168      0.0576
    101  CG        12.8300  -10.3740   10.7030 C.ar  168  TRP168      0.0006
    102  CD1       13.1770  -10.9650    9.5150 C.ar  168  TRP168      0.0946
    103  CD2       14.0480  -10.1790   11.4250 C.ar  168  TRP168      0.0152
    104  NE1       14.5430  -11.1370    9.4550 N.ar  168  TRP168     -0.2442
    105  CE2       15.1000  -10.6680   10.6150 C.ar  168  TRP168      0.0810
    106  CE3       14.3540   -9.6430   12.6840 C.ar  168  TRP168      0.0012
    107  CZ2       16.4350  -10.6410   11.0210 C.ar  168  TRP168      0.0191
    108  CZ3       15.6810   -9.6180   13.0910 C.ar  168  TRP168      0.0001
    109  CH2       16.7060  -10.1070   12.2520 C.ar  168  TRP168      0.0015
@<TRIPOS>BOND
     1    28    29    1
     2    29    30    1
     3    29    32    1
     4    55    54    2
     5    64    65    1
     6    64    67    1
     7    64    63    1
     8    65    66    2
     9    34    32    1
    10     7     6    1
    11     4     3    2
    12     1     2    1
    13    67    68    1
    14    30    31    2
    15     2     3    1
    16     2     5    1
    17    32    33    1
    18    54    63   am
    19    54    53    1
    20    70    69   ar
    21     5     6    1
    22     6     8    1
    23    68    69    1
    24    52    53    1
    25    69    71   ar
    26    24    23    2
    27    53    56    1
    28    23    22    1
    29    56    57    1
    30    35    36    1
    31    26    25    1
    32    22    25    1
    33    22    21    1
    34    79    78    1
    35    25    27    1
    36    57    59   ar
    37    57    58   ar
    38    51    49    1
    39    36    37    1
    40    36    39    1
    41    59    61   ar
    42    18    16   ar
    43    18    19   ar
    44    37    38    2
    45    16    14   ar
    46    78    77    1
    47    58    60   ar
    48    12    11    2
    49    49    48    1
    50    39    40    1
    51    20    19    1
    52     9    10    1
    53    61    62   ar
    54    19    17   ar
    55    76    77    1
    56    76    73    1
    57    14    13    1
    58    14    15   ar
    59    13    10    1
    60    46    45    1
    61    46    47    2
    62    11    10    1
    63    74    75    2
    64    74    73    1
    65    45    48    1
    66    45    44    1
    67    60    62   ar
    68    48    50    1
    69    73    72    1
    70    17    15   ar
    71    40    41    1
    72    86    84    1
    73    41    42    1
    74    87    85    1
    75    84    85    1
    76    84    81    1
    77    42    43    1
    78    81    80    1
    79    81    82    1
    80    88    82   am
    81    88    89    1
    82    82    83    2
    83   104   102   ar
    84   104   105   ar
    85   102   101   ar
    86    89    92    1
    87    89    90    1
    88    92    93    1
    89    93    95   ar
    90    93    94   ar
    91   105   107   ar
    92   105   103   ar
    93    96    90   am
    94    96    97    1
    95   101   100    1
    96   101   103   ar
    97    90    91    2
    98   107   109   ar
    99   100    97    1
   100   103   106   ar
   101    97    98    1
   102   109   108   ar
   103    98    99    2
   104   106   108   ar
