@<TRIPOS>MOLECULE
tmp/5y9tA00.pdb
 161 153 0 0 0
SMALL
GASTEIGER

@<TRIPOS>ATOM
      1  N          4.5160   45.3250  -18.6190 N.3    22  LEU22      -0.1231
      2  CA         3.3270   45.9290  -18.0740 C.3    22  LEU22       0.1693
      3  C          2.1690   45.3930  -18.8170 C.2    22  LEU22       0.2592
      4  O          1.4840   46.1020  -19.5370 O.2    22  LEU22      -0.2718
      5  CB         3.3980   47.4720  -18.0630 C.3    22  LEU22       0.0284
      6  CG         4.5280   48.2350  -18.7700 C.3    22  LEU22       0.0019
      7  CD1        4.0100   48.9830  -19.9780 C.3    22  LEU22       0.0001
      8  CD2        5.1650   49.2260  -17.8250 C.3    22  LEU22       0.0001
      9  N          1.9550   44.1000  -18.6370 N.am   23  GLY23      -0.1957
     10  CA         0.8620   43.3980  -19.3120 C.3    23  GLY23       0.1869
     11  C          1.3020   42.8840  -20.6730 C.2    23  GLY23       0.2309
     12  O          2.1650   43.5010  -21.3340 O.2    23  GLY23      -0.2863
     13  N          3.8790   44.1950  -23.8380 N.3    30  VAL30      -0.1245
     14  CA         4.1700   45.6230  -23.7290 C.3    30  VAL30       0.1561
     15  C          5.1770   45.7940  -22.6200 C.2    30  VAL30       0.2260
     16  O          4.8820   45.4420  -21.4700 O.2    30  VAL30      -0.2867
     17  CB         2.9380   46.4400  -23.3410 C.3    30  VAL30       0.0252
     18  CG1        3.1710   47.8990  -23.6860 C.3    30  VAL30       0.0019
     19  CG2        1.7000   45.9050  -24.0390 C.3    30  VAL30       0.0019
     20  N          7.1320   52.8250  -23.8560 N.3    47  ALA47      -0.1245
     21  CA         6.4020   51.5920  -23.8070 C.3    47  ALA47       0.1562
     22  C          6.6850   50.9260  -25.1300 C.2    47  ALA47       0.2260
     23  O          6.5580   51.5600  -26.1780 O.2    47  ALA47      -0.2867
     24  CB         4.9280   51.8640  -23.6500 C.3    47  ALA47       0.0290
     25  N          5.9730   47.6720  -27.6700 N.3    49  LYS49      -0.1245
     26  CA         4.9950   46.6770  -28.0030 C.3    49  LYS49       0.1561
     27  C          5.6860   45.7550  -28.9620 C.2    49  LYS49       0.2260
     28  O          6.0730   46.1920  -30.0250 O.2    49  LYS49      -0.2867
     29  CB         3.8200   47.3510  -28.6780 C.3    49  LYS49       0.0271
     30  CG         2.4780   46.7800  -28.3060 C.3    49  LYS49       0.0035
     31  CD         1.3950   47.5680  -29.0360 C.3    49  LYS49       0.0206
     32  CE         0.0090   46.9780  -28.8620 C.3    49  LYS49       0.1093
     33  NZ        -1.0250   48.0170  -29.0940 N.3    49  LYS49      -0.1314
     34  N          6.4210   53.7410  -28.1010 N.3    92  MET92      -0.1230
     35  CA         5.5750   54.8760  -27.8420 C.3    92  MET92       0.1702
     36  C          5.8380   55.4180  -26.4820 C.2    92  MET92       0.2592
     37  O          6.4150   54.7470  -25.6510 O.2    92  MET92      -0.2718
     38  CB         4.1320   54.4720  -27.9480 C.3    92  MET92       0.0401
     39  CG         3.7950   53.1500  -27.2670 C.3    92  MET92       0.0596
     40  SD         2.0110   52.7980  -27.2160 S.3    92  MET92      -0.1393
     41  CE         1.4910   54.2380  -26.2640 C.3    92  MET92       0.0692
     42  N          5.3920   56.6450  -26.2690 N.am   93  GLN93      -0.1966
     43  CA         5.5370   57.3340  -24.9940 C.3    93  GLN93       0.1733
     44  C          4.8990   56.5360  -23.8670 C.2    93  GLN93       0.2616
     45  O          3.7600   56.0270  -23.9980 O.2    93  GLN93      -0.2715
     46  CB         4.8370   58.6740  -25.0500 C.3    93  GLN93       0.0408
     47  CG         5.0390   59.4890  -23.8030 C.3    93  GLN93       0.0908
     48  CD         4.0880   60.6450  -23.7000 C.2    93  GLN93       0.2608
     49  OE1        2.9540   60.5880  -24.1780 O.2    93  GLN93      -0.2717
     50  NE2        4.5280   61.6970  -23.0360 N.am   93  GLN93      -0.0878
     51  N          5.6080   56.4870  -22.7470 N.am   94  LEU94      -0.1963
     52  CA         5.1630   55.6960  -21.6430 C.3    94  LEU94       0.1728
     53  C          4.3230   56.5500  -20.7380 C.2    94  LEU94       0.2616
     54  O          4.7710   57.6030  -20.3130 O.2    94  LEU94      -0.2715
     55  CB         6.3650   55.1530  -20.9030 C.3    94  LEU94       0.0311
     56  CG         6.1400   54.7230  -19.4630 C.3    94  LEU94       0.0022
     57  CD1        5.9780   53.2220  -19.3640 C.3    94  LEU94       0.0001
     58  CD2        7.3200   55.2310  -18.6650 C.3    94  LEU94       0.0001
     59  N          3.1300   56.0590  -20.4290 N.am   95  MET95      -0.1964
     60  CA         2.2330   56.6940  -19.4840 C.3    95  MET95       0.1722
     61  C          2.3390   55.8260  -18.2620 C.2    95  MET95       0.2458
     62  O          1.7890   54.7400  -18.2460 O.2    95  MET95      -0.2730
     63  CB         0.8100   56.6640  -20.0100 C.3    95  MET95       0.0427
     64  CG         0.7070   56.8800  -21.5280 C.3    95  MET95       0.0599
     65  SD         1.0930   58.5700  -21.9930 S.3    95  MET95      -0.1393
     66  CE        -0.2400   59.4050  -21.1600 C.3    95  MET95       0.0692
     67  N          3.0840   56.2690  -17.2550 N.am   96  PRO96      -0.2716
     68  CA         3.3890   55.3760  -16.1340 C.3    96  PRO96       0.1536
     69  C          2.2240   54.7930  -15.3630 C.2    96  PRO96       0.2599
     70  O          2.2790   53.6340  -14.9690 O.2    96  PRO96      -0.2715
     71  CB         4.1810   56.2650  -15.2140 C.3    96  PRO96       0.0310
     72  CG         4.8970   57.1920  -16.1470 C.3    96  PRO96       0.0237
     73  CD         3.9000   57.4940  -17.2080 C.3    96  PRO96       0.0939
     74  N          1.1660   55.5650  -15.1830 N.am   97  PHE97      -0.1960
     75  CA         0.0560   55.1340  -14.3180 C.3    97  PHE97       0.1771
     76  C         -0.9980   54.2260  -14.9350 C.2    97  PHE97       0.2620
     77  O         -1.9150   53.8240  -14.2150 O.2    97  PHE97      -0.2715
     78  CB        -0.5890   56.3520  -13.7090 C.3    97  PHE97       0.0574
     79  CG         0.3500   57.1310  -12.8600 C.ar   97  PHE97      -0.0200
     80  CD1        0.5110   56.7990  -11.5210 C.ar   97  PHE97      -0.0042
     81  CD2        1.1200   58.1660  -13.4030 C.ar   97  PHE97      -0.0042
     82  CE1        1.3930   57.5040  -10.7310 C.ar   97  PHE97      -0.0003
     83  CE2        2.0060   58.8720  -12.6110 C.ar   97  PHE97      -0.0003
     84  CZ         2.1360   58.5450  -11.2760 C.ar   97  PHE97      -0.0000
     85  N         -0.8760   53.8930  -16.2290 N.am   98  GLY98      -0.1940
     86  CA        -1.7510   52.8910  -16.8550 C.3    98  GLY98       0.2014
     87  C         -3.0520   53.5080  -17.3630 C.2    98  GLY98       0.2639
     88  O         -3.1590   54.7480  -17.4530 O.2    98  GLY98      -0.2714
     89  N         -4.0440   52.6680  -17.6940 N.am   99  CYS99      -0.1967
     90  CA        -5.2900   53.2030  -18.2380 C.3    99  CYS99       0.1712
     91  C         -6.0650   53.9140  -17.1540 C.2    99  CYS99       0.2296
     92  O         -6.0060   53.5400  -15.9760 O.2    99  CYS99      -0.2864
     93  CB        -6.1740   52.1650  -18.9320 C.3    99  CYS99       0.0983
     94  SG        -6.5750   50.6890  -18.0250 S.3    99  CYS99      -0.0798
     95  N         -9.2270   54.0250  -16.7480 N.3   101  LEU101     -0.1231
     96  CA       -10.2400   53.1700  -16.1760 C.3   101  LEU101      0.1693
     97  C         -9.7720   52.4530  -14.9140 C.2   101  LEU101      0.2592
     98  O        -10.3960   52.5530  -13.8790 O.2   101  LEU101     -0.2718
     99  CB       -10.6740   52.1110  -17.1730 C.3   101  LEU101      0.0284
    100  CG       -11.7520   51.1860  -16.6260 C.3   101  LEU101      0.0019
    101  CD1      -13.0100   51.9560  -16.2170 C.3   101  LEU101      0.0001
    102  CD2      -12.0720   50.2020  -17.7170 C.3   101  LEU101      0.0001
    103  N         -8.6750   51.7220  -15.0120 N.am  102  ASP102     -0.1974
    104  CA        -8.1490   51.0380  -13.8410 C.3   102  ASP102      0.1709
    105  C         -7.7720   52.0680  -12.8170 C.2   102  ASP102      0.2293
    106  O         -7.9310   51.8280  -11.6230 O.2   102  ASP102     -0.2864
    107  CB        -6.9310   50.1950  -14.1590 C.3   102  ASP102      0.1436
    108  CG        -7.2510   49.0610  -15.0890 C.2   102  ASP102      0.3671
    109  OD1       -8.0380   48.1950  -14.6930 O.co2 102  ASP102     -0.2456
    110  OD2       -6.7400   49.0180  -16.2380 O.co2 102  ASP102     -0.2456
    111  N         -8.9000   52.1790   -8.7310 N.3   106  GLU106     -0.1245
    112  CA        -7.9830   51.9860   -7.6460 C.3   106  GLU106      0.1567
    113  C         -7.9090   53.1870   -6.7580 C.2   106  GLU106      0.2260
    114  O         -7.2890   53.1000   -5.7150 O.2   106  GLU106     -0.2867
    115  CB        -6.5840   51.6520   -8.1700 C.3   106  GLU106      0.0388
    116  CG        -6.4480   50.2140   -8.6510 C.3   106  GLU106      0.1160
    117  CD        -5.6270   49.3750   -7.6960 C.2   106  GLU106      0.3649
    118  OE1       -4.4800   49.8000   -7.3880 O.co2 106  GLU106     -0.2457
    119  OE2       -6.1130   48.3000   -7.2600 O.co2 106  GLU106     -0.2457
    120  N        -10.8670   52.9040  -20.9140 N.3   143  ARG143     -0.1231
    121  CA        -9.7280   51.9780  -20.9560 C.3   143  ARG143      0.1694
    122  C         -8.6660   52.3730  -21.9420 C.2   143  ARG143      0.2592
    123  O         -7.5590   51.8760  -21.8440 O.2   143  ARG143     -0.2718
    124  CB       -10.1660   50.5620  -21.2530 C.3   143  ARG143      0.0321
    125  CG       -10.4970   50.2490  -22.7090 C.3   143  ARG143      0.0489
    126  CD       -11.5520   49.1410  -22.8130 C.3   143  ARG143      0.2205
    127  NE       -12.8290   49.6060  -23.3840 N.pl3 143  ARG143     -0.0865
    128  CZ       -13.1330   49.5670  -24.6840 C.cat 143  ARG143      0.5346
    129  NH1      -12.2570   49.0940  -25.5770 N.pl3 143  ARG143      0.1354
    130  NH2      -14.3110   50.0190  -25.1120 N.pl3 143  ARG143      0.1354
    131  N         -8.9940   53.2540  -22.8910 N.am  144  ASN144     -0.1974
    132  CA        -8.0330   53.7110  -23.9160 C.3   144  ASN144      0.1688
    133  C         -7.4510   55.1050  -23.7020 C.2   144  ASN144      0.2292
    134  O         -6.8550   55.6930  -24.5920 O.2   144  ASN144     -0.2864
    135  CB        -8.6980   53.6480  -25.2810 C.3   144  ASN144      0.1181
    136  CG        -9.0620   52.2380  -25.6670 C.2   144  ASN144      0.2629
    137  OD1       -8.4560   51.2860  -25.1870 O.2   144  ASN144     -0.2716
    138  ND2      -10.0730   52.0900  -26.5120 N.am  144  ASN144     -0.0877
    139  N         -4.7740   56.8300  -21.2160 N.3   146  LEU146     -0.1245
    140  CA        -3.7530   56.4050  -20.2930 C.3   146  LEU146      0.1561
    141  C         -3.2900   57.6120  -19.5470 C.2   146  LEU146      0.2260
    142  O         -3.4450   58.7160  -20.0360 O.2   146  LEU146     -0.2867
    143  CB        -2.6120   55.7520  -21.0310 C.3   146  LEU146      0.0270
    144  CG        -2.6000   54.2160  -21.0050 C.3   146  LEU146      0.0019
    145  CD1       -3.4630   53.6330  -22.1060 C.3   146  LEU146      0.0001
    146  CD2       -1.1730   53.7030  -21.1430 C.3   146  LEU146      0.0001
    147  N         -4.9810   57.1260  -26.3820 N.3   156  THR156     -0.1203
    148  CA        -4.0380   56.2130  -27.0370 C.3   156  THR156      0.1994
    149  C         -4.7600   54.9640  -27.5690 C.2   156  THR156      0.2617
    150  O         -5.9920   54.9210  -27.6950 O.2   156  THR156     -0.2717
    151  CB        -2.8890   55.7970  -26.0750 C.3   156  THR156      0.1784
    152  OG1       -3.2550   54.5840  -25.4330 O.3   156  THR156     -0.2211
    153  CG2       -2.6350   56.7960  -24.9210 C.3   156  THR156      0.0376
    154  N         -3.9770   53.9480  -27.8940 N.am  157  ASP157     -0.1973
    155  CA        -4.5130   52.6930  -28.4160 C.3   157  ASP157      0.1709
    156  C         -5.5270   52.9660  -29.5110 C.2   157  ASP157      0.2293
    157  O         -6.7350   52.9110  -29.2850 O.2   157  ASP157     -0.2864
    158  CB        -5.1310   51.8090  -27.3240 C.3   157  ASP157      0.1436
    159  CG        -5.4480   50.3760  -27.8350 C.2   157  ASP157      0.3671
    160  OD1       -6.4350   50.2000  -28.5930 O.co2 157  ASP157     -0.2456
    161  OD2       -4.7030   49.4150  -27.4960 O.co2 157  ASP157     -0.2456
@<TRIPOS>BOND
     1    28    27    2
     2   156   157    2
     3   156   155    1
     4    33    32    1
     5    31    32    1
     6    31    30    1
     7    27    26    1
     8    29    30    1
     9    29    26    1
    10   160   159   ar
    11   155   154    1
    12   155   158    1
    13    34    35    1
    14    26    25    1
    15    38    35    1
    16    38    39    1
    17   154   149   am
    18    35    36    1
    19   159   161   ar
    20   159   158    1
    21   150   149    2
    22   149   148    1
    23    39    40    1
    24    40    41    1
    25   148   147    1
    26   148   151    1
    27   138   136   am
    28    36    42   am
    29    36    37    2
    30    42    43    1
    31    23    22    2
    32   151   152    1
    33   151   153    1
    34   136   135    1
    35   136   137    2
    36   129   128    1
    37   135   132    1
    38    22    21    1
    39   130   128    1
    40    46    43    1
    41    46    47    1
    42    43    44    1
    43   128   127    2
    44   134   133    2
    45    49    48    2
    46    19    17    1
    47    45    44    2
    48   132   133    1
    49   132   131    1
    50    44    51   am
    51    20    21    1
    52    13    14    1
    53    21    24    1
    54    47    48    1
    55    14    17    1
    56    14    15    1
    57    48    50   am
    58    18    17    1
    59   127   126    1
    60   131   122   am
    61   126   125    1
    62    51    52    1
    63   125   124    1
    64    15    16    2
    65   145   144    1
    66    65    64    1
    67    65    66    1
    68   122   123    2
    69   122   121    1
    70    52    55    1
    71    52    53    1
    72    64    63    1
    73    12    11    2
    74   124   121    1
    75   139   140    1
    76   146   144    1
    77   143   144    1
    78   143   140    1
    79   121   120    1
    80    55    56    1
    81    53    59   am
    82    53    54    2
    83    11    10    1
    84    59    60    1
    85   140   141    1
    86   142   141    2
    87    63    60    1
    88     7     6    1
    89     4     3    2
    90    60    61    1
    91    56    57    1
    92    56    58    1
    93    10     9    1
    94    93    90    1
    95    93    94    1
    96     3     9   am
    97     3     2    1
    98     6     5    1
    99     6     8    1
   100     1     2    1
   101    61    62    2
   102    61    67   am
   103    90    89    1
   104    90    91    1
   105     2     5    1
   106   102   100    1
   107    89    87   am
   108    88    87    2
   109    87    86    1
   110    67    73    1
   111    67    68    1
   112    73    72    1
   113    99   100    1
   114    99    96    1
   115    91    92    2
   116    86    85    1
   117    95    96    1
   118   100   101    1
   119   110   108   ar
   120    85    76   am
   121    96    97    1
   122    72    71    1
   123    68    69    1
   124    68    71    1
   125    69    74   am
   126    69    70    2
   127    74    75    1
   128   108   109   ar
   129   108   107    1
   130   103    97   am
   131   103   104    1
   132    76    75    1
   133    76    77    2
   134    97    98    2
   135    75    78    1
   136   107   104    1
   137   104   105    1
   138    78    79    1
   139    81    79   ar
   140    81    83   ar
   141    79    80   ar
   142   105   106    2
   143    83    84   ar
   144    80    82   ar
   145    84    82   ar
   146   111   112    1
   147   116   115    1
   148   116   117    1
   149   115   112    1
   150   117   118   ar
   151   117   119   ar
   152   112   113    1
   153   113   114    2
