@<TRIPOS>MOLECULE
tmp/5y9xA00.pdb
 154 148 0 0 0
SMALL
GASTEIGER

@<TRIPOS>ATOM
      1  N         -8.4630    3.9780    7.0710 N.3   117  ARG117     -0.1245
      2  CA        -9.5640    3.8260    8.0220 C.3   117  ARG117      0.1563
      3  C        -10.1320    5.2030    8.3360 C.2   117  ARG117      0.2260
      4  O         -9.6670    5.8870    9.2620 O.2   117  ARG117     -0.2867
      5  CB        -9.0970    3.0940    9.2800 C.3   117  ARG117      0.0307
      6  CG        -8.3150    1.8370    8.9550 C.3   117  ARG117      0.0489
      7  CD        -7.9140    1.0910   10.2090 C.3   117  ARG117      0.2205
      8  NE        -7.1880   -0.1350    9.9050 N.pl3 117  ARG117     -0.0865
      9  CZ        -6.5280   -0.8530   10.8080 C.cat 117  ARG117      0.5346
     10  NH1       -6.4950   -0.4610   12.0760 N.pl3 117  ARG117      0.1354
     11  NH2       -5.9020   -1.9640   10.4470 N.pl3 117  ARG117      0.1354
     12  N        -13.7290    5.6720   15.4210 N.3   121  ILE121     -0.1245
     13  CA       -13.7330    4.4350   16.2050 C.3   121  ILE121      0.1561
     14  C        -14.8390    4.4370   17.2560 C.2   121  ILE121      0.2260
     15  O        -15.4600    3.4000   17.5190 O.2   121  ILE121     -0.2867
     16  CB       -12.3490    4.2170   16.8480 C.3   121  ILE121      0.0252
     17  CG1      -11.3170    3.8430   15.7870 C.3   121  ILE121      0.0019
     18  CG2      -12.4080    3.1580   17.9640 C.3   121  ILE121      0.0019
     19  CD1      -11.5290    2.4750   15.1860 C.3   121  ILE121      0.0001
     20  N        -12.5310   -4.3430   18.3120 N.3   132  ASP132     -0.1239
     21  CA       -11.1450   -4.0230   18.6100 C.3   132  ASP132      0.1674
     22  C        -10.9850   -2.9970   19.7280 C.2   132  ASP132      0.2266
     23  O         -9.8620   -2.5330   19.9620 O.2   132  ASP132     -0.2867
     24  CB       -10.3780   -3.6400   17.3410 C.3   132  ASP132      0.1410
     25  CG        -9.9780   -4.8580   16.5190 C.2   132  ASP132      0.3668
     26  OD1      -10.1210   -5.9960   17.0210 O.co2 132  ASP132     -0.2456
     27  OD2       -9.5090   -4.6850   15.3780 O.co2 132  ASP132     -0.2456
     28  N         -6.3570   -7.6080   22.2510 N.3   136  HIS136     -0.1241
     29  CA        -6.1580   -8.8120   21.4590 C.3   136  HIS136      0.1621
     30  C         -4.7780   -8.7520   20.8240 C.2   136  HIS136      0.2264
     31  O         -4.1590   -7.6860   20.7300 O.2   136  HIS136     -0.2867
     32  CB        -7.2180   -8.8970   20.3580 C.3   136  HIS136      0.0745
     33  CG        -7.1030   -7.7880   19.3590 C.ar  136  HIS136      0.0817
     34  ND1       -7.5600   -6.5120   19.6080 N.ar  136  HIS136     -0.2268
     35  CD2       -6.5320   -7.7510   18.1320 C.ar  136  HIS136      0.1154
     36  CE1       -7.2790   -5.7330   18.5750 C.ar  136  HIS136      0.1986
     37  NE2       -6.6520   -6.4620   17.6640 N.ar  136  HIS136     -0.2212
     38  N         -3.3550   -9.8880   16.9370 N.3   138  ASP138     -0.1239
     39  CA        -3.9960  -10.0020   15.6340 C.3   138  ASP138      0.1674
     40  C         -3.9940  -11.4430   15.1400 C.2   138  ASP138      0.2266
     41  O         -2.9610  -12.1250   15.1490 O.2   138  ASP138     -0.2867
     42  CB        -3.3190   -9.1000   14.6080 C.3   138  ASP138      0.1410
     43  CG        -3.7350   -7.6500   14.7440 C.2   138  ASP138      0.3668
     44  OD1       -4.6380   -7.3360   15.5550 O.co2 138  ASP138     -0.2456
     45  OD2       -3.1630   -6.8260   14.0080 O.co2 138  ASP138     -0.2456
     46  N         -6.6300  -13.5200   12.0800 N.3   140  PHE140     -0.1241
     47  CA        -7.7530  -13.2810   11.1880 C.3   140  PHE140      0.1605
     48  C         -8.2510  -14.6200   10.6690 C.2   140  PHE140      0.2264
     49  O         -7.4800  -15.3590   10.0320 O.2   140  PHE140     -0.2867
     50  CB        -7.3210  -12.3530   10.0540 C.3   140  PHE140      0.0534
     51  CG        -6.7750  -11.0460   10.5520 C.ar  140  PHE140     -0.0203
     52  CD1       -7.6320  -10.0670   11.0380 C.ar  140  PHE140     -0.0042
     53  CD2       -5.4110  -10.8120   10.5890 C.ar  140  PHE140     -0.0042
     54  CE1       -7.1390   -8.8670   11.5260 C.ar  140  PHE140     -0.0003
     55  CE2       -4.9110   -9.6070   11.0760 C.ar  140  PHE140     -0.0003
     56  CZ        -5.7780   -8.6360   11.5430 C.ar  140  PHE140     -0.0000
     57  N          3.0030   -4.2510   11.8240 N.3   152  ARG152     -0.1245
     58  CA         2.1750   -3.1650   11.3150 C.3   152  ARG152      0.1563
     59  C          2.7920   -1.8070   11.6020 C.2   152  ARG152      0.2260
     60  O          3.3450   -1.5700   12.6860 O.2   152  ARG152     -0.2867
     61  CB         0.7350   -3.2470   11.8470 C.3   152  ARG152      0.0307
     62  CG         0.0060   -4.4820   11.3370 C.3   152  ARG152      0.0489
     63  CD        -1.4700   -4.5200   11.6980 C.3   152  ARG152      0.2205
     64  NE        -2.2070   -5.2440   10.6670 N.pl3 152  ARG152     -0.0865
     65  CZ        -3.5200   -5.4510   10.6630 C.cat 152  ARG152      0.5346
     66  NH1       -4.2790   -5.0240   11.6670 N.pl3 152  ARG152      0.1354
     67  NH2       -4.0790   -6.0880    9.6410 N.pl3 152  ARG152      0.1354
     68  N          1.6160    2.2560   11.5850 N.3   154  PHE154     -0.1241
     69  CA         0.3940    3.0370   11.7220 C.3   154  PHE154      0.1605
     70  C          0.7560    4.5130   11.6850 C.2   154  PHE154      0.2264
     71  O          1.7600    4.9180   12.2720 O.2   154  PHE154     -0.2867
     72  CB        -0.2310    2.8040   13.1030 C.3   154  PHE154      0.0534
     73  CG        -0.7540    1.4180   13.3300 C.ar  154  PHE154     -0.0203
     74  CD1        0.0390    0.4430   13.9230 C.ar  154  PHE154     -0.0042
     75  CD2       -2.0590    1.0980   12.9900 C.ar  154  PHE154     -0.0042
     76  CE1       -0.4660   -0.8290   14.1680 C.ar  154  PHE154     -0.0003
     77  CE2       -2.5710   -0.1720   13.2310 C.ar  154  PHE154     -0.0003
     78  CZ        -1.7710   -1.1410   13.8150 C.ar  154  PHE154     -0.0000
     79  N         -5.2800    9.1930   18.4530 N.3   164  ARG164     -0.1245
     80  CA        -5.8320    7.8530   18.3310 C.3   164  ARG164      0.1563
     81  C         -5.5660    7.1480   19.6510 C.2   164  ARG164      0.2260
     82  O         -4.4080    6.9350   20.0300 O.2   164  ARG164     -0.2867
     83  CB        -5.2280    7.0920   17.1600 C.3   164  ARG164      0.0307
     84  CG        -6.0830    5.8750   16.7870 C.3   164  ARG164      0.0489
     85  CD        -5.9080    5.5100   15.3780 C.3   164  ARG164      0.2205
     86  NE        -6.8140    4.4680   14.9030 N.pl3 164  ARG164     -0.0865
     87  CZ        -7.9070    4.6930   14.1720 C.cat 164  ARG164      0.5346
     88  NH1       -8.2710    5.9320   13.8710 N.pl3 164  ARG164      0.1354
     89  NH2       -8.6290    3.6700   13.7280 N.pl3 164  ARG164      0.1354
     90  N         -5.2400    4.3220   22.1290 N.3   166  TRP166     -0.1241
     91  CA        -4.9840    2.9010   22.2610 C.3   166  TRP166      0.1605
     92  C         -4.9030    2.5020   23.7300 C.2   166  TRP166      0.2264
     93  O         -4.6780    3.3240   24.6210 O.2   166  TRP166     -0.2867
     94  CB        -3.6490    2.5360   21.6040 C.3   166  TRP166      0.0550
     95  CG        -3.7400    2.1320   20.1590 C.ar  166  TRP166      0.0003
     96  CD1       -4.6300    2.5800   19.2260 C.ar  166  TRP166      0.0946
     97  CD2       -2.9070    1.1750   19.5010 C.ar  166  TRP166      0.0152
     98  NE1       -4.3850    1.9660   18.0120 N.ar  166  TRP166     -0.2442
     99  CE2       -3.3420    1.0880   18.1610 C.ar  166  TRP166      0.0810
    100  CE3       -1.8340    0.3760   19.9210 C.ar  166  TRP166      0.0012
    101  CZ2       -2.7370    0.2390   17.2310 C.ar  166  TRP166      0.0191
    102  CZ3       -1.2320   -0.4700   19.0000 C.ar  166  TRP166      0.0001
    103  CH2       -1.6920   -0.5380   17.6680 C.ar  166  TRP166      0.0015
    104  N          3.5910    4.8250   14.4760 N.3   241  TRP241     -0.1241
    105  CA         4.0850    3.8040   15.3910 C.3   241  TRP241      0.1605
    106  C          4.1780    2.4550   14.6890 C.2   241  TRP241      0.2264
    107  O          3.5310    2.2200   13.6660 O.2   241  TRP241     -0.2867
    108  CB         3.2830    3.7510   16.7040 C.3   241  TRP241      0.0550
    109  CG         1.8020    3.4490   16.6010 C.ar  241  TRP241      0.0003
    110  CD1        1.1850    2.2770   16.9420 C.ar  241  TRP241      0.0946
    111  CD2        0.7510    4.3550   16.2140 C.ar  241  TRP241      0.0152
    112  NE1       -0.1800    2.3860   16.7590 N.ar  241  TRP241     -0.2442
    113  CE2       -0.4720    3.6500   16.3200 C.ar  241  TRP241      0.0810
    114  CE3        0.7260    5.6880   15.7770 C.ar  241  TRP241      0.0012
    115  CZ2       -1.7030    4.2310   16.0010 C.ar  241  TRP241      0.0191
    116  CZ3       -0.4920    6.2610   15.4660 C.ar  241  TRP241      0.0001
    117  CH2       -1.6920    5.5320   15.5780 C.ar  241  TRP241      0.0015
    118  N          1.7790   -6.7380   15.8620 N.3   245  THR245     -0.1218
    119  CA         0.4430   -6.8040   16.4480 C.3   245  THR245      0.1862
    120  C         -0.0160   -8.2270   16.7450 C.2   245  THR245      0.2287
    121  O         -1.0470   -8.3960   17.4100 O.2   245  THR245     -0.2866
    122  CB        -0.5790   -6.1010   15.5640 C.3   245  THR245      0.1770
    123  OG1       -0.4990   -6.6520   14.2490 O.3   245  THR245     -0.2211
    124  CG2       -0.3180   -4.6080   15.5100 C.3   245  THR245      0.0375
    125  N         -3.2860   -5.1450   22.1140 N.3   250  HIS250     -0.1226
    126  CA        -3.6720   -3.7800   21.7940 C.3   250  HIS250      0.1752
    127  C         -5.1850   -3.6920   21.6370 C.2   250  HIS250      0.2596
    128  O         -5.8760   -4.6990   21.4400 O.2   250  HIS250     -0.2718
    129  CB        -2.9510   -3.2800   20.5300 C.3   250  HIS250      0.0759
    130  CG        -3.2480   -4.1140   19.3220 C.ar  250  HIS250      0.0818
    131  ND1       -2.6890   -5.3620   19.1250 N.ar  250  HIS250     -0.2268
    132  CD2       -4.0990   -3.9150   18.2890 C.ar  250  HIS250      0.1154
    133  CE1       -3.1750   -5.8880   18.0120 C.ar  250  HIS250      0.1986
    134  NE2       -4.0330   -5.0300   17.4850 N.ar  250  HIS250     -0.2212
    135  N         -5.6850   -2.4640   21.7540 N.am  251  ALA251     -0.1966
    136  CA        -7.0830   -2.1180   21.5590 C.3   251  ALA251      0.1728
    137  C         -7.1370   -0.6450   21.2000 C.2   251  ALA251      0.2616
    138  O         -6.2360    0.1180   21.5540 O.2   251  ALA251     -0.2715
    139  CB        -7.8940   -2.3510   22.8430 C.3   251  ALA251      0.0334
    140  N         -8.1890   -0.2450   20.4930 N.am  252  VAL252     -0.1977
    141  CA        -8.3820    1.1580   20.1410 C.3   252  VAL252      0.1596
    142  C         -9.7430    1.6080   20.6460 C.2   252  VAL252      0.2287
    143  O        -10.7390    0.8910   20.4830 O.2   252  VAL252     -0.2864
    144  CB        -8.2060    1.4110   18.6300 C.3   252  VAL252      0.0276
    145  CG1       -9.1770    0.5700   17.8070 C.3   252  VAL252      0.0022
    146  CG2       -8.3450    2.9110   18.3120 C.3   252  VAL252      0.0022
    147  N         -6.7570    6.9980    9.8240 N.3   258  LEU258     -0.1245
    148  CA        -5.5520    6.2350   10.0900 C.3   258  LEU258      0.1561
    149  C         -5.1170    5.5750    8.7950 C.2   258  LEU258      0.2260
    150  O         -5.9470    5.0460    8.0530 O.2   258  LEU258     -0.2867
    151  CB        -5.8570    5.1340   11.1190 C.3   258  LEU258      0.0270
    152  CG        -4.7080    4.2360   11.5660 C.3   258  LEU258      0.0019
    153  CD1       -3.8160    4.9690   12.5530 C.3   258  LEU258      0.0001
    154  CD2       -5.2330    2.9180   12.1670 C.3   258  LEU258      0.0001
@<TRIPOS>BOND
     1     1     2    1
     2     2     3    1
     3     2     5    1
     4   150   149    2
     5     3     4    2
     6   149   148    1
     7     6     5    1
     8     6     7    1
     9    67    65    1
    10   147   148    1
    11     8     7    1
    12     8     9    2
    13    49    48    2
    14    50    51    1
    15    50    47    1
    16   148   151    1
    17    11     9    1
    18    51    53   ar
    19    51    52   ar
    20    53    55   ar
    21    65    64    2
    22    65    66    1
    23    64    63    1
    24    48    47    1
    25     9    10    1
    26    52    54   ar
    27    55    56   ar
    28   151   152    1
    29    47    46    1
    30    58    59    1
    31    58    57    1
    32    58    61    1
    33    62    63    1
    34    62    61    1
    35    54    56   ar
    36   152   154    1
    37   152   153    1
    38    68    69    1
    39    59    60    2
    40    70    69    1
    41    70    71    2
    42    69    72    1
    43    75    77   ar
    44    75    73   ar
    45    72    73    1
    46    77    78   ar
    47    73    74   ar
    48   107   106    2
    49    89    87    1
    50    78    76   ar
    51    88    87    1
    52    74    76   ar
    53    45    43   ar
    54    87    86    2
    55   123   122    1
    56   104   105    1
    57    42    43    1
    58    42    39    1
    59   106   105    1
    60    43    44   ar
    61    86    85    1
    62    40    41    2
    63    40    39    1
    64    19    17    1
    65    27    25   ar
    66    85    84    1
    67   105   108    1
    68    12    13    1
    69   116   117   ar
    70   116   114   ar
    71   124   122    1
    72   122   119    1
    73   117   115   ar
    74    39    38    1
    75   114   111   ar
    76    17    16    1
    77   118   119    1
    78   115   113   ar
    79    13    16    1
    80    13    14    1
    81   111   113   ar
    82   111   109   ar
    83   113   112   ar
    84   119   120    1
    85    25    26   ar
    86    25    24    1
    87   109   108    1
    88   109   110   ar
    89   120   121    2
    90   112   110   ar
    91    84    83    1
    92    16    18    1
    93    83    80    1
    94   101   103   ar
    95   101    99   ar
    96    14    15    2
    97    24    21    1
    98   134   133   ar
    99   134   132   ar
   100    37    35   ar
   101    37    36   ar
   102   103   102   ar
   103   145   144    1
   104    98    99   ar
   105    98    96   ar
   106   133   131   ar
   107    35    33   ar
   108    99    97   ar
   109   132   130   ar
   110   146   144    1
   111    20    21    1
   112    80    79    1
   113    80    81    1
   114    36    34   ar
   115    21    22    1
   116   144   141    1
   117   102   100   ar
   118   131   130   ar
   119    96    95   ar
   120   130   129    1
   121    33    34   ar
   122    33    32    1
   123    97   100   ar
   124    97    95   ar
   125    81    82    2
   126    22    23    2
   127   141   140    1
   128   141   142    1
   129    95    94    1
   130    32    29    1
   131   143   142    2
   132   140   137   am
   133   129   126    1
   134    31    30    2
   135    30    29    1
   136   137   138    2
   137   137   136    1
   138   128   127    2
   139    29    28    1
   140   136   135    1
   141   136   139    1
   142    94    91    1
   143   127   135   am
   144   127   126    1
   145   126   125    1
   146    90    91    1
   147    91    92    1
   148    92    93    2
