@<TRIPOS>MOLECULE
tmp/5y9xA03.pdb
 77 73 0 0 0
SMALL
GASTEIGER

@<TRIPOS>ATOM
      1  N          0.4550  -19.1990    8.7550 N.3   146  GLY146     -0.1225
      2  CA         1.4680  -20.2390    8.7370 C.3   146  GLY146      0.1811
      3  C          2.6580  -19.9390    9.6200 C.2   146  GLY146      0.2280
      4  O          3.7540  -20.4520    9.3690 O.2   146  GLY146     -0.2866
      5  N        -10.5150  -27.9850   10.0810 N.3   191  ARG191     -0.1245
      6  CA        -9.6610  -27.0650    9.3330 C.3   191  ARG191      0.1563
      7  C         -9.5180  -27.5010    7.8820 C.2   191  ARG191      0.2260
      8  O         -9.4570  -26.6630    6.9770 O.2   191  ARG191     -0.2867
      9  CB        -8.3030  -26.9420   10.0090 C.3   191  ARG191      0.0307
     10  CG        -8.4000  -26.2940   11.3800 C.3   191  ARG191      0.0489
     11  CD        -7.0790  -26.3580   12.0930 C.3   191  ARG191      0.2205
     12  NE        -6.7070  -27.7370   12.3690 N.pl3 191  ARG191     -0.0865
     13  CZ        -5.4740  -28.2200   12.2580 C.cat 191  ARG191      0.5346
     14  NH1       -4.4870  -27.4290   11.8640 N.pl3 191  ARG191      0.1354
     15  NH2       -5.2330  -29.4970   12.5450 N.pl3 191  ARG191      0.1354
     16  N         -4.4890  -23.2060    4.3110 N.3   203  TYR203     -0.1241
     17  CA        -4.8460  -24.1170    5.3910 C.3   203  TYR203      0.1605
     18  C         -4.5190  -23.4570    6.7240 C.2   203  TYR203      0.2264
     19  O         -3.4250  -22.9080    6.9010 O.2   203  TYR203     -0.2867
     20  CB        -4.0820  -25.4360    5.2520 C.3   203  TYR203      0.0534
     21  CG        -4.4070  -26.4660    6.3120 C.ar  203  TYR203     -0.0201
     22  CD1       -3.5070  -26.7440    7.3360 C.ar  203  TYR203     -0.0009
     23  CD2       -5.6130  -27.1540    6.2980 C.ar  203  TYR203     -0.0009
     24  CE1       -3.7950  -27.6830    8.3080 C.ar  203  TYR203      0.0417
     25  CE2       -5.9100  -28.1060    7.2700 C.ar  203  TYR203      0.0417
     26  CZ        -4.9960  -28.3610    8.2730 C.ar  203  TYR203      0.1957
     27  OH        -5.2710  -29.2940    9.2480 O.3   203  TYR203     -0.2866
     28  N         -3.1080  -23.5000   10.0120 N.3   205  SER205     -0.1202
     29  CA        -2.1920  -24.2960   10.8180 C.3   205  SER205      0.2020
     30  C         -2.6720  -24.3550   12.2680 C.2   205  SER205      0.2618
     31  O         -3.5110  -23.5650   12.7080 O.2   205  SER205     -0.2717
     32  CB        -0.7980  -23.6740   10.7940 C.3   205  SER205      0.2103
     33  OG        -0.7930  -22.4130   11.4450 O.3   205  SER205     -0.2182
     34  N         -2.0990  -25.2950   13.0340 N.am  206  LEU206     -0.1979
     35  CA        -2.3880  -25.3320   14.4670 C.3   206  LEU206      0.1596
     36  C         -2.0070  -24.0220   15.1440 C.2   206  LEU206      0.2287
     37  O         -2.7100  -23.5610   16.0500 O.2   206  LEU206     -0.2864
     38  CB        -1.6560  -26.4940   15.1320 C.3   206  LEU206      0.0297
     39  CG        -2.2270  -27.8920   14.9110 C.3   206  LEU206      0.0022
     40  CD1       -1.3410  -28.9230   15.5900 C.3   206  LEU206      0.0001
     41  CD2       -3.6500  -27.9860   15.4480 C.3   206  LEU206      0.0001
     42  N          5.1220  -29.1750   17.2290 N.3   288  LYS288     -0.1231
     43  CA         5.2560  -28.3990   15.9950 C.3   288  LYS288      0.1693
     44  C          3.8570  -27.9390   15.6250 C.2   288  LYS288      0.2592
     45  O          2.9970  -28.7040   15.5400 O.2   288  LYS288     -0.2718
     46  CB         5.8380  -29.3220   14.9170 C.3   288  LYS288      0.0285
     47  CG         5.8860  -28.7400   13.5100 C.3   288  LYS288      0.0035
     48  CD         6.6850  -29.5810   12.5030 C.3   288  LYS288      0.0206
     49  CE         5.8170  -30.6920   11.9830 C.3   288  LYS288      0.1093
     50  NZ         6.5830  -31.6550   11.1350 N.3   288  LYS288     -0.1314
     51  N          3.7090  -26.6310   15.4280 N.am  289  LEU289     -0.1966
     52  CA         2.4100  -26.0370   15.1470 C.3   289  LEU289      0.1728
     53  C          2.1530  -25.5900   13.7180 C.2   289  LEU289      0.2616
     54  O          1.0960  -25.1420   13.4480 O.2   289  LEU289     -0.2715
     55  CB         2.1220  -24.8820   16.1510 C.3   289  LEU289      0.0311
     56  CG         2.0380  -25.3780   17.6310 C.3   289  LEU289      0.0022
     57  CD1        1.9090  -24.1720   18.5410 C.3   289  LEU289      0.0001
     58  CD2        0.8920  -26.3240   17.8940 C.3   289  LEU289      0.0001
     59  N          3.1680  -25.7330   12.8780 N.am  290  VAL290     -0.1963
     60  CA         3.0020  -25.4450   11.4580 C.3   290  VAL290      0.1727
     61  C          3.6820  -26.5700   10.6960 C.2   290  VAL290      0.2617
     62  O          4.8970  -26.7510   10.8090 O.2   290  VAL290     -0.2715
     63  CB         3.6270  -24.0940   11.0680 C.3   290  VAL290      0.0290
     64  CG1        3.4910  -23.8680    9.5610 C.3   290  VAL290      0.0023
     65  CG2        2.9860  -22.9520   11.8610 C.3   290  VAL290      0.0023
     66  N          2.9110  -27.3370    9.9320 N.am  291  SER291     -0.1936
     67  CA         3.5120  -28.4940    9.2860 C.3   291  SER291      0.2055
     68  C          4.4170  -28.0900    8.1330 C.2   291  SER291      0.2643
     69  O          5.3210  -28.8510    7.7740 O.2   291  SER291     -0.2714
     70  CB         2.4300  -29.4710    8.8310 C.3   291  SER291      0.2130
     71  OG         1.7280  -28.9610    7.7170 O.3   291  SER291     -0.2179
     72  N          4.2110  -26.9020    7.5670 N.am  292  SER292     -0.1949
     73  CA         5.0180  -26.3990    6.4650 C.3   292  SER292      0.1924
     74  C          6.3020  -25.7100    6.9270 C.2   292  SER292      0.2314
     75  O          6.9760  -25.0770    6.1050 O.2   292  SER292     -0.2863
     76  CB         4.1820  -25.4560    5.5910 C.3   292  SER292      0.2116
     77  OG         3.6220  -24.3940    6.3540 O.3   292  SER292     -0.2180
@<TRIPOS>BOND
     1    16    17    1
     2    20    17    1
     3    20    21    1
     4    17    18    1
     5    76    77    1
     6    76    73    1
     7    75    74    2
     8    23    21   ar
     9    23    25   ar
    10    21    22   ar
    11    73    74    1
    12    73    72    1
    13    18    19    2
    14     8     7    2
    15    25    26   ar
    16    22    24   ar
    17    72    68   am
    18    71    70    1
    19    69    68    2
    20     7     6    1
    21    68    67    1
    22    26    24   ar
    23    26    27    1
    24     2     1    1
    25     2     3    1
    26    70    67    1
    27    67    66    1
    28     6     9    1
    29     6     5    1
    30     4     3    2
    31    64    63    1
    32    66    61   am
    33     9    10    1
    34    28    29    1
    35    61    62    2
    36    61    60    1
    37    32    29    1
    38    32    33    1
    39    29    30    1
    40    63    60    1
    41    63    65    1
    42    50    49    1
    43    10    11    1
    44    60    59    1
    45    14    13    1
    46    49    48    1
    47    11    12    1
    48    13    12    2
    49    13    15    1
    50    30    31    2
    51    30    34   am
    52    48    47    1
    53    59    53   am
    54    34    35    1
    55    54    53    2
    56    47    46    1
    57    53    52    1
    58    35    38    1
    59    35    36    1
    60    39    38    1
    61    39    41    1
    62    39    40    1
    63    46    43    1
    64    36    37    2
    65    52    51    1
    66    52    55    1
    67    51    44   am
    68    45    44    2
    69    44    43    1
    70    43    42    1
    71    55    56    1
    72    56    58    1
    73    56    57    1
