@<TRIPOS>MOLECULE
tmp/5y9yA00.pdb
 133 126 0 0 0
SMALL
GASTEIGER

@<TRIPOS>ATOM
      1  N         -8.4450    3.7580    7.2390 N.3   117  ARG117     -0.1245
      2  CA        -9.5530    3.5290    8.1650 C.3   117  ARG117      0.1563
      3  C        -10.1430    4.8850    8.5330 C.2   117  ARG117      0.2260
      4  O         -9.6850    5.5260    9.4890 O.2   117  ARG117     -0.2867
      5  CB        -9.0830    2.7600    9.3990 C.3   117  ARG117      0.0307
      6  CG        -8.1770    1.5790    9.0440 C.3   117  ARG117      0.0489
      7  CD        -8.0520    0.5490   10.1640 C.3   117  ARG117      0.2205
      8  NE        -7.0940   -0.4930    9.7870 N.pl3 117  ARG117     -0.0865
      9  CZ        -6.9160   -1.6350   10.4460 C.cat 117  ARG117      0.5346
     10  NH1       -7.6310   -1.9000   11.5350 N.pl3 117  ARG117      0.1354
     11  NH2       -6.0210   -2.5170   10.0140 N.pl3 117  ARG117      0.1354
     12  N        -13.7180    5.4630   15.5810 N.3   121  ILE121     -0.1245
     13  CA       -13.7480    4.2910   16.4240 C.3   121  ILE121      0.1561
     14  C        -14.7780    4.3120   17.5150 C.2   121  ILE121      0.2260
     15  O        -15.3970    3.2960   17.7140 O.2   121  ILE121     -0.2867
     16  CB       -12.3880    4.0280   17.1150 C.3   121  ILE121      0.0252
     17  CG1      -11.3320    3.7090   16.0870 C.3   121  ILE121      0.0019
     18  CG2      -12.4270    2.9030   18.1490 C.3   121  ILE121      0.0019
     19  CD1      -11.4490    2.3540   15.5270 C.3   121  ILE121      0.0001
     20  N        -18.2160    2.6670   17.2430 N.3   124  ARG124     -0.1245
     21  CA       -18.2810    1.2390   16.8850 C.3   124  ARG124      0.1563
     22  C        -19.0430    0.2840   17.8080 C.2   124  ARG124      0.2260
     23  O        -19.0970    0.4560   19.0010 O.2   124  ARG124     -0.2867
     24  CB       -16.8660    0.6710   16.6370 C.3   124  ARG124      0.0307
     25  CG       -16.1730    1.1390   15.3600 C.3   124  ARG124      0.0489
     26  CD       -14.9320    0.3200   15.0200 C.3   124  ARG124      0.2205
     27  NE       -15.0100   -1.0210   15.6020 N.pl3 124  ARG124     -0.0865
     28  CZ       -13.9970   -1.6870   16.1350 C.cat 124  ARG124      0.5346
     29  NH1      -12.7790   -1.1630   16.1190 N.pl3 124  ARG124      0.1354
     30  NH2      -14.2190   -2.8710   16.6850 N.pl3 124  ARG124      0.1354
     31  N        -12.7720   -4.4120   18.6630 N.3   132  ASP132     -0.1239
     32  CA       -11.3830   -4.0720   18.8780 C.3   132  ASP132      0.1674
     33  C        -11.0870   -3.1760   20.0620 C.2   132  ASP132      0.2266
     34  O         -9.9490   -2.8350   20.2680 O.2   132  ASP132     -0.2867
     35  CB       -10.6340   -3.7020   17.6090 C.3   132  ASP132      0.1410
     36  CG       -10.2730   -4.9190   16.7560 C.2   132  ASP132      0.3668
     37  OD1      -10.4290   -6.0630   17.1940 O.co2 132  ASP132     -0.2456
     38  OD2       -9.8630   -4.7080   15.6310 O.co2 132  ASP132     -0.2456
     39  N         -6.3910   -7.7830   22.5220 N.3   136  HIS136     -0.1241
     40  CA        -6.1960   -8.9750   21.7140 C.3   136  HIS136      0.1621
     41  C         -4.8300   -8.9030   21.0480 C.2   136  HIS136      0.2264
     42  O         -4.2120   -7.8370   20.9680 O.2   136  HIS136     -0.2867
     43  CB        -7.2820   -9.0810   20.6400 C.3   136  HIS136      0.0745
     44  CG        -7.2180   -7.9590   19.6600 C.ar  136  HIS136      0.0817
     45  ND1       -7.6940   -6.6930   19.9430 N.ar  136  HIS136     -0.2268
     46  CD2       -6.6410   -7.8850   18.4380 C.ar  136  HIS136      0.1154
     47  CE1       -7.4440   -5.9000   18.9140 C.ar  136  HIS136      0.1986
     48  NE2       -6.8120   -6.6000   17.9860 N.ar  136  HIS136     -0.2212
     49  N         -3.5290   -9.9120   17.0910 N.3   138  ASP138     -0.1239
     50  CA        -4.1980  -10.0450   15.8060 C.3   138  ASP138      0.1674
     51  C         -4.1560  -11.4800   15.3160 C.2   138  ASP138      0.2266
     52  O         -3.1070  -12.1270   15.3110 O.2   138  ASP138     -0.2867
     53  CB        -3.5690   -9.1420   14.7450 C.3   138  ASP138      0.1410
     54  CG        -3.8940   -7.6910   14.9530 C.2   138  ASP138      0.3668
     55  OD1       -4.8110   -7.3990   15.7460 O.co2 138  ASP138     -0.2456
     56  OD2       -3.3040   -6.8460   14.2540 O.co2 138  ASP138     -0.2456
     57  N          2.9640   -4.3670   11.7430 N.3   152  ARG152     -0.1245
     58  CA         2.1800   -3.2600   11.2090 C.3   152  ARG152      0.1563
     59  C          2.8220   -1.9160   11.5060 C.2   152  ARG152      0.2260
     60  O          3.3810   -1.6930   12.5860 O.2   152  ARG152     -0.2867
     61  CB         0.7520   -3.3030   11.7410 C.3   152  ARG152      0.0307
     62  CG        -0.0090   -4.4740   11.1170 C.3   152  ARG152      0.0489
     63  CD        -1.4830   -4.5310   11.5240 C.3   152  ARG152      0.2205
     64  NE        -2.2470   -5.1680   10.4590 N.pl3 152  ARG152     -0.0865
     65  CZ        -3.5440   -5.4360   10.5030 C.cat 152  ARG152      0.5346
     66  NH1       -4.2610   -5.1270   11.5800 N.pl3 152  ARG152      0.1354
     67  NH2       -4.1270   -6.0050    9.4530 N.pl3 152  ARG152      0.1354
     68  N          1.6250    2.0940   11.5840 N.3   154  PHE154     -0.1241
     69  CA         0.4150    2.8910   11.7270 C.3   154  PHE154      0.1605
     70  C          0.7750    4.3650   11.6820 C.2   154  PHE154      0.2264
     71  O          1.7710    4.7800   12.2820 O.2   154  PHE154     -0.2867
     72  CB        -0.2730    2.6420   13.0870 C.3   154  PHE154      0.0534
     73  CG        -0.7210    1.2250   13.3240 C.ar  154  PHE154     -0.0203
     74  CD1        0.1440    0.3040   13.8930 C.ar  154  PHE154     -0.0042
     75  CD2       -2.0270    0.8390   13.0510 C.ar  154  PHE154     -0.0042
     76  CE1       -0.2720   -1.0030   14.1600 C.ar  154  PHE154     -0.0003
     77  CE2       -2.4550   -0.4710   13.3290 C.ar  154  PHE154     -0.0003
     78  CZ        -1.5710   -1.3820   13.8910 C.ar  154  PHE154     -0.0000
     79  N         -5.2770    9.0530   18.5640 N.3   164  ARG164     -0.1245
     80  CA        -5.8370    7.7170   18.4470 C.3   164  ARG164      0.1563
     81  C         -5.5210    6.9880   19.7420 C.2   164  ARG164      0.2260
     82  O         -4.3470    6.8080   20.0890 O.2   164  ARG164     -0.2867
     83  CB        -5.2820    6.9760   17.2360 C.3   164  ARG164      0.0307
     84  CG        -6.1960    5.8280   16.8270 C.3   164  ARG164      0.0489
     85  CD        -5.7570    5.2120   15.5190 C.3   164  ARG164      0.2205
     86  NE        -6.6970    4.1960   15.0440 N.pl3 164  ARG164     -0.0865
     87  CZ        -7.8060    4.4490   14.3540 C.cat 164  ARG164      0.5346
     88  NH1       -8.1480    5.6950   14.0400 N.pl3 164  ARG164      0.1354
     89  NH2       -8.5720    3.4360   13.9580 N.pl3 164  ARG164      0.1354
     90  N         -5.1700    4.0860   22.2260 N.3   166  TRP166     -0.1241
     91  CA        -4.9300    2.6600   22.3730 C.3   166  TRP166      0.1605
     92  C         -4.8290    2.2950   23.8440 C.2   166  TRP166      0.2264
     93  O         -4.5620    3.1420   24.7120 O.2   166  TRP166     -0.2867
     94  CB        -3.6230    2.2370   21.6960 C.3   166  TRP166      0.0550
     95  CG        -3.7170    1.8510   20.2450 C.ar  166  TRP166      0.0003
     96  CD1       -4.6060    2.3060   19.3200 C.ar  166  TRP166      0.0946
     97  CD2       -2.8750    0.9120   19.5800 C.ar  166  TRP166      0.0152
     98  NE1       -4.3610    1.6980   18.0960 N.ar  166  TRP166     -0.2442
     99  CE2       -3.2980    0.8430   18.2370 C.ar  166  TRP166      0.0810
    100  CE3       -1.7890    0.1290   19.9910 C.ar  166  TRP166      0.0012
    101  CZ2       -2.6860   -0.0020   17.3020 C.ar  166  TRP166      0.0191
    102  CZ3       -1.1800   -0.7040   19.0720 C.ar  166  TRP166      0.0001
    103  CH2       -1.6250   -0.7510   17.7320 C.ar  166  TRP166      0.0015
    104  N         -3.2780   -5.3650   22.3230 N.3   250  HIS250     -0.1226
    105  CA        -3.6770   -3.9920   22.0460 C.3   250  HIS250      0.1752
    106  C         -5.1900   -3.9140   21.8990 C.2   250  HIS250      0.2596
    107  O         -5.8760   -4.9230   21.7020 O.2   250  HIS250     -0.2718
    108  CB        -2.9900   -3.4610   20.7760 C.3   250  HIS250      0.0759
    109  CG        -3.3250   -4.2620   19.5590 C.ar  250  HIS250      0.0818
    110  ND1       -2.7370   -5.4770   19.2860 N.ar  250  HIS250     -0.2268
    111  CD2       -4.2340   -4.0490   18.5820 C.ar  250  HIS250      0.1154
    112  CE1       -3.2660   -5.9750   18.1780 C.ar  250  HIS250      0.1986
    113  NE2       -4.1870   -5.1320   17.7390 N.ar  250  HIS250     -0.2212
    114  N         -5.6870   -2.6840   21.9620 N.am  251  ALA251     -0.1966
    115  CA        -7.0640   -2.3500   21.7890 C.3   251  ALA251      0.1728
    116  C         -7.1510   -0.8600   21.4070 C.2   251  ALA251      0.2616
    117  O         -6.3150   -0.1020   21.7720 O.2   251  ALA251     -0.2715
    118  CB        -7.8430   -2.6120   23.0570 C.3   251  ALA251      0.0334
    119  N         -8.1780   -0.5110   20.6560 N.am  252  VAL252     -0.1977
    120  CA        -8.3820    0.8570   20.2580 C.3   252  VAL252      0.1596
    121  C         -9.7130    1.3140   20.8210 C.2   252  VAL252      0.2287
    122  O        -10.6530    0.6450   20.7310 O.2   252  VAL252     -0.2864
    123  CB        -8.2900    1.0770   18.7600 C.3   252  VAL252      0.0276
    124  CG1       -9.3080    0.2770   18.0450 C.3   252  VAL252      0.0022
    125  CG2       -8.4050    2.5510   18.4050 C.3   252  VAL252      0.0022
    126  N         -6.7920    6.7380    9.9500 N.3   258  LEU258     -0.1245
    127  CA        -5.5960    5.9530   10.2010 C.3   258  LEU258      0.1561
    128  C         -5.1310    5.3810    8.8740 C.2   258  LEU258      0.2260
    129  O         -5.9520    4.8880    8.0920 O.2   258  LEU258     -0.2867
    130  CB        -5.8900    4.8160   11.1980 C.3   258  LEU258      0.0270
    131  CG        -4.7640    3.8100   11.4590 C.3   258  LEU258      0.0019
    132  CD1       -3.7280    4.4530   12.3610 C.3   258  LEU258      0.0001
    133  CD2       -5.2940    2.4860   12.0580 C.3   258  LEU258      0.0001
@<TRIPOS>BOND
     1     1     2    1
     2   129   128    2
     3     2     3    1
     4     2     5    1
     5     3     4    2
     6   128   127    1
     7     6     5    1
     8     6     7    1
     9    67    65    1
    10     8     7    1
    11     8     9    2
    12   126   127    1
    13    11     9    1
    14   127   130    1
    15     9    10    1
    16    64    65    2
    17    64    63    1
    18    65    66    1
    19    62    63    1
    20    62    61    1
    21   130   131    1
    22    58    59    1
    23    58    61    1
    24    58    57    1
    25   131   133    1
    26   131   132    1
    27    59    60    2
    28    68    69    1
    29    70    69    1
    30    70    71    2
    31    69    72    1
    32    75    73   ar
    33    75    77   ar
    34    72    73    1
    35    73    74   ar
    36    77    78   ar
    37    78    76   ar
    38    74    76   ar
    39    89    87    1
    40    88    87    1
    41    56    54   ar
    42    87    86    2
    43    53    54    1
    44    53    50    1
    45    54    55   ar
    46    26    25    1
    47    26    27    1
    48    86    85    1
    49    52    51    2
    50    51    50    1
    51    25    24    1
    52    85    84    1
    53    19    17    1
    54    12    13    1
    55    27    28    2
    56    38    36   ar
    57    50    49    1
    58    17    16    1
    59    29    28    1
    60    28    30    1
    61    13    16    1
    62    13    14    1
    63    24    21    1
    64    36    37   ar
    65    36    35    1
    66    84    83    1
    67    21    20    1
    68    21    22    1
    69    16    18    1
    70    83    80    1
    71   101   103   ar
    72   101    99   ar
    73    14    15    2
    74    35    32    1
    75   103   102   ar
    76   113   112   ar
    77   113   111   ar
    78    22    23    2
    79    48    46   ar
    80    48    47   ar
    81   124   123    1
    82    98    99   ar
    83    98    96   ar
    84   112   110   ar
    85    99    97   ar
    86   125   123    1
    87    46    44   ar
    88    80    79    1
    89    80    81    1
    90   111   109   ar
    91    31    32    1
    92   123   120    1
    93    32    33    1
    94    47    45   ar
    95   102   100   ar
    96   110   109   ar
    97    96    95   ar
    98   109   108    1
    99    97   100   ar
   100    97    95   ar
   101    44    45   ar
   102    44    43    1
   103    81    82    2
   104    33    34    2
   105    95    94    1
   106   120   119    1
   107   120   121    1
   108    43    40    1
   109   119   116   am
   110   122   121    2
   111   108   105    1
   112    42    41    2
   113    41    40    1
   114   116   117    2
   115   116   115    1
   116    94    91    1
   117   107   106    2
   118    40    39    1
   119   115   114    1
   120   115   118    1
   121   106   114   am
   122   106   105    1
   123   105   104    1
   124    90    91    1
   125    91    92    1
   126    92    93    2
