@<TRIPOS>MOLECULE
tmp/5ya5A00.pdb
 161 151 0 0 0
SMALL
GASTEIGER

@<TRIPOS>ATOM
      1  N         12.9190  -20.1860  -21.4860 N.3    28  ILE28      -0.1231
      2  CA        12.8180  -19.4760  -20.2130 C.3    28  ILE28       0.1692
      3  C         11.8830  -18.2840  -20.2670 C.2    28  ILE28       0.2592
      4  O         11.3620  -17.8520  -19.2440 O.2    28  ILE28      -0.2718
      5  CB        14.1870  -19.0810  -19.6350 C.3    28  ILE28       0.0266
      6  CG1       14.9760  -18.1990  -20.5960 C.3    28  ILE28       0.0019
      7  CG2       14.9720  -20.3240  -19.3050 C.3    28  ILE28       0.0020
      8  CD1       16.4200  -17.9880  -20.1490 C.3    28  ILE28       0.0001
      9  N         11.6450  -17.7740  -21.4670 N.am   29  GLY29      -0.1957
     10  CA        10.6990  -16.6960  -21.6360 C.3    29  GLY29       0.1869
     11  C         10.1070  -16.6690  -23.0230 C.2    29  GLY29       0.2309
     12  O         10.8130  -16.8590  -24.0080 O.2    29  GLY29      -0.2863
     13  N         13.0900  -16.1600  -25.1710 N.3    36  VAL36      -0.1245
     14  CA        14.3930  -16.1410  -24.5310 C.3    36  VAL36       0.1561
     15  C         14.8090  -17.5780  -24.2030 C.2    36  VAL36       0.2260
     16  O         13.9660  -18.3870  -23.8220 O.2    36  VAL36      -0.2867
     17  CB        14.3650  -15.2690  -23.2630 C.3    36  VAL36       0.0252
     18  CG1       15.7430  -15.1640  -22.6580 C.3    36  VAL36       0.0019
     19  CG2       13.8270  -13.8920  -23.6050 C.3    36  VAL36       0.0019
     20  N         21.3900  -15.2360  -21.2970 N.3    48  ALA48      -0.1245
     21  CA        20.0500  -15.3620  -21.8480 C.3    48  ALA48       0.1562
     22  C         20.1120  -14.9200  -23.3030 C.2    48  ALA48       0.2260
     23  O         20.7000  -13.8870  -23.6120 O.2    48  ALA48      -0.2867
     24  CB        19.0720  -14.4970  -21.0780 C.3    48  ALA48       0.0290
     25  N         17.7810  -13.9900  -26.5960 N.3    50  LYS50      -0.1245
     26  CA        16.4690  -13.7210  -27.1770 C.3    50  LYS50       0.1561
     27  C         16.5080  -13.8400  -28.6970 C.2    50  LYS50       0.2260
     28  O         17.3670  -13.2410  -29.3590 O.2    50  LYS50      -0.2867
     29  CB        15.9600  -12.3340  -26.7970 C.3    50  LYS50       0.0271
     30  CG        14.5170  -12.1220  -27.2080 C.3    50  LYS50       0.0035
     31  CD        13.9160  -10.8580  -26.6180 C.3    50  LYS50       0.0206
     32  CE        12.4360  -10.7640  -26.9770 C.3    50  LYS50       0.1093
     33  NZ        11.7380   -9.6280  -26.3080 N.3    50  LYS50      -0.1314
     34  N         20.5160   -3.1390  -17.7640 N.3    73  LEU73      -0.1245
     35  CA        20.7780   -4.3920  -18.4640 C.3    73  LEU73       0.1561
     36  C         21.7750   -4.1430  -19.5890 C.2    73  LEU73       0.2260
     37  O         21.5260   -3.3290  -20.4700 O.2    73  LEU73      -0.2867
     38  CB        19.4970   -4.9920  -19.0280 C.3    73  LEU73       0.0270
     39  CG        19.6800   -6.4370  -19.5080 C.3    73  LEU73       0.0019
     40  CD1       20.0580   -7.3150  -18.3240 C.3    73  LEU73       0.0001
     41  CD2       18.4310   -6.9500  -20.1660 C.3    73  LEU73       0.0001
     42  N         22.0510  -11.4620  -23.9160 N.3    85  LEU85      -0.1231
     43  CA        21.9040  -10.6990  -22.6760 C.3    85  LEU85       0.1678
     44  C         22.4790  -11.4460  -21.4630 C.2    85  LEU85       0.2434
     45  O         22.5330  -12.6770  -21.4500 O.2    85  LEU85      -0.2733
     46  CB        20.4200  -10.4150  -22.4470 C.3    85  LEU85       0.0284
     47  CG        19.7270   -9.6620  -23.5770 C.3    85  LEU85       0.0019
     48  CD1       18.2210   -9.7010  -23.4050 C.3    85  LEU85       0.0001
     49  CD2       20.2280   -8.2280  -23.6360 C.3    85  LEU85       0.0001
     50  N         22.9180  -10.7040  -20.4370 N.am   86  PRO86      -0.2718
     51  CA        23.4000  -11.3970  -19.2390 C.3    86  PRO86       0.1535
     52  C         22.2630  -12.1430  -18.5510 C.2    86  PRO86       0.2599
     53  O         21.1080  -11.7030  -18.5960 O.2    86  PRO86      -0.2715
     54  CB        23.9590  -10.2640  -18.3690 C.3    86  PRO86       0.0310
     55  CG        23.3480   -9.0260  -18.8940 C.3    86  PRO86       0.0237
     56  CD        23.1060   -9.2480  -20.3480 C.3    86  PRO86       0.0939
     57  N         22.5700  -13.2950  -17.9660 N.am   87  TYR87      -0.1960
     58  CA        21.5250  -14.0820  -17.3350 C.3    87  TYR87       0.1771
     59  C         21.0690  -13.3740  -16.0600 C.2    87  TYR87       0.2619
     60  O         21.8930  -12.9050  -15.2690 O.2    87  TYR87      -0.2715
     61  CB        22.0120  -15.5000  -17.0340 C.3    87  TYR87       0.0574
     62  CG        20.9350  -16.3960  -16.4530 C.ar   87  TYR87      -0.0198
     63  CD1       19.8580  -16.7950  -17.2250 C.ar   87  TYR87      -0.0009
     64  CD2       21.0020  -16.8450  -15.1360 C.ar   87  TYR87      -0.0009
     65  CE1       18.8700  -17.6080  -16.7110 C.ar   87  TYR87       0.0417
     66  CE2       20.0110  -17.6670  -14.6100 C.ar   87  TYR87       0.0417
     67  CZ        18.9520  -18.0420  -15.4090 C.ar   87  TYR87       0.1957
     68  OH        17.9540  -18.8530  -14.9240 O.3    87  TYR87      -0.2866
     69  N         19.7570  -13.2600  -15.8870 N.am   88  MET88      -0.1977
     70  CA        19.2090  -12.6110  -14.7010 C.3    88  MET88       0.1605
     71  C         18.5500  -13.6730  -13.8280 C.2    88  MET88       0.2287
     72  O         17.4040  -14.0460  -14.0540 O.2    88  MET88      -0.2864
     73  CB        18.2090  -11.5140  -15.0940 C.3    88  MET88       0.0413
     74  CG        18.8380  -10.2920  -15.8120 C.3    88  MET88       0.0598
     75  SD        19.9690   -9.3280  -14.7780 S.3    88  MET88      -0.1393
     76  CE        21.5230   -9.5250  -15.6320 C.3    88  MET88       0.0692
     77  N         14.9540  -13.0310  -12.1340 N.3    91  GLY91      -0.1210
     78  CA        13.8030  -12.7140  -12.9490 C.3    91  GLY91       0.1956
     79  C         13.4030  -11.2600  -12.8210 C.2    91  GLY91       0.2611
     80  O         14.2260  -10.4200  -12.4580 O.2    91  GLY91      -0.2717
     81  N         12.1490  -10.9630  -13.1190 N.am   92  ASP92      -0.1973
     82  CA        11.6860   -9.5820  -13.0880 C.3    92  ASP92       0.1709
     83  C         11.4220   -9.1510  -11.6540 C.2    92  ASP92       0.2293
     84  O         11.0980   -9.9670  -10.7860 O.2    92  ASP92      -0.2864
     85  CB        10.4470   -9.3890  -13.9510 C.3    92  ASP92       0.1436
     86  CG         9.2260  -10.0580  -13.3650 C.2    92  ASP92       0.3671
     87  OD1        9.1240  -11.2970  -13.4730 O.co2  92  ASP92      -0.2456
     88  OD2        8.3700   -9.3480  -12.7960 O.co2  92  ASP92      -0.2456
     89  N          7.7300   -9.8640  -10.0150 N.3    95  ASN95      -0.1240
     90  CA         7.5450  -11.2400   -9.5680 C.3    95  ASN95       0.1653
     91  C          8.3850  -11.5300   -8.3360 C.2    95  ASN95       0.2266
     92  O          7.9290  -12.2190   -7.4260 O.2    95  ASN95      -0.2867
     93  CB         7.8250  -12.2500  -10.6870 C.3    95  ASN95       0.1155
     94  CG         6.6190  -12.4790  -11.5630 C.2    95  ASN95       0.2627
     95  OD1        5.4930  -12.5820  -11.0700 O.2    95  ASN95      -0.2716
     96  ND2        6.8360  -12.5450  -12.8640 N.am   95  ASN95      -0.0877
     97  N          7.7610   -4.6760  -13.4850 N.3   136  ARG136     -0.1231
     98  CA         7.7750   -5.8590  -14.3590 C.3   136  ARG136      0.1694
     99  C          8.9060   -5.7770  -15.3840 C.2   136  ARG136      0.2592
    100  O          9.3190   -6.7980  -15.9440 O.2   136  ARG136     -0.2718
    101  CB         6.4340   -6.0330  -15.0810 C.3   136  ARG136      0.0321
    102  CG         6.1170   -4.9000  -16.0260 C.3   136  ARG136      0.0489
    103  CD         4.8590   -5.0890  -16.8660 C.3   136  ARG136      0.2205
    104  NE         4.6100   -3.8500  -17.5940 N.pl3 136  ARG136     -0.0865
    105  CZ         3.9360   -2.8150  -17.0970 C.cat 136  ARG136      0.5346
    106  NH1        3.3910   -2.9020  -15.8960 N.pl3 136  ARG136      0.1354
    107  NH2        3.7790   -1.7030  -17.8080 N.pl3 136  ARG136      0.1354
    108  N          9.4040   -4.5630  -15.6210 N.am  137  ASN137     -0.1974
    109  CA        10.4240   -4.3240  -16.6460 C.3   137  ASN137      0.1688
    110  C         11.8250   -4.0480  -16.1090 C.2   137  ASN137      0.2292
    111  O         12.6920   -3.5560  -16.8330 O.2   137  ASN137     -0.2864
    112  CB         9.9750   -3.2010  -17.5750 C.3   137  ASN137      0.1181
    113  CG         8.8170   -3.6160  -18.4610 C.2   137  ASN137      0.2629
    114  OD1        8.7480   -4.7620  -18.8920 O.2   137  ASN137     -0.2716
    115  ND2        7.9030   -2.6950  -18.7280 N.am  137  ASN137     -0.0877
    116  N         14.9750   -6.1600  -13.8400 N.3   139  MET139     -0.1245
    117  CA        15.3910   -7.5300  -13.5210 C.3   139  MET139      0.1570
    118  C         16.4100   -7.5740  -12.3960 C.2   139  MET139      0.2261
    119  O         17.0710   -6.5800  -12.1030 O.2   139  MET139     -0.2867
    120  CB        16.0080   -8.2090  -14.7500 C.3   139  MET139      0.0387
    121  CG        15.2640   -7.9670  -16.0470 C.3   139  MET139      0.0595
    122  SD        14.0060   -9.1980  -16.4030 S.3   139  MET139     -0.1393
    123  CE        14.9950  -10.6930  -16.4390 C.3   139  MET139      0.0692
    124  N         15.5580   -2.7520  -17.4120 N.3   149  ALA149     -0.1231
    125  CA        15.6570   -3.6020  -18.5810 C.3   149  ALA149      0.1694
    126  C         14.5900   -3.2240  -19.5850 C.2   149  ALA149      0.2592
    127  O         14.1750   -2.0710  -19.6360 O.2   149  ALA149     -0.2718
    128  CB        15.5630   -5.0660  -18.1810 C.3   149  ALA149      0.0304
    129  N         14.1700   -4.1830  -20.4050 N.am  150  ASP150     -0.1974
    130  CA        13.0740   -3.9670  -21.3240 C.3   150  ASP150      0.1709
    131  C         13.3020   -2.7340  -22.2030 C.2   150  ASP150      0.2293
    132  O         12.4500   -1.8520  -22.2940 O.2   150  ASP150     -0.2864
    133  CB        11.7550   -3.8410  -20.5570 C.3   150  ASP150      0.1436
    134  CG        10.5730   -3.6460  -21.4690 C.2   150  ASP150      0.3671
    135  OD1       10.5220   -4.3470  -22.5020 O.co2 150  ASP150     -0.2456
    136  OD2        9.7200   -2.7730  -21.1770 O.co2 150  ASP150     -0.2456
    137  N         15.7980   -5.6550  -26.3540 N.3   154  ALA154     -0.1245
    138  CA        15.1420   -6.4310  -25.3040 C.3   154  ALA154      0.1562
    139  C         13.6980   -5.9860  -25.0830 C.2   154  ALA154      0.2260
    140  O         12.9770   -6.5830  -24.2830 O.2   154  ALA154     -0.2867
    141  CB        15.9360   -6.3220  -24.0060 C.3   154  ALA154      0.0290
    142  N          6.0460   -7.9420  -21.7250 N.3   158  TYR158     -0.1227
    143  CA         6.2690   -9.1510  -20.9350 C.3   158  TYR158      0.1736
    144  C          5.0990   -9.5550  -20.0240 C.2   158  TYR158      0.2595
    145  O          5.1000  -10.6490  -19.4630 O.2   158  TYR158     -0.2718
    146  CB         7.5670   -9.0330  -20.1420 C.3   158  TYR158      0.0548
    147  CG         8.8040   -9.0250  -21.0160 C.ar  158  TYR158     -0.0200
    148  CD1        9.1860  -10.1610  -21.7210 C.ar  158  TYR158     -0.0009
    149  CD2        9.5910   -7.8840  -21.1370 C.ar  158  TYR158     -0.0009
    150  CE1       10.3180  -10.1640  -22.5160 C.ar  158  TYR158      0.0417
    151  CE2       10.7340   -7.8790  -21.9310 C.ar  158  TYR158      0.0417
    152  CZ        11.0860   -9.0200  -22.6230 C.ar  158  TYR158      0.1957
    153  OH        12.2140   -9.0220  -23.4150 O.3   158  TYR158     -0.2866
    154  N          4.1150   -8.6710  -19.8800 N.am  159  ASP159     -0.1974
    155  CA         2.8540   -8.9880  -19.2050 C.3   159  ASP159      0.1709
    156  C          1.7420   -8.1690  -19.8500 C.2   159  ASP159      0.2293
    157  O          1.5320   -7.0030  -19.4990 O.2   159  ASP159     -0.2864
    158  CB         2.9370   -8.6950  -17.7030 C.3   159  ASP159      0.1436
    159  CG         1.7190   -9.2020  -16.9380 C.2   159  ASP159      0.3671
    160  OD1        0.7040   -9.5430  -17.5850 O.co2 159  ASP159     -0.2456
    161  OD2        1.7720   -9.2540  -15.6890 O.co2 159  ASP159     -0.2456
@<TRIPOS>BOND
     1    28    27    2
     2    27    26    1
     3    30    29    1
     4    30    31    1
     5    26    29    1
     6    26    25    1
     7    32    31    1
     8    32    33    1
     9   137   138    1
    10   138   139    1
    11   138   141    1
    12    13    14    1
    13   139   140    2
    14    14    15    1
    15    14    17    1
    16    15    16    2
    17    12    11    2
    18    42    43    1
    19    49    47    1
    20    23    22    2
    21    19    17    1
    22    47    48    1
    23    47    46    1
    24   153   152    1
    25    22    21    1
    26    17    18    1
    27    11    10    1
    28    43    46    1
    29    43    44    1
    30   152   150   ar
    31   152   151   ar
    32   150   148   ar
    33   135   134   ar
    34   132   131    2
    35   131   130    1
    36   151   149   ar
    37    21    20    1
    38    21    24    1
    39   142   143    1
    40   148   147   ar
    41    10     9    1
    42     1     2    1
    43   134   136   ar
    44   134   133    1
    45     9     3   am
    46    44    45    2
    47    44    50   am
    48   130   133    1
    49   130   129    1
    50   149   147   ar
    51   147   146    1
    52   143   146    1
    53   143   144    1
    54     6     8    1
    55     6     5    1
    56    37    36    2
    57    50    56    1
    58    50    51    1
    59   129   126   am
    60    56    55    1
    61     3     2    1
    62     3     4    2
    63     2     5    1
    64    41    39    1
    65   144   154   am
    66   144   145    2
    67   154   155    1
    68   156   157    2
    69   156   155    1
    70   127   126    2
    71     5     7    1
    72    36    35    1
    73   126   125    1
    74    39    38    1
    75    39    40    1
    76    51    52    1
    77    51    54    1
    78   155   158    1
    79    38    35    1
    80    55    54    1
    81   114   113    2
    82   115   113   am
    83    53    52    2
    84   125   128    1
    85   125   124    1
    86    52    57   am
    87    35    34    1
    88   113   112    1
    89    57    58    1
    90   107   105    1
    91   158   159    1
    92   104   105    2
    93   104   103    1
    94   160   159   ar
    95   112   109    1
    96    58    61    1
    97    58    59    1
    98    63    65   ar
    99    63    62   ar
   100   105   106    1
   101    61    62    1
   102   159   161   ar
   103   103   102    1
   104   111   110    2
   105    65    67   ar
   106   109   110    1
   107   109   108    1
   108    62    64   ar
   109   123   122    1
   110   122   121    1
   111    59    69   am
   112    59    60    2
   113   121   120    1
   114   102   101    1
   115   100    99    2
   116    69    70    1
   117    74    73    1
   118    74    75    1
   119    76    75    1
   120   108    99   am
   121    67    68    1
   122    67    66   ar
   123    99    98    1
   124    64    66   ar
   125    73    70    1
   126   101    98    1
   127   120   117    1
   128    70    71    1
   129    98    97    1
   130    72    71    2
   131    85    86    1
   132    85    82    1
   133   116   117    1
   134   117   118    1
   135    87    86   ar
   136    86    88   ar
   137    81    82    1
   138    81    79   am
   139    82    83    1
   140    78    79    1
   141    78    77    1
   142    96    94   am
   143    79    80    2
   144   118   119    2
   145    83    84    2
   146    94    95    2
   147    94    93    1
   148    93    90    1
   149    89    90    1
   150    90    91    1
   151    91    92    2
