@<TRIPOS>MOLECULE
tmp/5yakB01.pdb
 118 110 0 0 0
SMALL
GASTEIGER

@<TRIPOS>ATOM
      1  N        -11.8460  -38.9880   29.2790 N.3    34  ARG34      -0.1245
      2  CA       -10.4170  -38.7240   29.4630 C.3    34  ARG34       0.1563
      3  C         -9.7330  -39.8920   30.1820 C.2    34  ARG34       0.2260
      4  O         -8.6470  -39.7520   30.6300 O.2    34  ARG34      -0.2867
      5  CB       -10.2340  -37.4170   30.2780 C.3    34  ARG34       0.0307
      6  CG       -10.8180  -36.1770   29.5750 C.3    34  ARG34       0.0489
      7  CD       -10.6780  -34.8790   30.3830 C.3    34  ARG34       0.2205
      8  NE       -11.1140  -33.7590   29.5640 N.pl3  34  ARG34      -0.0865
      9  CZ       -12.3650  -33.2720   29.5440 C.cat  34  ARG34       0.5346
     10  NH1      -13.2890  -33.7450   30.3360 N.pl3  34  ARG34       0.1354
     11  NH2      -12.6980  -32.3110   28.7150 N.pl3  34  ARG34       0.1354
     12  N          1.9790  -28.6210   28.1250 N.3    87  GLU87      -0.1245
     13  CA         0.7450  -28.2710   28.8140 C.3    87  GLU87       0.1567
     14  C          1.0200  -27.8000   30.2440 C.2    87  GLU87       0.2260
     15  O          0.3430  -26.9060   30.7630 O.2    87  GLU87      -0.2867
     16  CB        -0.2620  -29.4440   28.8140 C.3    87  GLU87       0.0388
     17  CG        -0.8670  -29.8290   27.4510 C.3    87  GLU87       0.1160
     18  CD        -1.9540  -28.8720   26.9460 C.2    87  GLU87       0.3649
     19  OE1       -1.9850  -27.6880   27.3280 O.co2  87  GLU87      -0.2457
     20  OE2       -2.7750  -29.3070   26.1190 O.co2  87  GLU87      -0.2457
     21  N         -0.4550  -24.4020   31.6180 N.3    91  TYR91      -0.1241
     22  CA        -1.2210  -24.2110   32.8420 C.3    91  TYR91       0.1605
     23  C         -0.5170  -23.2120   33.8110 C.2    91  TYR91       0.2264
     24  O         -1.1610  -22.3540   34.4580 O.2    91  TYR91      -0.2867
     25  CB        -1.4590  -25.5560   33.5340 C.3    91  TYR91       0.0534
     26  CG        -2.7080  -26.2820   33.0880 C.ar   91  TYR91      -0.0201
     27  CD1       -2.7000  -27.0750   31.9510 C.ar   91  TYR91      -0.0009
     28  CD2       -3.9110  -26.1580   33.7910 C.ar   91  TYR91      -0.0009
     29  CE1       -3.8350  -27.7810   31.5430 C.ar   91  TYR91       0.0417
     30  CE2       -5.0610  -26.8230   33.3570 C.ar   91  TYR91       0.0417
     31  CZ        -5.0040  -27.6310   32.2130 C.ar   91  TYR91       0.1957
     32  OH        -6.0970  -28.3370   31.7720 O.3    91  TYR91      -0.2866
     33  N         -1.4720  -20.0110   29.6200 N.3    95  MET95      -0.1245
     34  CA        -2.9230  -19.8730   29.4840 C.3    95  MET95       0.1570
     35  C         -3.4920  -18.6590   30.2090 C.2    95  MET95       0.2261
     36  O         -4.4520  -18.0430   29.7310 O.2    95  MET95      -0.2867
     37  CB        -3.6480  -21.1460   29.9480 C.3    95  MET95       0.0387
     38  CG        -3.3520  -22.3540   29.0700 C.3    95  MET95       0.0595
     39  SD        -3.6440  -23.9380   29.8760 S.3    95  MET95      -0.1393
     40  CE        -5.3660  -23.7940   30.2420 C.3    95  MET95       0.0692
     41  N         -8.4680  -18.6590   32.2430 N.3    99  TRP99      -0.1241
     42  CA        -8.6140  -19.9440   31.5330 C.3    99  TRP99       0.1605
     43  C         -8.4610  -21.1390   32.5080 C.2    99  TRP99       0.2264
     44  O         -9.3210  -22.0400   32.5930 O.2    99  TRP99      -0.2867
     45  CB        -7.5860  -19.9890   30.4080 C.3    99  TRP99       0.0550
     46  CG        -7.7700  -21.0790   29.3520 C.ar   99  TRP99       0.0003
     47  CD1       -8.6300  -22.1390   29.3800 C.ar   99  TRP99       0.0946
     48  CD2       -7.0370  -21.1870   28.1500 C.ar   99  TRP99       0.0152
     49  NE1       -8.4700  -22.8960   28.2690 N.ar   99  TRP99      -0.2442
     50  CE2       -7.5060  -22.3370   27.4810 C.ar   99  TRP99       0.0810
     51  CE3       -6.0040  -20.4240   27.5700 C.ar   99  TRP99       0.0012
     52  CZ2       -6.9940  -22.7500   26.2520 C.ar   99  TRP99       0.0191
     53  CZ3       -5.4880  -20.8130   26.3780 C.ar   99  TRP99       0.0001
     54  CH2       -5.9770  -21.9920   25.7140 C.ar   99  TRP99       0.0015
     55  N        -11.2940  -23.9240   33.6090 N.3   103  LEU103     -0.1245
     56  CA       -11.1960  -25.3850   33.5150 C.3   103  LEU103      0.1561
     57  C        -11.4510  -26.1770   34.7740 C.2   103  LEU103      0.2260
     58  O        -11.4720  -27.4250   34.7230 O.2   103  LEU103     -0.2867
     59  CB        -9.8500  -25.7910   32.9260 C.3   103  LEU103      0.0270
     60  CG        -9.6070  -25.2800   31.4990 C.3   103  LEU103      0.0019
     61  CD1       -8.1590  -25.5960   31.1130 C.3   103  LEU103      0.0001
     62  CD2      -10.5750  -25.8650   30.4540 C.3   103  LEU103      0.0001
     63  N        -13.6240  -29.0870   35.0320 N.3   106  LEU106     -0.1245
     64  CA       -13.2360  -30.2210   34.2380 C.3   106  LEU106      0.1561
     65  C        -12.1530  -31.0690   34.9030 C.2   106  LEU106      0.2260
     66  O        -12.0290  -32.2280   34.5500 O.2   106  LEU106     -0.2867
     67  CB       -12.7800  -29.7900   32.8320 C.3   106  LEU106      0.0270
     68  CG       -13.6850  -28.9440   31.9160 C.3   106  LEU106      0.0019
     69  CD1      -13.1080  -28.8330   30.5190 C.3   106  LEU106      0.0001
     70  CD2      -15.0430  -29.6240   31.8900 C.3   106  LEU106      0.0001
     71  N         -8.9640  -30.9740   34.6540 N.3   108  THR108     -0.1218
     72  CA        -7.8940  -31.3020   33.7600 C.3   108  THR108      0.1862
     73  C         -6.6580  -30.5680   34.2440 C.2   108  THR108      0.2287
     74  O         -6.7580  -29.4810   34.8300 O.2   108  THR108     -0.2866
     75  CB        -8.1620  -30.7430   32.3580 C.3   108  THR108      0.1770
     76  OG1       -8.6330  -29.3900   32.4780 O.3   108  THR108     -0.2211
     77  CG2       -9.1560  -31.5890   31.6540 C.3   108  THR108      0.0375
     78  N         -1.6820  -36.3620   31.2150 N.3   112  LYS112     -0.1245
     79  CA        -2.4750  -36.9240   30.1290 C.3   112  LYS112      0.1561
     80  C         -2.1470  -38.4180   29.9800 C.2   112  LYS112      0.2260
     81  O         -1.4930  -38.8650   29.0330 O.2   112  LYS112     -0.2867
     82  CB        -2.1480  -36.1890   28.8140 C.3   112  LYS112      0.0271
     83  CG        -2.3350  -34.6590   28.8390 C.3   112  LYS112      0.0035
     84  CD        -3.7100  -34.2770   29.3390 C.3   112  LYS112      0.0206
     85  CE        -4.0030  -32.8130   29.1370 C.3   112  LYS112      0.1093
     86  NZ        -5.2460  -32.4340   29.8640 N.3   112  LYS112     -0.1314
     87  N         -4.0250  -40.8360   29.2650 N.3   114  TYR114     -0.1241
     88  CA        -4.6820  -41.4420   28.0950 C.3   114  TYR114      0.1605
     89  C         -3.8130  -41.5630   26.8650 C.2   114  TYR114      0.2264
     90  O         -3.9800  -42.4910   26.0700 O.2   114  TYR114     -0.2867
     91  CB        -6.0060  -40.7510   27.7550 C.3   114  TYR114      0.0534
     92  CG        -5.9010  -39.2770   27.4750 C.ar  114  TYR114     -0.0201
     93  CD1       -6.3650  -38.3570   28.3850 C.ar  114  TYR114     -0.0009
     94  CD2       -5.3300  -38.8090   26.3050 C.ar  114  TYR114     -0.0009
     95  CE1       -6.3150  -36.9930   28.1060 C.ar  114  TYR114      0.0417
     96  CE2       -5.2470  -37.4580   26.0450 C.ar  114  TYR114      0.0417
     97  CZ        -5.7560  -36.5610   26.9490 C.ar  114  TYR114      0.1957
     98  OH        -5.6710  -35.2160   26.7170 O.3   114  TYR114     -0.2866
     99  N         -9.0500  -33.0110   21.7610 N.3   167  THR167     -0.1203
    100  CA        -8.1140  -32.1220   22.4660 C.3   167  THR167      0.1994
    101  C         -7.3210  -31.1950   21.5720 C.2   167  THR167      0.2617
    102  O         -7.0530  -31.4930   20.4180 O.2   167  THR167     -0.2717
    103  CB        -7.1170  -32.8840   23.4080 C.3   167  THR167      0.1784
    104  OG1       -6.1480  -33.5910   22.6290 O.3   167  THR167     -0.2211
    105  CG2       -7.8570  -33.8280   24.2530 C.3   167  THR167      0.0376
    106  N         -6.9810  -30.0380   22.1340 N.am  168  ALA168     -0.1979
    107  CA        -6.2020  -29.0640   21.4570 C.3   168  ALA168      0.1597
    108  C         -4.9110  -28.8240   22.2800 C.2   168  ALA168      0.2287
    109  O         -4.9250  -28.0430   23.2670 O.2   168  ALA168     -0.2864
    110  CB        -6.9930  -27.7760   21.3570 C.3   168  ALA168      0.0319
    111  N         -2.2090  -27.0360   22.7820 N.3   170  LEU170     -0.1245
    112  CA        -1.6020  -25.7320   22.5820 C.3   170  LEU170      0.1561
    113  C         -0.0720  -25.7950   22.7300 C.2   170  LEU170      0.2260
    114  O          0.4530  -26.3670   23.7010 O.2   170  LEU170     -0.2867
    115  CB        -2.1980  -24.7650   23.6200 C.3   170  LEU170      0.0270
    116  CG        -1.7250  -23.3170   23.6430 C.3   170  LEU170      0.0019
    117  CD1       -2.2520  -22.4890   22.4540 C.3   170  LEU170      0.0001
    118  CD2       -2.1130  -22.7130   24.9760 C.3   170  LEU170      0.0001
@<TRIPOS>BOND
     1   102   101    2
     2   110   107    1
     3   107   106    1
     4   107   108    1
     5   101   106   am
     6   101   100    1
     7    99   100    1
     8   108   109    2
     9   117   116    1
    10   100   103    1
    11   112   113    1
    12   112   111    1
    13   112   115    1
    14   104   103    1
    15   113   114    2
    16   103   105    1
    17   115   116    1
    18   116   118    1
    19    54    52   ar
    20    54    53   ar
    21    96    94   ar
    22    96    97   ar
    23    90    89    2
    24    20    18   ar
    25    52    50   ar
    26    94    92   ar
    27    53    51   ar
    28    98    97    1
    29    89    88    1
    30    18    19   ar
    31    18    17    1
    32    97    95   ar
    33    17    16    1
    34    92    91    1
    35    92    93   ar
    36    50    48   ar
    37    50    49   ar
    38    51    48   ar
    39    91    88    1
    40    88    87    1
    41    95    93   ar
    42    12    13    1
    43    48    46   ar
    44    49    47   ar
    45    11     9    1
    46    82    83    1
    47    82    79    1
    48    13    16    1
    49    13    14    1
    50    83    84    1
    51    81    80    2
    52    38    39    1
    53    38    37    1
    54    85    84    1
    55    85    86    1
    56     1     2    1
    57    46    47   ar
    58    46    45    1
    59     2     3    1
    60     2     5    1
    61    34    33    1
    62    34    37    1
    63    34    35    1
    64     9     8    2
    65     9    10    1
    66     8     7    1
    67     6     5    1
    68     6     7    1
    69    36    35    2
    70    39    40    1
    71    80    79    1
    72    79    78    1
    73     3     4    2
    74    14    15    2
    75    45    42    1
    76    62    60    1
    77    69    68    1
    78    61    60    1
    79    60    59    1
    80    42    41    1
    81    42    43    1
    82    29    27   ar
    83    29    31   ar
    84    21    22    1
    85    77    75    1
    86    32    31    1
    87    70    68    1
    88    68    67    1
    89    27    26   ar
    90    31    30   ar
    91    75    76    1
    92    75    72    1
    93    43    44    2
    94    67    64    1
    95    22    25    1
    96    22    23    1
    97    59    56    1
    98    26    25    1
    99    26    28   ar
   100    30    28   ar
   101    56    55    1
   102    56    57    1
   103    72    73    1
   104    72    71    1
   105    23    24    2
   106    64    65    1
   107    64    63    1
   108    73    74    2
   109    66    65    2
   110    58    57    2
