@<TRIPOS>MOLECULE
tmp/5yapB01.pdb
 127 123 0 0 0
SMALL
GASTEIGER

@<TRIPOS>ATOM
      1  N        -11.7130  -14.0330  -35.8150 N.3    11  PHE11      -0.1241
      2  CA       -10.8460  -14.5730  -34.7630 C.3    11  PHE11       0.1605
      3  C        -11.2950  -15.9970  -34.4250 C.2    11  PHE11       0.2264
      4  O        -10.5300  -16.9630  -34.5510 O.2    11  PHE11      -0.2867
      5  CB       -10.9220  -13.6280  -33.5470 C.3    11  PHE11       0.0534
      6  CG        -9.9170  -13.8850  -32.4390 C.ar   11  PHE11      -0.0203
      7  CD1       -9.3550  -15.1280  -32.1900 C.ar   11  PHE11      -0.0042
      8  CD2       -9.5950  -12.8530  -31.5770 C.ar   11  PHE11      -0.0042
      9  CE1       -8.4650  -15.3190  -31.1290 C.ar   11  PHE11      -0.0003
     10  CE2       -8.7170  -13.0400  -30.5000 C.ar   11  PHE11      -0.0003
     11  CZ        -8.1550  -14.2860  -30.2780 C.ar   11  PHE11      -0.0000
     12  N        -18.6900  -17.4810  -26.6710 N.3   100  LYS100     -0.1245
     13  CA       -19.0490  -16.6930  -25.4830 C.3   100  LYS100      0.1565
     14  C        -19.1420  -15.2100  -25.8230 C.2   100  LYS100      0.2260
     15  O        -18.6480  -14.7900  -26.8680 O.2   100  LYS100     -0.2867
     16  CB       -18.0710  -16.9310  -24.3320 C.3   100  LYS100      0.0317
     17  CG       -16.5830  -16.9000  -24.7160 C.3   100  LYS100      0.0294
     18  CD       -15.9190  -15.5500  -24.4650 C.2   100  LYS100     -0.0067
     19  CE       -16.3550  -14.4020  -25.2870 C.2   100  LYS100      0.1012
     20  NZ       -15.5840  -13.1530  -25.1850 N.pl3 100  LYS100     -0.1270
     21  N        -12.6800  -21.4490  -23.8380 N.3   128  ASN128     -0.1225
     22  CA       -11.5160  -22.2630  -24.2200 C.3   128  ASN128      0.1785
     23  C        -10.3580  -22.2850  -23.2250 C.2   128  ASN128      0.2597
     24  O         -9.4970  -23.1640  -23.3180 O.2   128  ASN128     -0.2718
     25  CB       -11.0030  -21.9460  -25.6440 C.3   128  ASN128      0.1169
     26  CG       -11.0560  -20.4800  -26.0080 C.2   128  ASN128      0.2627
     27  OD1      -11.4960  -20.1460  -27.1080 O.2   128  ASN128     -0.2716
     28  ND2      -10.5690  -19.6090  -25.1410 N.am  128  ASN128     -0.0877
     29  N        -10.3430  -21.3600  -22.2590 N.am  129  TYR129     -0.1976
     30  CA        -9.2780  -21.3320  -21.2570 C.3   129  TYR129      0.1639
     31  C         -9.4540  -22.4330  -20.2010 C.2   129  TYR129      0.2290
     32  O         -8.5280  -22.7280  -19.4620 O.2   129  TYR129     -0.2864
     33  CB        -9.1730  -19.9510  -20.6100 C.3   129  TYR129      0.0560
     34  CG        -8.8750  -18.9000  -21.6390 C.ar  129  TYR129     -0.0198
     35  CD1       -7.6710  -18.9170  -22.3280 C.ar  129  TYR129     -0.0009
     36  CD2       -9.7890  -17.9010  -21.9390 C.ar  129  TYR129     -0.0009
     37  CE1       -7.3810  -17.9720  -23.2940 C.ar  129  TYR129      0.0417
     38  CE2       -9.5070  -16.9530  -22.9180 C.ar  129  TYR129      0.0417
     39  CZ        -8.3050  -17.0020  -23.5880 C.ar  129  TYR129      0.1957
     40  OH        -8.0370  -16.0580  -24.5470 O.3   129  TYR129     -0.2866
     41  N         -8.2810  -10.7690  -15.3800 N.3   157  TYR157     -0.1241
     42  CA        -8.1820  -10.9750  -16.8040 C.3   157  TYR157      0.1605
     43  C         -7.9970   -9.6160  -17.4510 C.2   157  TYR157      0.2264
     44  O         -8.9750   -8.9010  -17.7400 O.2   157  TYR157     -0.2867
     45  CB        -9.3900  -11.6930  -17.3730 C.3   157  TYR157      0.0534
     46  CG        -9.1790  -12.2700  -18.7810 C.ar  157  TYR157     -0.0201
     47  CD1       -8.0370  -11.9780  -19.5460 C.ar  157  TYR157     -0.0009
     48  CD2      -10.1320  -13.1040  -19.3510 C.ar  157  TYR157     -0.0009
     49  CE1       -7.8580  -12.5160  -20.8010 C.ar  157  TYR157      0.0417
     50  CE2       -9.9640  -13.6260  -20.6120 C.ar  157  TYR157      0.0417
     51  CZ        -8.8300  -13.3230  -21.3400 C.ar  157  TYR157      0.1957
     52  OH        -8.6590  -13.8540  -22.6120 O.3   157  TYR157     -0.2866
     53  N         -6.4170   -7.3450  -20.5130 N.3   159  GLU159     -0.1245
     54  CA        -5.9340   -7.1410  -21.8840 C.3   159  GLU159      0.1567
     55  C         -6.0030   -5.6460  -22.1880 C.2   159  GLU159      0.2260
     56  O         -6.6460   -4.8790  -21.4300 O.2   159  GLU159     -0.2867
     57  CB        -6.7790   -7.9060  -22.8930 C.3   159  GLU159      0.0388
     58  CG        -6.8750   -9.4020  -22.6260 C.3   159  GLU159      0.1160
     59  CD        -7.3780  -10.2020  -23.8240 C.2   159  GLU159      0.3649
     60  OE1       -7.6220   -9.6020  -24.8790 O.co2 159  GLU159     -0.2457
     61  OE2       -7.4840  -11.4420  -23.7260 O.co2 159  GLU159     -0.2457
     62  N         -6.6190   -4.4110  -25.6060 N.3   161  TYR161     -0.1241
     63  CA        -7.0780   -4.2410  -26.9930 C.3   161  TYR161      0.1605
     64  C         -7.9690   -2.9900  -27.1790 C.2   161  TYR161      0.2264
     65  O         -8.1490   -2.5440  -28.2980 O.2   161  TYR161     -0.2867
     66  CB        -7.7690   -5.5080  -27.5470 C.3   161  TYR161      0.0534
     67  CG        -8.9950   -5.8980  -26.7700 C.ar  161  TYR161     -0.0201
     68  CD1      -10.2620   -5.4080  -27.0970 C.ar  161  TYR161     -0.0009
     69  CD2       -8.8890   -6.7750  -25.6880 C.ar  161  TYR161     -0.0009
     70  CE1      -11.3760   -5.7600  -26.3240 C.ar  161  TYR161      0.0417
     71  CE2       -9.9680   -7.1180  -24.9360 C.ar  161  TYR161      0.0417
     72  CZ       -11.2060   -6.6350  -25.2540 C.ar  161  TYR161      0.1957
     73  OH       -12.2340   -7.0200  -24.4480 O.3   161  TYR161     -0.2866
     74  N        -16.8040   -9.5610  -22.4280 N.3   185  ASP185     -0.1225
     75  CA       -15.7140   -9.9530  -23.3050 C.3   185  ASP185      0.1805
     76  C        -14.7460  -10.9260  -22.6170 C.2   185  ASP185      0.2597
     77  O        -14.3150  -11.8990  -23.2270 O.2   185  ASP185     -0.2718
     78  CB       -14.8880   -8.7340  -23.7430 C.3   185  ASP185      0.1424
     79  CG       -15.4970   -7.9580  -24.9140 C.2   185  ASP185      0.3668
     80  OD1      -16.5850   -8.3030  -25.4100 O.co2 185  ASP185     -0.2456
     81  OD2      -14.8510   -6.9750  -25.3410 O.co2 185  ASP185     -0.2456
     82  N        -14.3870  -10.5720  -21.3870 N.am  186  LEU186     -0.1979
     83  CA       -13.3410  -11.2040  -20.6010 C.3   186  LEU186      0.1596
     84  C        -13.8330  -11.7880  -19.2590 C.2   186  LEU186      0.2287
     85  O        -13.4320  -12.8890  -18.8890 O.2   186  LEU186     -0.2864
     86  CB       -12.2510  -10.1860  -20.3120 C.3   186  LEU186      0.0297
     87  CG       -11.6130   -9.4590  -21.4820 C.3   186  LEU186      0.0022
     88  CD1      -10.6330   -8.4030  -20.9790 C.3   186  LEU186      0.0001
     89  CD2      -10.8910  -10.4340  -22.4050 C.3   186  LEU186      0.0001
     90  N        -15.0470  -15.4210  -19.2250 N.3   189  HIS189     -0.1241
     91  CA       -13.9550  -16.4010  -19.2170 C.3   189  HIS189      0.1621
     92  C        -13.4120  -16.6340  -17.8170 C.2   189  HIS189      0.2264
     93  O        -13.2040  -17.7870  -17.4050 O.2   189  HIS189     -0.2867
     94  CB       -12.7880  -15.9420  -20.0900 C.3   189  HIS189      0.0745
     95  CG       -12.9870  -16.1300  -21.5590 C.ar  189  HIS189      0.0817
     96  ND1      -13.1890  -17.3670  -22.1360 N.ar  189  HIS189     -0.2268
     97  CD2      -12.9130  -15.2470  -22.5820 C.ar  189  HIS189      0.1154
     98  CE1      -13.2630  -17.2320  -23.4450 C.ar  189  HIS189      0.1986
     99  NE2      -13.0950  -15.9550  -23.7390 N.ar  189  HIS189     -0.2212
    100  N         -1.8920   -8.6350  -22.8180 N.3   254  ARG254     -0.1231
    101  CA        -2.4880   -9.1130  -24.0570 C.3   254  ARG254      0.1694
    102  C         -3.4880  -10.2440  -23.8740 C.2   254  ARG254      0.2592
    103  O         -4.4860  -10.3330  -24.6090 O.2   254  ARG254     -0.2718
    104  CB        -1.3780   -9.5050  -25.0150 C.3   254  ARG254      0.0321
    105  CG        -0.4370   -8.3680  -25.4130 C.3   254  ARG254      0.0489
    106  CD        -1.0930   -7.3220  -26.3140 C.3   254  ARG254      0.2205
    107  NE        -0.7320   -5.9640  -25.9180 N.pl3 254  ARG254     -0.0865
    108  CZ         0.4710   -5.4230  -26.0560 C.cat 254  ARG254      0.5346
    109  NH1        1.4780   -6.1020  -26.5940 N.pl3 254  ARG254      0.1354
    110  NH2        0.6690   -4.1930  -25.6410 N.pl3 254  ARG254      0.1354
    111  N         -3.2300  -11.1170  -22.9120 N.am  255  CYS255     -0.1970
    112  CA        -4.1250  -12.2390  -22.6190 C.3   255  CYS255      0.1712
    113  C         -3.8480  -12.7250  -21.2030 C.2   255  CYS255      0.2296
    114  O         -3.6280  -13.9140  -20.9470 O.2   255  CYS255     -0.2864
    115  CB        -3.9450  -13.3740  -23.6420 C.3   255  CYS255      0.0983
    116  SG        -5.2830  -14.5910  -23.5190 S.3   255  CYS255     -0.0798
    117  N         -2.6430  -21.6210  -27.7560 N.3   316  PHE316     -0.1241
    118  CA        -4.0090  -21.1440  -27.6580 C.3   316  PHE316      0.1605
    119  C         -4.9600  -21.8910  -28.5920 C.2   316  PHE316      0.2264
    120  O         -6.0240  -22.3660  -28.1640 O.2   316  PHE316     -0.2867
    121  CB        -4.0860  -19.6510  -28.0020 C.3   316  PHE316      0.0534
    122  CG        -5.4930  -19.1330  -28.0720 C.ar  316  PHE316     -0.0203
    123  CD1       -6.1850  -18.8170  -26.9170 C.ar  316  PHE316     -0.0042
    124  CD2       -6.1370  -18.9880  -29.3030 C.ar  316  PHE316     -0.0042
    125  CE1       -7.4950  -18.3620  -26.9790 C.ar  316  PHE316     -0.0003
    126  CE2       -7.4350  -18.5410  -29.3690 C.ar  316  PHE316     -0.0003
    127  CZ        -8.1110  -18.2160  -28.2020 C.ar  316  PHE316     -0.0000
@<TRIPOS>BOND
     1     1     2    1
     2     2     3    1
     3     2     5    1
     4     4     3    2
     5     5     6    1
     6     6     7   ar
     7     6     8   ar
     8     7     9   ar
     9     8    10   ar
    10     9    11   ar
    11    10    11   ar
    12   126   124   ar
    13   126   127   ar
    14   124   122   ar
    15   119   120    2
    16   119   118    1
    17    65    64    2
    18   127   125   ar
    19   122   121    1
    20   122   123   ar
    21   121   118    1
    22   117   118    1
    23    66    63    1
    24    66    67    1
    25    64    63    1
    26    27    26    2
    27    68    67   ar
    28    68    70   ar
    29    63    62    1
    30   125   123   ar
    31    15    14    2
    32    67    69   ar
    33    12    13    1
    34   109   108    1
    35    70    72   ar
    36   106   107    1
    37   106   105    1
    38   108   107    2
    39   108   110    1
    40    26    25    1
    41    26    28   am
    42    14    13    1
    43    69    71   ar
    44    25    22    1
    45    13    16    1
    46   105   104    1
    47    80    79   ar
    48    81    79   ar
    49    19    20    1
    50    19    18    2
    51    72    71   ar
    52    72    73    1
    53   104   101    1
    54    79    78    1
    55    60    59   ar
    56    17    18    1
    57    17    16    1
    58   103   102    2
    59    40    39    1
    60    22    21    1
    61    22    23    1
    62   101   102    1
    63   101   100    1
    64   102   111   am
    65    59    61   ar
    66    59    58    1
    67    78    75    1
    68    99    98   ar
    69    99    97   ar
    70   115   116    1
    71   115   112    1
    72    39    37   ar
    73    39    38   ar
    74    98    96   ar
    75    24    23    2
    76    75    76    1
    77    75    74    1
    78    37    35   ar
    79    77    76    2
    80    23    29   am
    81    38    36   ar
    82   111   112    1
    83    57    58    1
    84    57    54    1
    85   112   113    1
    86    76    82   am
    87    52    51    1
    88    97    95   ar
    89    89    87    1
    90    35    34   ar
    91    29    30    1
    92    55    54    1
    93    55    56    2
    94    96    95   ar
    95    36    34   ar
    96    54    53    1
    97    34    33    1
    98    95    94    1
    99    87    88    1
   100    87    86    1
   101    82    83    1
   102    51    49   ar
   103    51    50   ar
   104    30    33    1
   105    30    31    1
   106   113   114    2
   107    49    47   ar
   108    50    48   ar
   109    83    86    1
   110    83    84    1
   111    31    32    2
   112    94    91    1
   113    47    46   ar
   114    48    46   ar
   115    84    85    2
   116    90    91    1
   117    91    92    1
   118    46    45    1
   119    92    93    2
   120    44    43    2
   121    43    42    1
   122    45    42    1
   123    42    41    1
