@<TRIPOS>MOLECULE
tmp/5yaqC01.pdb
 144 140 0 0 0
SMALL
GASTEIGER

@<TRIPOS>ATOM
      1  N        -33.7410    2.4940    4.4220 N.3    11  PHE11      -0.1227
      2  CA       -32.7530    1.4250    4.5150 C.3    11  PHE11       0.1736
      3  C        -32.9890    0.4790    3.3480 C.2    11  PHE11       0.2595
      4  O        -32.1290    0.3590    2.4770 O.2    11  PHE11      -0.2718
      5  CB       -32.8760    0.6960    5.8620 C.3    11  PHE11       0.0547
      6  CG       -31.7880   -0.3330    6.1520 C.ar   11  PHE11      -0.0202
      7  CD1      -31.0310   -0.9570    5.1580 C.ar   11  PHE11      -0.0042
      8  CD2      -31.5730   -0.7230    7.4710 C.ar   11  PHE11      -0.0042
      9  CE1      -30.0800   -1.9090    5.4710 C.ar   11  PHE11      -0.0003
     10  CE2      -30.6170   -1.6830    7.7910 C.ar   11  PHE11      -0.0003
     11  CZ       -29.8720   -2.2790    6.7840 C.ar   11  PHE11      -0.0000
     12  N        -34.1610   -0.1510    3.2950 N.am   12  MET12      -0.1979
     13  CA       -34.4210   -1.1200    2.2320 C.3    12  MET12       0.1605
     14  C        -34.8090   -0.5240    0.8820 C.2    12  MET12       0.2287
     15  O        -34.4820   -1.1120   -0.1380 O.2    12  MET12      -0.2864
     16  CB       -35.4250   -2.1640    2.6810 C.3    12  MET12       0.0413
     17  CG       -34.8160   -3.2180    3.5830 C.3    12  MET12       0.0598
     18  SD       -33.6600   -4.3290    2.7400 S.3    12  MET12      -0.1393
     19  CE       -32.1340   -3.7090    3.4210 C.3    12  MET12       0.0692
     20  N        -40.7990   -6.5020    1.6830 N.3    99  GLU99      -0.1231
     21  CA       -39.8940   -6.5840    2.8150 C.3    99  GLU99       0.1699
     22  C        -40.4970   -7.3770    3.9700 C.2    99  GLU99       0.2592
     23  O        -41.6990   -7.3580    4.1830 O.2    99  GLU99      -0.2718
     24  CB       -39.4390   -5.1880    3.2760 C.3    99  GLU99       0.0402
     25  CG       -38.2230   -4.7000    2.5200 C.3    99  GLU99       0.1161
     26  CD       -37.0780   -5.6950    2.5640 C.2    99  GLU99       0.3649
     27  OE1      -36.4640   -5.9250    1.5020 O.co2  99  GLU99      -0.2457
     28  OE2      -36.8400   -6.3110    3.6340 O.co2  99  GLU99      -0.2457
     29  N        -39.6410   -8.1280    4.6600 N.am  100  LYS100     -0.1980
     30  CA       -39.9940   -8.8210    5.9080 C.3   100  LYS100      0.1596
     31  C        -40.2240   -7.8320    7.0790 C.2   100  LYS100      0.2287
     32  O        -39.8510   -6.6680    6.9740 O.2   100  LYS100     -0.2864
     33  CB       -38.8800   -9.8090    6.2830 C.3   100  LYS100      0.0298
     34  CG       -37.5120   -9.1710    6.5710 C.3   100  LYS100      0.0038
     35  CD       -37.3580   -8.7960    8.0480 C.3   100  LYS100      0.0206
     36  CE       -37.0060   -7.3450    8.1740 C.3   100  LYS100      0.1093
     37  NZ       -36.9170   -6.8410    9.5610 N.3   100  LYS100     -0.1314
     38  N        -33.0520  -11.5520    2.8080 N.3   128  ASN128     -0.1225
     39  CA       -31.8150  -11.4010    2.0300 C.3   128  ASN128      0.1785
     40  C        -30.6080  -12.1690    2.5820 C.2   128  ASN128      0.2597
     41  O        -29.6440  -12.4200    1.8570 O.2   128  ASN128     -0.2718
     42  CB       -31.4670   -9.9300    1.7180 C.3   128  ASN128      0.1169
     43  CG       -31.6570   -8.9850    2.8940 C.2   128  ASN128      0.2627
     44  OD1      -32.2080   -7.8960    2.7240 O.2   128  ASN128     -0.2716
     45  ND2      -31.2080   -9.3750    4.0810 N.am  128  ASN128     -0.0877
     46  N        -30.6740  -12.5970    3.8370 N.am  129  TYR129     -0.1976
     47  CA       -29.5690  -13.3680    4.3900 C.3   129  TYR129      0.1639
     48  C        -29.5450  -14.7970    3.8590 C.2   129  TYR129      0.2290
     49  O        -28.5660  -15.4900    4.0490 O.2   129  TYR129     -0.2864
     50  CB       -29.5650  -13.3220    5.9080 C.3   129  TYR129      0.0560
     51  CG       -29.4330  -11.9210    6.4270 C.ar  129  TYR129     -0.0198
     52  CD1      -28.2480  -11.2010    6.2340 C.ar  129  TYR129     -0.0009
     53  CD2      -30.4970  -11.2850    7.0690 C.ar  129  TYR129     -0.0009
     54  CE1      -28.1140   -9.8940    6.6780 C.ar  129  TYR129      0.0417
     55  CE2      -30.3770   -9.9710    7.5060 C.ar  129  TYR129      0.0417
     56  CZ       -29.1790   -9.2850    7.3190 C.ar  129  TYR129      0.1957
     57  OH       -29.0560   -7.9850    7.7560 O.3   129  TYR129     -0.2866
     58  N        -29.3180  -14.2270   16.3590 N.3   157  TYR157     -0.1241
     59  CA       -29.2210  -12.9690   15.6270 C.3   157  TYR157      0.1605
     60  C        -29.2080  -11.8230   16.6520 C.2   157  TYR157      0.2264
     61  O        -30.2610  -11.3800   17.1010 O.2   157  TYR157     -0.2867
     62  CB       -30.3690  -12.8240   14.6420 C.3   157  TYR157      0.0534
     63  CG       -30.1940  -11.7990   13.5410 C.ar  157  TYR157     -0.0201
     64  CD1      -29.1980  -10.8160   13.5820 C.ar  157  TYR157     -0.0009
     65  CD2      -31.0790  -11.7750   12.4690 C.ar  157  TYR157     -0.0009
     66  CE1      -29.0580   -9.8850   12.5650 C.ar  157  TYR157      0.0417
     67  CE2      -30.9590  -10.8280   11.4520 C.ar  157  TYR157      0.0417
     68  CZ       -29.9490   -9.8870   11.4990 C.ar  157  TYR157      0.1957
     69  OH       -29.8400   -8.9490   10.5030 O.3   157  TYR157     -0.2866
     70  N        -28.1960   -7.8720   17.6110 N.3   159  GLU159     -0.1245
     71  CA       -27.8830   -6.4810   17.2420 C.3   159  GLU159      0.1567
     72  C        -28.1030   -5.6360   18.4870 C.2   159  GLU159      0.2260
     73  O        -28.7020   -6.1130   19.4420 O.2   159  GLU159     -0.2867
     74  CB       -28.7620   -5.9640   16.0980 C.3   159  GLU159      0.0388
     75  CG       -28.6750   -6.8180   14.8410 C.3   159  GLU159      0.1160
     76  CD       -29.1800   -6.1310   13.5690 C.2   159  GLU159      0.3649
     77  OE1      -29.7060   -5.0140   13.6530 O.co2 159  GLU159     -0.2457
     78  OE2      -29.0650   -6.7330   12.4830 O.co2 159  GLU159     -0.2457
     79  N        -29.1570   -2.1250   18.2850 N.3   161  TYR161     -0.1241
     80  CA       -29.7320   -0.8280   17.8940 C.3   161  TYR161      0.1605
     81  C        -30.7440   -0.2410   18.8860 C.2   161  TYR161      0.2264
     82  O        -31.0190    0.9510   18.8350 O.2   161  TYR161     -0.2867
     83  CB       -30.3330   -0.8850   16.4950 C.3   161  TYR161      0.0534
     84  CG       -31.4580   -1.8790   16.3420 C.ar  161  TYR161     -0.0201
     85  CD1      -32.7540   -1.5700   16.7410 C.ar  161  TYR161     -0.0009
     86  CD2      -31.2270   -3.1190   15.7610 C.ar  161  TYR161     -0.0009
     87  CE1      -33.7890   -2.4790   16.5970 C.ar  161  TYR161      0.0417
     88  CE2      -32.2490   -4.0310   15.6110 C.ar  161  TYR161      0.0417
     89  CZ       -33.5260   -3.7070   16.0240 C.ar  161  TYR161      0.1957
     90  OH       -34.5370   -4.6060   15.8750 O.3   161  TYR161     -0.2866
     91  N        -38.3500   -8.2670   13.9370 N.3   185  ASP185     -0.1225
     92  CA       -37.3100   -7.5800   13.1960 C.3   185  ASP185      0.1805
     93  C        -36.1170   -8.4600   12.8080 C.2   185  ASP185      0.2597
     94  O        -35.5530   -8.2980   11.7310 O.2   185  ASP185     -0.2718
     95  CB       -36.8110   -6.3790   13.9880 C.3   185  ASP185      0.1424
     96  CG       -36.0660   -5.4150   13.1170 C.2   185  ASP185      0.3668
     97  OD1      -36.6430   -5.0210   12.0710 O.co2 185  ASP185     -0.2456
     98  OD2      -34.8930   -5.0860   13.4310 O.co2 185  ASP185     -0.2456
     99  N        -35.7290   -9.3640   13.6970 N.am  186  LEU186     -0.1979
    100  CA       -34.5250  -10.2070   13.5130 C.3   186  LEU186      0.1596
    101  C        -34.8350  -11.6940   13.4900 C.2   186  LEU186      0.2287
    102  O        -34.2560  -12.4490   12.6980 O.2   186  LEU186     -0.2864
    103  CB       -33.5360   -9.9480   14.6490 C.3   186  LEU186      0.0297
    104  CG       -33.1740   -8.4810   14.8810 C.3   186  LEU186      0.0022
    105  CD1      -32.3490   -8.3670   16.1450 C.3   186  LEU186      0.0001
    106  CD2      -32.4120   -7.9210   13.6910 C.3   186  LEU186      0.0001
    107  N        -35.6960  -13.3480   10.1760 N.3   189  HIS189     -0.1241
    108  CA       -34.5120  -13.5990    9.3420 C.3   189  HIS189      0.1621
    109  C        -33.8410  -14.9160    9.7600 C.2   189  HIS189      0.2264
    110  O        -33.4780  -15.7470    8.9190 O.2   189  HIS189     -0.2867
    111  CB       -33.4860  -12.4700    9.4660 C.3   189  HIS189      0.0745
    112  CG       -33.7800  -11.2470    8.6510 C.ar  189  HIS189      0.0817
    113  ND1      -33.9170  -11.2750    7.2800 N.ar  189  HIS189     -0.2268
    114  CD2      -33.8590   -9.9440    9.0040 C.ar  189  HIS189      0.1154
    115  CE1      -34.0870  -10.0480    6.8260 C.ar  189  HIS189      0.1986
    116  NE2      -34.0610   -9.2200    7.8530 N.ar  189  HIS189     -0.2212
    117  N        -23.7880   -5.9100   15.7410 N.3   254  ARG254     -0.1231
    118  CA       -24.3550   -5.0260   14.7340 C.3   254  ARG254      0.1694
    119  C        -25.2290   -5.7580   13.7030 C.2   254  ARG254      0.2592
    120  O        -26.2680   -5.2470   13.3150 O.2   254  ARG254     -0.2718
    121  CB       -23.2200   -4.2350   14.0690 C.3   254  ARG254      0.0321
    122  CG       -22.4760   -3.3180   15.0440 C.3   254  ARG254      0.0489
    123  CD       -23.3280   -2.1210   15.4780 C.3   254  ARG254      0.2205
    124  NE       -23.1420   -1.8380   16.8960 N.pl3 254  ARG254     -0.0865
    125  CZ       -22.0460   -1.3030   17.4430 C.cat 254  ARG254      0.5346
    126  NH1      -20.9900   -0.9680   16.7090 N.pl3 254  ARG254      0.1354
    127  NH2      -21.9940   -1.1170   18.7540 N.pl3 254  ARG254      0.1354
    128  N        -24.8010   -6.9450   13.2810 N.am  255  CYS255     -0.1970
    129  CA       -25.5480   -7.7820   12.3510 C.3   255  CYS255      0.1712
    130  C        -25.1260   -9.2340   12.5290 C.2   255  CYS255      0.2296
    131  O        -24.8050   -9.9530   11.5680 O.2   255  CYS255     -0.2864
    132  CB       -25.3080   -7.3360   10.9090 C.3   255  CYS255      0.0983
    133  SG       -26.5190   -8.0410    9.7750 S.3   255  CYS255     -0.0798
    134  N        -23.2220   -7.0170    1.7580 N.3   316  PHE316     -0.1241
    135  CA       -24.6230   -7.0800    2.1270 C.3   316  PHE316      0.1605
    136  C        -25.5740   -6.6440    0.9940 C.2   316  PHE316      0.2264
    137  O        -26.5600   -7.3110    0.7300 O.2   316  PHE316     -0.2867
    138  CB       -24.8770   -6.2060    3.3400 C.3   316  PHE316      0.0534
    139  CG       -26.3420   -6.0230    3.6490 C.ar  316  PHE316     -0.0203
    140  CD1      -27.0390   -6.9870    4.3570 C.ar  316  PHE316     -0.0042
    141  CD2      -27.0230   -4.8830    3.2320 C.ar  316  PHE316     -0.0042
    142  CE1      -28.3870   -6.8300    4.6390 C.ar  316  PHE316     -0.0003
    143  CE2      -28.3760   -4.7180    3.5080 C.ar  316  PHE316     -0.0003
    144  CZ       -29.0540   -5.6960    4.2160 C.ar  316  PHE316     -0.0000
@<TRIPOS>BOND
     1    15    14    2
     2   137   136    2
     3    14    13    1
     4   136   135    1
     5    27    26   ar
     6    20    21    1
     7    42    39    1
     8    42    43    1
     9   134   135    1
    10    41    40    2
    11    39    40    1
    12    39    38    1
    13   135   138    1
    14    13    16    1
    15    13    12    1
    16     4     3    2
    17    25    26    1
    18    25    24    1
    19    26    28   ar
    20    40    46   am
    21    16    17    1
    22    44    43    2
    23    18    19    1
    24    18    17    1
    25    21    24    1
    26    21    22    1
    27    43    45   am
    28   141   143   ar
    29   141   139   ar
    30    12     3   am
    31   138   139    1
    32     3     2    1
    33   143   144   ar
    34   139   140   ar
    35    46    47    1
    36    48    49    2
    37    48    47    1
    38    22    23    2
    39    22    29   am
    40   144   142   ar
    41   140   142   ar
    42    47    50    1
    43     1     2    1
    44     2     5    1
    45    29    30    1
    46     7     9   ar
    47     7     6   ar
    48     9    11   ar
    49     5     6    1
    50    30    33    1
    51    30    31    1
    52    50    51    1
    53     6     8   ar
    54    52    51   ar
    55    52    54   ar
    56    33    34    1
    57    51    53   ar
    58    34    35    1
    59    54    56   ar
    60    11    10   ar
    61   115   113   ar
    62   115   116   ar
    63    32    31    2
    64    53    55   ar
    65   113   112   ar
    66    56    55   ar
    67    56    57    1
    68     8    10   ar
    69   116   114   ar
    70    35    36    1
    71    36    37    1
    72   112   114   ar
    73   112   111    1
    74   110   109    2
    75   108   111    1
    76   108   109    1
    77   108   107    1
    78   133   132    1
    79    69    68    1
    80   132   129    1
    81    67    68   ar
    82    67    65   ar
    83    68    66   ar
    84   131   130    2
    85    94    93    2
    86    97    96   ar
    87   129   130    1
    88   129   128    1
    89    65    63   ar
    90    78    76   ar
    91    66    64   ar
    92   102   101    2
    93    93    92    1
    94    93    99   am
    95    96    98   ar
    96    96    95    1
    97    92    91    1
    98    92    95    1
    99   128   119   am
   100   120   119    2
   101   101   100    1
   102   100    99    1
   103   100   103    1
   104    63    64   ar
   105    63    62    1
   106    76    77   ar
   107    76    75    1
   108   106   104    1
   109   119   118    1
   110   121   118    1
   111   121   122    1
   112    62    59    1
   113   103   104    1
   114   118   117    1
   115    75    74    1
   116   104   105    1
   117   122   123    1
   118   123   124    1
   119    88    86   ar
   120    88    89   ar
   121    59    58    1
   122    59    60    1
   123    86    84   ar
   124    90    89    1
   125    89    87   ar
   126    74    71    1
   127    84    83    1
   128    84    85   ar
   129    83    80    1
   130    87    85   ar
   131    60    61    2
   132   126   125    1
   133   124   125    2
   134    71    70    1
   135    71    72    1
   136   125   127    1
   137    80    79    1
   138    80    81    1
   139    72    73    2
   140    82    81    2
