@<TRIPOS>MOLECULE
tmp/5yasA00.pdb
 128 121 0 0 0
SMALL
GASTEIGER

@<TRIPOS>ATOM
      1  N         13.0500   46.9950   11.7020 N.3    10  THR10      -0.1203
      2  CA        12.4000   47.5420   12.8820 C.3    10  THR10       0.1994
      3  C         11.2450   48.4780   12.5310 C.2    10  THR10       0.2617
      4  O         11.0300   48.7770   11.3520 O.2    10  THR10      -0.2717
      5  CB        13.4750   48.2660   13.7170 C.3    10  THR10       0.1784
      6  OG1       12.8750   48.4410   14.9820 O.3    10  THR10      -0.2211
      7  CG2       13.9270   49.6160   13.1680 C.3    10  THR10       0.0376
      8  N         10.4650   48.9790   13.5070 N.am   11  ILE11      -0.1979
      9  CA         9.3770   49.8670   13.1260 C.3    11  ILE11       0.1595
     10  C          9.9410   51.1980   12.6350 C.2    11  ILE11       0.2287
     11  O         11.0700   51.6160   12.9270 O.2    11  ILE11      -0.2864
     12  CB         8.3230   50.0450   14.3190 C.3    11  ILE11       0.0276
     13  CG1        8.8250   50.6240   15.5640 C.3    11  ILE11       0.0022
     14  CG2        7.9180   48.6500   14.8010 C.3    11  ILE11       0.0022
     15  CD1        8.0950   51.8770   16.0780 C.3    11  ILE11       0.0001
     16  N         10.9840   51.5290    9.7140 N.3    13  HIS13      -0.1241
     17  CA        11.9840   51.2120    8.6990 C.3    13  HIS13       0.1621
     18  C         11.3990   50.2050    7.6990 C.2    13  HIS13       0.2264
     19  O         10.1900   49.9610    7.6550 O.2    13  HIS13      -0.2867
     20  CB        13.2570   50.6340    9.3710 C.3    13  HIS13       0.0745
     21  CG        13.9920   51.6520   10.2280 C.ar   13  HIS13       0.0817
     22  ND1       13.5290   52.2930   11.2930 N.ar   13  HIS13      -0.2268
     23  CD2       15.2800   52.0970   10.0210 C.ar   13  HIS13       0.1154
     24  CE1       14.4740   53.1050   11.7380 C.ar   13  HIS13       0.1986
     25  NE2       15.5280   52.9810   10.9670 N.ar   13  HIS13      -0.2212
     26  N         16.4360   45.7010   16.2690 N.3    79  SER79      -0.1202
     27  CA        15.7340   46.6070   17.1800 C.3    79  SER79       0.2020
     28  C         14.3280   46.1530   17.5770 C.2    79  SER79       0.2619
     29  O         14.2780   45.1670   18.2880 O.2    79  SER79      -0.2717
     30  CB        15.7730   47.9710   16.4970 C.3    79  SER79       0.2103
     31  OG        15.4040   49.0250   17.3560 O.3    79  SER79      -0.2182
     32  N         13.1640   46.7130   17.2220 N.am   80  CYS80      -0.1969
     33  CA        11.8780   46.1150   17.6110 C.3    80  CYS80       0.1712
     34  C         11.4790   44.8250   16.8880 C.2    80  CYS80       0.2296
     35  O         10.4570   44.2190   17.2100 O.2    80  CYS80      -0.2864
     36  CB        10.7520   47.1280   17.4180 C.3    80  CYS80       0.0983
     37  SG        10.9680   48.5770   18.4670 S.3    80  CYS80      -0.0798
     38  N         12.5750   49.3440   27.9600 N.3   120  LEU120     -0.1245
     39  CA        13.2810   50.2270   27.0310 C.3   120  LEU120      0.1561
     40  C         12.8880   51.6780   27.2300 C.2   120  LEU120      0.2260
     41  O         13.7480   52.5480   27.2030 O.2   120  LEU120     -0.2867
     42  CB        12.9890   49.8680   25.5620 C.3   120  LEU120      0.0270
     43  CG        13.5190   50.7970   24.4450 C.3   120  LEU120      0.0019
     44  CD1       15.0490   50.8330   24.4760 C.3   120  LEU120      0.0001
     45  CD2       13.0020   50.3110   23.0970 C.3   120  LEU120      0.0001
     46  N         13.1540   60.7380   23.3400 N.3   127  TRP127     -0.1241
     47  CA        13.2770   60.4220   21.9260 C.3   127  TRP127      0.1605
     48  C         13.4720   61.6820   21.0890 C.2   127  TRP127      0.2264
     49  O         13.2230   61.7150   19.8870 O.2   127  TRP127     -0.2867
     50  CB        12.0190   59.6150   21.5130 C.3   127  TRP127      0.0550
     51  CG        12.0280   58.1750   22.0550 C.ar  127  TRP127      0.0003
     52  CD1       12.2480   57.9140   23.3910 C.ar  127  TRP127      0.0946
     53  CD2       11.8750   57.0160   21.3310 C.ar  127  TRP127      0.0152
     54  NE1       12.2520   56.6150   23.5160 N.ar  127  TRP127     -0.2442
     55  CE2       12.0390   56.0370   22.3260 C.ar  127  TRP127      0.0810
     56  CE3       11.6320   56.6250   20.0200 C.ar  127  TRP127      0.0012
     57  CZ2       11.9670   54.6740   22.0310 C.ar  127  TRP127      0.0191
     58  CZ3       11.5580   55.2650   19.7220 C.ar  127  TRP127      0.0001
     59  CH2       11.7250   54.2930   20.7130 C.ar  127  TRP127      0.0015
     60  N          4.2080   57.0480   15.9460 N.3   145  LEU145     -0.1245
     61  CA         5.3530   57.9480   16.0440 C.3   145  LEU145      0.1561
     62  C          6.0610   58.0620   14.7010 C.2   145  LEU145      0.2260
     63  O          5.9480   57.1940   13.8270 O.2   145  LEU145     -0.2867
     64  CB         6.3980   57.4590   17.0670 C.3   145  LEU145      0.0270
     65  CG         7.3830   56.3070   16.7510 C.3   145  LEU145      0.0019
     66  CD1        8.3740   56.1540   17.8990 C.3   145  LEU145      0.0001
     67  CD2        6.6330   55.0050   16.5570 C.3   145  LEU145      0.0001
     68  N          9.9710   58.9740   13.8740 N.3   147  LEU147     -0.1245
     69  CA        11.3010   59.1820   14.4210 C.3   147  LEU147      0.1561
     70  C         11.9080   60.4980   13.9790 C.2   147  LEU147      0.2260
     71  O         11.9350   60.8560   12.7960 O.2   147  LEU147     -0.2867
     72  CB        12.1930   58.0160   14.0000 C.3   147  LEU147      0.0270
     73  CG        11.7390   56.6360   14.4860 C.3   147  LEU147      0.0019
     74  CD1       12.7030   55.6000   13.9600 C.3   147  LEU147      0.0001
     75  CD2       11.7110   56.5790   16.0170 C.3   147  LEU147      0.0001
     76  N         17.2960   62.3640   16.3300 N.3   151  LEU151     -0.1245
     77  CA        17.3700   61.0490   16.9460 C.3   151  LEU151      0.1561
     78  C         17.9680   60.0560   15.9500 C.2   151  LEU151      0.2260
     79  O         18.8240   59.2530   16.3010 O.2   151  LEU151     -0.2867
     80  CB        15.9660   60.5710   17.3580 C.3   151  LEU151      0.0270
     81  CG        15.9280   59.2340   18.0970 C.3   151  LEU151      0.0019
     82  CD1       16.3640   59.4480   19.5400 C.3   151  LEU151      0.0001
     83  CD2       14.5420   58.6440   18.0320 C.3   151  LEU151      0.0001
     84  N         20.4780   56.3720   16.3260 N.3   156  LEU156     -0.1245
     85  CA        20.3520   55.1720   15.5180 C.3   156  LEU156      0.1561
     86  C         21.4560   55.0090   14.4910 C.2   156  LEU156      0.2260
     87  O         22.0490   53.9430   14.3690 O.2   156  LEU156     -0.2867
     88  CB        19.0140   55.1490   14.7860 C.3   156  LEU156      0.0270
     89  CG        17.7480   54.8260   15.5640 C.3   156  LEU156      0.0019
     90  CD1       17.3690   55.9440   16.5280 C.3   156  LEU156      0.0001
     91  CD2       16.6290   54.6390   14.5590 C.3   156  LEU156      0.0001
     92  N          4.8420   51.3320   18.0370 N.3   177  LEU177     -0.1245
     93  CA         5.3090   50.2650   18.8960 C.3   177  LEU177      0.1561
     94  C          4.0990   49.4870   19.4010 C.2   177  LEU177      0.2260
     95  O          4.3040   48.4010   19.9300 O.2   177  LEU177     -0.2867
     96  CB         6.0810   50.7960   20.1380 C.3   177  LEU177      0.0270
     97  CG         7.4110   51.5570   20.0120 C.3   177  LEU177      0.0019
     98  CD1        7.7160   52.3150   21.3020 C.3   177  LEU177      0.0001
     99  CD2        8.5320   50.5860   19.7480 C.3   177  LEU177      0.0001
    100  N         20.9240   53.9460   21.4670 N.3   208  ILE208     -0.1231
    101  CA        19.5100   53.9810   21.8540 C.3   208  ILE208      0.1692
    102  C         19.3050   52.7970   22.7900 C.2   208  ILE208      0.2592
    103  O         18.7220   52.9540   23.8620 O.2   208  ILE208     -0.2718
    104  CB        18.4330   53.6930   20.7990 C.3   208  ILE208      0.0266
    105  CG1       19.0820   53.6510   19.4820 C.3   208  ILE208      0.0019
    106  CG2       17.2640   54.6690   20.9020 C.3   208  ILE208      0.0020
    107  CD1       18.0240   52.9710   18.7010 C.3   208  ILE208      0.0001
    108  N         19.6920   51.5850   22.3500 N.am  209  PHE209     -0.1976
    109  CA        19.5720   50.3900   23.1820 C.3   209  PHE209      0.1639
    110  C         20.9040   50.2810   23.8840 C.2   209  PHE209      0.2290
    111  O         21.8280   49.5650   23.5050 O.2   209  PHE209     -0.2864
    112  CB        19.3260   49.1200   22.3420 C.3   209  PHE209      0.0560
    113  CG        17.9430   48.9400   21.7230 C.ar  209  PHE209     -0.0200
    114  CD1       17.1510   50.0320   21.3620 C.ar  209  PHE209     -0.0042
    115  CD2       17.4900   47.6390   21.4950 C.ar  209  PHE209     -0.0042
    116  CE1       15.9090   49.8200   20.7770 C.ar  209  PHE209     -0.0003
    117  CE2       16.2450   47.4390   20.9100 C.ar  209  PHE209     -0.0003
    118  CZ        15.4550   48.5290   20.5530 C.ar  209  PHE209     -0.0000
    119  N         24.0020   51.4170   16.5360 N.3   234  HIS234     -0.1241
    120  CA        22.7630   50.6620   16.5570 C.3   234  HIS234      0.1621
    121  C         22.4820   49.9510   15.2330 C.2   234  HIS234      0.2264
    122  O         21.8930   48.8760   15.2200 O.2   234  HIS234     -0.2867
    123  CB        21.6230   51.6060   16.8850 C.3   234  HIS234      0.0745
    124  CG        20.3040   50.8850   17.1110 C.ar  234  HIS234      0.0817
    125  ND1       19.9940   50.0180   18.0590 N.ar  234  HIS234     -0.2268
    126  CD2       19.1760   51.0600   16.3590 C.ar  234  HIS234      0.1154
    127  CE1       18.7500   49.6630   17.9380 C.ar  234  HIS234      0.1986
    128  NE2       18.2640   50.2990   16.9100 N.ar  234  HIS234     -0.2212
@<TRIPOS>BOND
     1    19    18    2
     2    18    17    1
     3    17    20    1
     4    17    16    1
     5    20    21    1
     6    23    21   ar
     7    23    25   ar
     8    21    22   ar
     9    25    24   ar
    10    22    24   ar
    11     4     3    2
    12     1     2    1
    13     3     2    1
    14     3     8   am
    15    10    11    2
    16    10     9    1
    17    71    70    2
    18     2     5    1
    19     9     8    1
    20     9    12    1
    21     7     5    1
    22     5     6    1
    23    63    62    2
    24    68    69    1
    25    74    73    1
    26    70    69    1
    27    72    69    1
    28    72    73    1
    29    12    14    1
    30    12    13    1
    31    87    86    2
    32    73    75    1
    33    86    85    1
    34    91    89    1
    35    62    61    1
    36    88    85    1
    37    88    89    1
    38   122   121    2
    39   121   120    1
    40    85    84    1
    41    89    90    1
    42    13    15    1
    43    60    61    1
    44    78    79    2
    45    78    77    1
    46    61    64    1
    47    26    27    1
    48    76    77    1
    49   126   128   ar
    50   126   124   ar
    51    30    27    1
    52    30    31    1
    53   119   120    1
    54   120   123    1
    55    67    65    1
    56    65    64    1
    57    65    66    1
    58   123   124    1
    59    34    35    2
    60    34    33    1
    61   128   127   ar
    62    77    80    1
    63   124   125   ar
    64    27    28    1
    65    32    28   am
    66    32    33    1
    67    80    81    1
    68    36    33    1
    69    36    37    1
    70    28    29    2
    71   127   125   ar
    72    83    81    1
    73    92    93    1
    74    81    82    1
    75   107   105    1
    76    93    94    1
    77    93    96    1
    78    94    95    2
    79   105   104    1
    80    58    56   ar
    81    58    59   ar
    82    99    97    1
    83    49    48    2
    84    97    96    1
    85    97    98    1
    86    56    53   ar
    87   118   116   ar
    88   118   117   ar
    89    59    57   ar
    90   116   114   ar
    91   104   106    1
    92   104   101    1
    93   117   115   ar
    94    48    47    1
    95    53    51   ar
    96    53    55   ar
    97   114   113   ar
    98   100   101    1
    99   115   113   ar
   100    50    47    1
   101    50    51    1
   102   113   112    1
   103   101   102    1
   104    47    46    1
   105    57    55   ar
   106    51    52   ar
   107    55    54   ar
   108   112   109    1
   109   108   102   am
   110   108   109    1
   111   102   103    2
   112    45    43    1
   113   109   110    1
   114    52    54   ar
   115   111   110    2
   116    43    44    1
   117    43    42    1
   118    42    39    1
   119    39    40    1
   120    39    38    1
   121    41    40    2
