@<TRIPOS>MOLECULE
tmp/5yavA00.pdb
 163 149 0 0 0
SMALL
GASTEIGER

@<TRIPOS>ATOM
      1  N         30.5290  -20.1790    8.3200 N.3    16  LEU16      -0.1245
      2  CA        29.6650  -19.0160    8.3970 C.3    16  LEU16       0.1561
      3  C         30.4970  -17.8640    8.9610 C.2    16  LEU16       0.2260
      4  O         30.9640  -17.9130   10.1110 O.2    16  LEU16      -0.2867
      5  CB        28.4330  -19.3040    9.2490 C.3    16  LEU16       0.0270
      6  CG        27.2370  -18.3900    8.9980 C.3    16  LEU16       0.0019
      7  CD1       25.9840  -18.9500    9.6540 C.3    16  LEU16       0.0001
      8  CD2       27.5420  -17.0020    9.5190 C.3    16  LEU16       0.0001
      9  N         26.8380  -12.4630   10.0790 N.3    19  MET19      -0.1245
     10  CA        25.4060  -12.4250    9.8440 C.3    19  MET19       0.1570
     11  C         24.7610  -11.2300   10.5270 C.2    19  MET19       0.2261
     12  O         25.2530  -10.7570   11.5520 O.2    19  MET19      -0.2867
     13  CB        24.7850  -13.7320   10.3310 C.3    19  MET19       0.0387
     14  CG        23.2740  -13.7920   10.3220 C.3    19  MET19       0.0595
     15  SD        22.7410  -15.4780   10.7450 S.3    19  MET19      -0.1393
     16  CE        23.8980  -15.9020   12.0480 C.3    19  MET19       0.0692
     17  N         20.6140   -9.1280   11.1550 N.3    21  LEU21      -0.1245
     18  CA        19.1680   -9.0820   11.0180 C.3    21  LEU21       0.1561
     19  C         18.7500   -7.6240   11.0460 C.2    21  LEU21       0.2260
     20  O         19.2280   -6.8610   11.8900 O.2    21  LEU21      -0.2867
     21  CB        18.4700   -9.8470   12.1500 C.3    21  LEU21       0.0270
     22  CG        18.9260  -11.2710   12.4600 C.3    21  LEU21       0.0019
     23  CD1       18.2370  -11.7900   13.7300 C.3    21  LEU21       0.0001
     24  CD2       18.6500  -12.1750   11.2800 C.3    21  LEU21       0.0001
     25  N         20.4350   -6.9770   15.0750 N.3    30  TRP30      -0.1241
     26  CA        21.4630   -7.8610   15.6070 C.3    30  TRP30       0.1605
     27  C         22.5330   -8.1110   14.5580 C.2    30  TRP30       0.2264
     28  O         22.2700   -8.0550   13.3640 O.2    30  TRP30      -0.2867
     29  CB        20.8320   -9.1770   16.0590 C.3    30  TRP30       0.0550
     30  CG        21.7680  -10.1660   16.6640 C.ar   30  TRP30       0.0003
     31  CD1       21.9960  -10.3770   17.9990 C.ar   30  TRP30       0.0946
     32  CD2       22.5870  -11.1040   15.9630 C.ar   30  TRP30       0.0152
     33  NE1       22.9230  -11.3820   18.1670 N.ar   30  TRP30      -0.2442
     34  CE2       23.2990  -11.8450   16.9300 C.ar   30  TRP30       0.0810
     35  CE3       22.7970  -11.3850   14.6060 C.ar   30  TRP30       0.0012
     36  CZ2       24.1990  -12.8540   16.5830 C.ar   30  TRP30       0.0191
     37  CZ3       23.6900  -12.3870   14.2650 C.ar   30  TRP30       0.0001
     38  CH2       24.3830  -13.1050   15.2470 C.ar   30  TRP30       0.0015
     39  N         27.5030  -19.5530   13.9710 N.3    36  LEU36      -0.1245
     40  CA        26.3780  -20.2200   14.6130 C.3    36  LEU36       0.1561
     41  C         25.9660  -21.5080   13.9050 C.2    36  LEU36       0.2260
     42  O         25.0060  -22.1580   14.3090 O.2    36  LEU36      -0.2867
     43  CB        25.1790  -19.2690   14.6850 C.3    36  LEU36       0.0270
     44  CG        25.4180  -17.9490   15.4190 C.3    36  LEU36       0.0019
     45  CD1       24.1730  -17.0770   15.4000 C.3    36  LEU36       0.0001
     46  CD2       25.8660  -18.2260   16.8390 C.3    36  LEU36       0.0001
     47  N         22.4730  -16.6660   21.7460 N.3    45  ALA45      -0.1245
     48  CA        22.4690  -15.3300   21.1770 C.3    45  ALA45       0.1562
     49  C         21.4890  -14.4370   21.9100 C.2    45  ALA45       0.2260
     50  O         20.4300  -14.8960   22.3310 O.2    45  ALA45      -0.2867
     51  CB        22.1180  -15.3780   19.6860 C.3    45  ALA45       0.0290
     52  N         19.0470  -11.1820   21.5250 N.3    47  VAL47      -0.1245
     53  CA        18.3860  -10.3390   20.5390 C.3    47  VAL47       0.1561
     54  C         17.4310   -9.3660   21.2040 C.2    47  VAL47       0.2260
     55  O         16.8260   -9.6900   22.2300 O.2    47  VAL47      -0.2867
     56  CB        17.6070  -11.1780   19.5000 C.3    47  VAL47       0.0252
     57  CG1       18.5560  -12.0880   18.7400 C.3    47  VAL47       0.0019
     58  CG2       16.5310  -12.0050   20.1830 C.3    47  VAL47       0.0019
     59  N         17.4710  -10.8550    6.7890 N.3    59  ARG59      -0.1245
     60  CA        18.7260  -11.4490    7.2380 C.3    59  ARG59       0.1563
     61  C         19.7990  -11.4070    6.1630 C.2    59  ARG59       0.2260
     62  O         19.5340  -11.6930    4.9890 O.2    59  ARG59      -0.2867
     63  CB        18.5040  -12.8940    7.6680 C.3    59  ARG59       0.0307
     64  CG        19.7760  -13.6380    8.0310 C.3    59  ARG59       0.0489
     65  CD        19.4530  -15.0780    8.3810 C.3    59  ARG59       0.2205
     66  NE        18.9700  -15.8200    7.2180 N.pl3  59  ARG59      -0.0865
     67  CZ        18.1610  -16.8740    7.2870 C.cat  59  ARG59       0.5346
     68  NH1       17.7420  -17.3120    8.4690 N.pl3  59  ARG59       0.1354
     69  NH2       17.7710  -17.4930    6.1770 N.pl3  59  ARG59       0.1354
     70  N         23.5700  -13.0930    5.4570 N.3    61  LEU61      -0.1245
     71  CA        24.3030  -14.2560    5.8980 C.3    61  LEU61       0.1561
     72  C         25.5040  -14.4740    4.9810 C.2    61  LEU61       0.2260
     73  O         25.3380  -14.7830    3.8040 O.2    61  LEU61      -0.2867
     74  CB        23.3650  -15.4580    5.8910 C.3    61  LEU61       0.0270
     75  CG        23.7640  -16.7930    6.4920 C.3    61  LEU61       0.0019
     76  CD1       22.5270  -17.6660    6.5890 C.3    61  LEU61       0.0001
     77  CD2       24.8130  -17.4470    5.6260 C.3    61  LEU61       0.0001
     78  N         18.3130  -24.2020    3.3380 N.3    74  LEU74      -0.1245
     79  CA        18.1770  -24.3220    4.7870 C.3    74  LEU74       0.1561
     80  C         16.7710  -24.7130    5.1470 C.2    74  LEU74       0.2260
     81  O         15.8300  -24.3230    4.4640 O.2    74  LEU74      -0.2867
     82  CB        18.4930  -23.0020    5.4880 C.3    74  LEU74       0.0270
     83  CG        19.7650  -22.2280    5.1730 C.3    74  LEU74       0.0019
     84  CD1       19.6640  -20.8460    5.7920 C.3    74  LEU74       0.0001
     85  CD2       20.9830  -22.9650    5.6990 C.3    74  LEU74       0.0001
     86  N         14.6690  -24.2690    8.8030 N.3    76  GLN76      -0.1245
     87  CA        14.7940  -23.7450   10.1550 C.3    76  GLN76       0.1566
     88  C         13.4890  -23.9130   10.8940 C.2    76  GLN76       0.2260
     89  O         12.4270  -23.6740   10.3280 O.2    76  GLN76      -0.2867
     90  CB        15.1940  -22.2770   10.1400 C.3    76  GLN76       0.0367
     91  CG        16.5950  -22.0260    9.6420 C.3    76  GLN76       0.0905
     92  CD        16.9050  -20.5570    9.5960 C.2    76  GLN76       0.2608
     93  OE1       16.2970  -19.8100    8.8360 O.2    76  GLN76      -0.2717
     94  NE2       17.8430  -20.1260   10.4240 N.am   76  GLN76      -0.0878
     95  N         10.6340  -22.6220    8.6540 N.3    88  TRP88      -0.1241
     96  CA        10.9710  -21.8150    7.4810 C.3    88  TRP88       0.1605
     97  C         11.8540  -22.5870    6.5030 C.2    88  TRP88       0.2264
     98  O         12.7000  -23.3820    6.9270 O.2    88  TRP88      -0.2867
     99  CB        11.7020  -20.5300    7.8730 C.3    88  TRP88       0.0550
    100  CG        10.9750  -19.6400    8.8180 C.ar   88  TRP88       0.0003
    101  CD1        9.6800  -19.2250    8.7290 C.ar   88  TRP88       0.0946
    102  CD2       11.5180  -19.0190    9.9900 C.ar   88  TRP88       0.0152
    103  NE1        9.3780  -18.3910    9.7810 N.ar   88  TRP88      -0.2442
    104  CE2       10.4910  -18.2500   10.5710 C.ar   88  TRP88       0.0810
    105  CE3       12.7760  -19.0390   10.6050 C.ar   88  TRP88       0.0012
    106  CZ2       10.6740  -17.5160   11.7470 C.ar   88  TRP88       0.0191
    107  CZ3       12.9620  -18.3000   11.7770 C.ar   88  TRP88       0.0001
    108  CH2       11.9150  -17.5520   12.3320 C.ar   88  TRP88       0.0015
    109  N         12.4650  -12.9820    6.3010 N.3   107  ILE107     -0.1245
    110  CA        11.7740  -13.8280    7.2690 C.3   107  ILE107      0.1561
    111  C         10.4670  -13.1920    7.7240 C.2   107  ILE107      0.2260
    112  O         10.4710  -12.1490    8.3810 O.2   107  ILE107     -0.2867
    113  CB        12.6380  -14.0990    8.5130 C.3   107  ILE107      0.0252
    114  CG1       14.0680  -14.4700    8.1110 C.3   107  ILE107      0.0019
    115  CG2       11.9990  -15.1810    9.3840 C.3   107  ILE107      0.0019
    116  CD1       15.0230  -14.5340    9.2910 C.3   107  ILE107      0.0001
    117  N         16.4000  -22.1260   18.0380 N.3   125  ILE125     -0.1245
    118  CA        16.2940  -22.1360   16.5810 C.3   125  ILE125      0.1561
    119  C         17.1830  -23.2490   16.0790 C.2   125  ILE125      0.2260
    120  O         18.4040  -23.2160   16.2680 O.2   125  ILE125     -0.2867
    121  CB        16.7010  -20.8140   15.9530 C.3   125  ILE125      0.0252
    122  CG1       15.7770  -19.7040   16.4440 C.3   125  ILE125      0.0019
    123  CG2       16.5970  -20.9020   14.4310 C.3   125  ILE125      0.0019
    124  CD1       15.6860  -18.5460   15.4770 C.3   125  ILE125      0.0001
    125  N         18.6340  -25.2570   12.9210 N.3   127  THR127     -0.1218
    126  CA        18.8960  -24.9850   11.5060 C.3   127  THR127      0.1862
    127  C         19.5020  -26.2160   10.8450 C.2   127  THR127      0.2287
    128  O         20.4910  -26.7590   11.3370 O.2   127  THR127     -0.2866
    129  CB        19.8710  -23.7910   11.3030 C.3   127  THR127      0.1770
    130  OG1       19.3120  -22.5830   11.8300 O.3   127  THR127     -0.2211
    131  CG2       20.1600  -23.5830    9.8050 C.3   127  THR127      0.0375
    132  N         21.3050  -27.4880    7.3550 N.3   129  PHE129     -0.1241
    133  CA        21.9480  -27.1060    6.0960 C.3   129  PHE129      0.1605
    134  C         21.9120  -28.2890    5.1370 C.2   129  PHE129      0.2264
    135  O         22.3120  -29.4020    5.4860 O.2   129  PHE129     -0.2867
    136  CB        23.3940  -26.6580    6.3200 C.3   129  PHE129      0.0534
    137  CG        23.5280  -25.4410    7.2020 C.ar  129  PHE129     -0.0203
    138  CD1       23.7410  -24.1870    6.6550 C.ar  129  PHE129     -0.0042
    139  CD2       23.4390  -25.5580    8.5770 C.ar  129  PHE129     -0.0042
    140  CE1       23.8690  -23.0720    7.4680 C.ar  129  PHE129     -0.0003
    141  CE2       23.5610  -24.4410    9.3960 C.ar  129  PHE129     -0.0003
    142  CZ        23.7760  -23.1980    8.8300 C.ar  129  PHE129     -0.0000
    143  N         22.5010  -27.4170   13.4400 N.3   139  SER139     -0.1217
    144  CA        22.9520  -26.6270   14.5850 C.3   139  SER139      0.1889
    145  C         21.7770  -26.0560   15.3860 C.2   139  SER139      0.2288
    146  O         20.6400  -26.0330   14.9050 O.2   139  SER139     -0.2866
    147  CB        23.8610  -25.4960   14.1120 C.3   139  SER139      0.2089
    148  OG        23.1000  -24.5060   13.4590 O.3   139  SER139     -0.2183
    149  N         20.6620  -22.7520   18.2590 N.3   141  VAL141     -0.1245
    150  CA        20.9340  -21.4880   18.9240 C.3   141  VAL141      0.1561
    151  C         19.8230  -21.1800   19.9260 C.2   141  VAL141      0.2260
    152  O         18.6630  -21.0580   19.5410 O.2   141  VAL141     -0.2867
    153  CB        21.0180  -20.3190   17.9340 C.3   141  VAL141      0.0252
    154  CG1       21.4410  -19.0530   18.6610 C.3   141  VAL141      0.0019
    155  CG2       21.9780  -20.6420   16.7840 C.3   141  VAL141      0.0019
    156  N         17.8680  -18.6130   22.1440 N.3   143  LEU143     -0.1245
    157  CA        17.6480  -17.1600   22.1350 C.3   143  LEU143      0.1561
    158  C         17.2960  -16.5660   23.4970 C.2   143  LEU143      0.2260
    159  O         16.4360  -17.0870   24.2000 O.2   143  LEU143     -0.2867
    160  CB        16.5200  -16.7810   21.1890 C.3   143  LEU143      0.0270
    161  CG        16.9480  -16.5060   19.7430 C.3   143  LEU143      0.0019
    162  CD1       17.9030  -17.5610   19.3000 C.3   143  LEU143      0.0001
    163  CD2       15.7360  -16.4630   18.8530 C.3   143  LEU143      0.0001
@<TRIPOS>BOND
     1    78    79    1
     2    73    72    2
     3    81    80    2
     4    79    80    1
     5    79    82    1
     6    72    71    1
     7    62    61    2
     8   134   135    2
     9   134   133    1
    10    83    82    1
    11    83    85    1
    12    83    84    1
    13    70    71    1
    14    77    75    1
    15    74    71    1
    16    74    75    1
    17   133   136    1
    18   133   132    1
    19    61    60    1
    20    69    67    1
    21   109   110    1
    22   136   137    1
    23    75    76    1
    24    97    98    2
    25    97    96    1
    26   138   137   ar
    27   138   140   ar
    28    59    60    1
    29   137   139   ar
    30    66    67    2
    31    66    65    1
    32    60    63    1
    33   110   111    1
    34   110   113    1
    35    67    68    1
    36   140   142   ar
    37    96    99    1
    38    96    95    1
    39    63    64    1
    40   111   112    2
    41    99   100    1
    42    64    65    1
    43   114   113    1
    44   114   116    1
    45     1     2    1
    46     2     3    1
    47     2     5    1
    48   113   115    1
    49   139   141   ar
    50   101   100   ar
    51   101   103   ar
    52    86    87    1
    53   100   102   ar
    54   142   141   ar
    55    93    92    2
    56     3     4    2
    57     6     5    1
    58     6     8    1
    59     6     7    1
    60    92    91    1
    61    92    94   am
    62    91    90    1
    63   103   104   ar
    64   131   129    1
    65    10     9    1
    66    10    13    1
    67    10    11    1
    68   102   104   ar
    69   102   105   ar
    70    90    87    1
    71    87    88    1
    72    14    13    1
    73    14    15    1
    74    89    88    2
    75    11    12    2
    76   104   106   ar
    77   105   107   ar
    78    15    16    1
    79   127   128    2
    80   127   126    1
    81    18    19    1
    82    18    17    1
    83    18    21    1
    84    19    20    2
    85    24    22    1
    86   129   126    1
    87   129   130    1
    88   126   125    1
    89   106   108   ar
    90   107   108   ar
    91    21    22    1
    92    22    23    1
    93    28    27    2
    94   143   144    1
    95   148   147    1
    96    41    42    2
    97    41    40    1
    98    39    40    1
    99   147   144    1
   100    37    35   ar
   101    37    38   ar
   102   123   121    1
   103    27    26    1
   104   144   145    1
   105    35    32   ar
   106    40    43    1
   107    43    44    1
   108   146   145    2
   109    25    26    1
   110    38    36   ar
   111    45    44    1
   112    44    46    1
   113   124   122    1
   114    26    29    1
   115   121   122    1
   116   121   118    1
   117    32    30   ar
   118    32    34   ar
   119    29    30    1
   120   119   120    2
   121   119   118    1
   122   118   117    1
   123    36    34   ar
   124    30    31   ar
   125   155   153    1
   126    34    33   ar
   127   153   154    1
   128   153   150    1
   129    31    33   ar
   130   149   150    1
   131    57    56    1
   132   163   161    1
   133   150   151    1
   134   162   161    1
   135    56    58    1
   136    56    53    1
   137   152   151    2
   138    51    48    1
   139   161   160    1
   140    53    54    1
   141    53    52    1
   142    48    47    1
   143    48    49    1
   144   160   157    1
   145    54    55    2
   146    49    50    2
   147   157   156    1
   148   157   158    1
   149   158   159    2
