@<TRIPOS>MOLECULE
tmp/5yawA00.pdb
 215 199 0 0 0
SMALL
GASTEIGER

@<TRIPOS>ATOM
      1  N         17.1280  -16.2660  -14.3280 N.3    14  PHE14      -0.1241
      2  CA        18.5700  -15.9800  -14.1340 C.3    14  PHE14       0.1605
      3  C         19.1850  -16.6650  -12.9060 C.2    14  PHE14       0.2264
      4  O         18.5600  -16.7590  -11.8400 O.2    14  PHE14      -0.2867
      5  CB        18.7920  -14.4560  -14.0540 C.3    14  PHE14       0.0534
      6  CG        20.2380  -14.0460  -13.8940 C.ar   14  PHE14      -0.0203
      7  CD1       21.0450  -13.8730  -15.0020 C.ar   14  PHE14      -0.0042
      8  CD2       20.7800  -13.8320  -12.6290 C.ar   14  PHE14      -0.0042
      9  CE1       22.3790  -13.4810  -14.8680 C.ar   14  PHE14      -0.0003
     10  CE2       22.1090  -13.4500  -12.4750 C.ar   14  PHE14      -0.0003
     11  CZ        22.9160  -13.2730  -13.5980 C.ar   14  PHE14      -0.0000
     12  N         23.2710  -16.8750  -11.0270 N.3    16  LEU16      -0.1245
     13  CA        24.7400  -16.8220  -10.9500 C.3    16  LEU16       0.1561
     14  C         25.2190  -18.1430  -10.3610 C.2    16  LEU16       0.2260
     15  O         24.8660  -18.4800   -9.2370 O.2    16  LEU16      -0.2867
     16  CB        25.2290  -15.6390  -10.1070 C.3    16  LEU16       0.0270
     17  CG        26.7480  -15.4250   -9.9550 C.3    16  LEU16       0.0019
     18  CD1       27.3910  -15.0330  -11.2740 C.3    16  LEU16       0.0001
     19  CD2       27.0400  -14.3620   -8.8880 C.3    16  LEU16       0.0001
     20  N         31.5880  -17.5510   -8.9850 N.3    19  MET19      -0.1245
     21  CA        32.4000  -16.3650   -9.2360 C.3    19  MET19       0.1570
     22  C         33.7730  -16.5280   -8.5970 C.2    19  MET19       0.2261
     23  O         33.9080  -17.2550   -7.6090 O.2    19  MET19      -0.2867
     24  CB        31.7110  -15.1200   -8.6660 C.3    19  MET19       0.0387
     25  CG        32.4650  -13.8050   -8.9010 C.3    19  MET19       0.0595
     26  SD        32.0560  -12.5850   -7.6180 S.3    19  MET19      -0.1393
     27  CE        30.3080  -12.9160   -7.4300 C.3    19  MET19       0.0692
     28  N         37.6480  -13.9880   -7.7960 N.3    21  LEU21      -0.1245
     29  CA        38.4120  -12.7550   -7.9580 C.3    21  LEU21       0.1561
     30  C         39.8990  -13.0830   -7.8830 C.2    21  LEU21       0.2260
     31  O         40.3240  -13.8450   -7.0160 O.2    21  LEU21      -0.2867
     32  CB        38.0330  -11.7280   -6.8810 C.3    21  LEU21       0.0270
     33  CG        36.5540  -11.3700   -6.7040 C.3    21  LEU21       0.0019
     34  CD1       36.3210  -10.6260   -5.3830 C.3    21  LEU21       0.0001
     35  CD2       36.0770  -10.5290   -7.8640 C.3    21  LEU21       0.0001
     36  N         39.5070  -14.7410   -3.8430 N.3    30  TRP30      -0.1241
     37  CA        38.1990  -15.1130   -3.3250 C.3    30  TRP30       0.1605
     38  C         37.4530  -15.9460   -4.3630 C.2    30  TRP30       0.2264
     39  O         37.5780  -15.6870   -5.5540 O.2    30  TRP30      -0.2867
     40  CB        37.3790  -13.8680   -2.9710 C.3    30  TRP30       0.0550
     41  CG        36.0650  -14.1860   -2.3100 C.ar   30  TRP30       0.0003
     42  CD1       35.8190  -14.2590   -0.9640 C.ar   30  TRP30       0.0946
     43  CD2       34.8250  -14.4960   -2.9600 C.ar   30  TRP30       0.0152
     44  NE1       34.5020  -14.5860   -0.7410 N.ar   30  TRP30      -0.2442
     45  CE2       33.8730  -14.7430   -1.9500 C.ar   30  TRP30       0.0810
     46  CE3       34.4300  -14.5950   -4.2980 C.ar   30  TRP30       0.0012
     47  CZ2       32.5470  -15.0730   -2.2380 C.ar   30  TRP30       0.0191
     48  CZ3       33.1150  -14.9270   -4.5790 C.ar   30  TRP30       0.0001
     49  CH2       32.1920  -15.1640   -3.5540 C.ar   30  TRP30       0.0015
     50  N         25.1550  -14.7210   -5.1740 N.3    36  LEU36      -0.1231
     51  CA        25.1390  -13.3980   -4.5580 C.3    36  LEU36       0.1693
     52  C         24.2250  -12.3900   -5.2590 C.2    36  LEU36       0.2592
     53  O         24.0930  -11.2640   -4.7980 O.2    36  LEU36      -0.2718
     54  CB        26.5700  -12.8280   -4.5060 C.3    36  LEU36       0.0284
     55  CG        27.5960  -13.5970   -3.6730 C.3    36  LEU36       0.0019
     56  CD1       28.9900  -13.0060   -3.8400 C.3    36  LEU36       0.0001
     57  CD2       27.1980  -13.6230   -2.2010 C.3    36  LEU36       0.0001
     58  N         23.5990  -12.7700   -6.3690 N.am   37  SER37      -0.1952
     59  CA        22.7540  -11.8170   -7.0930 C.3    37  SER37       0.1924
     60  C         21.3120  -11.8210   -6.5730 C.2    37  SER37       0.2314
     61  O         20.5170  -10.9380   -6.9110 O.2    37  SER37      -0.2863
     62  CB        22.7730  -12.1080   -8.6040 C.3    37  SER37       0.2116
     63  OG        22.0280  -13.2760   -8.9080 O.3    37  SER37      -0.2180
     64  N         30.3960  -11.5310    2.5760 N.3    45  ALA45      -0.1245
     65  CA        31.5820  -12.1280    1.9900 C.3    45  ALA45       0.1562
     66  C         32.7870  -11.7130    2.7990 C.2    45  ALA45       0.2260
     67  O         32.8480  -10.5850    3.2930 O.2    45  ALA45      -0.2867
     68  CB        31.7440  -11.7050    0.5230 C.3    45  ALA45       0.0290
     69  N         36.8170  -11.2200    2.4690 N.3    47  VAL47      -0.1245
     70  CA        37.9200  -11.1470    1.5240 C.3    47  VAL47       0.1561
     71  C         39.2010  -10.8550    2.2840 C.2    47  VAL47       0.2260
     72  O         39.1590  -10.2460    3.3450 O.2    47  VAL47      -0.2867
     73  CB        37.6700  -10.0800    0.4510 C.3    47  VAL47       0.0252
     74  CG1       36.4550  -10.4600   -0.3800 C.3    47  VAL47       0.0019
     75  CG2       37.4580   -8.7240    1.1000 C.3    47  VAL47       0.0019
     76  N         38.0670  -10.5140  -12.3580 N.3    59  ARG59      -0.1245
     77  CA        36.8680  -11.2430  -11.9370 C.3    59  ARG59       0.1563
     78  C         36.3740  -12.2330  -12.9900 C.2    59  ARG59       0.2260
     79  O         36.4200  -11.9510  -14.1810 O.2    59  ARG59      -0.2867
     80  CB        35.7380  -10.2660  -11.6070 C.3    59  ARG59       0.0307
     81  CG        34.4160  -10.9640  -11.3040 C.3    59  ARG59       0.0489
     82  CD        33.2970   -9.9760  -11.0810 C.3    59  ARG59       0.2205
     83  NE        32.9740   -9.2400  -12.2980 N.pl3  59  ARG59      -0.0865
     84  CZ        32.3630   -8.0630  -12.2990 C.cat  59  ARG59       0.5346
     85  NH1       32.0230   -7.5110  -11.1460 N.pl3  59  ARG59       0.1354
     86  NH2       32.1000   -7.4360  -13.4430 N.pl3  59  ARG59       0.1354
     87  N         32.8270  -14.4850  -13.7470 N.3    61  LEU61      -0.1245
     88  CA        31.4150  -14.6200  -13.4090 C.3    61  LEU61       0.1561
     89  C         30.7900  -15.6900  -14.2980 C.2    61  LEU61       0.2260
     90  O         30.8290  -15.5480  -15.5240 O.2    61  LEU61      -0.2867
     91  CB        30.7100  -13.2820  -13.6380 C.3    61  LEU61       0.0270
     92  CG        29.9340  -12.4690  -12.6050 C.3    61  LEU61       0.0019
     93  CD1       30.5290  -12.5350  -11.1990 C.3    61  LEU61       0.0001
     94  CD2       29.8410  -11.0130  -13.0740 C.3    61  LEU61       0.0001
     95  N         22.9490   -7.0280  -21.5400 N.3    72  PHE72      -0.1241
     96  CA        23.1830   -7.3370  -20.1320 C.3    72  PHE72       0.1605
     97  C         24.3320   -6.4710  -19.5980 C.2    72  PHE72       0.2264
     98  O         25.4100   -6.4000  -20.1980 O.2    72  PHE72      -0.2867
     99  CB        23.5020   -8.8290  -19.9860 C.3    72  PHE72       0.0534
    100  CG        23.7910   -9.2830  -18.5650 C.ar   72  PHE72      -0.0203
    101  CD1       23.1630   -8.7010  -17.4800 C.ar   72  PHE72      -0.0042
    102  CD2       24.6910  -10.3220  -18.3380 C.ar   72  PHE72      -0.0042
    103  CE1       23.4310   -9.1530  -16.1610 C.ar   72  PHE72      -0.0003
    104  CE2       24.9640  -10.7740  -17.0430 C.ar   72  PHE72      -0.0003
    105  CZ        24.3320  -10.1880  -15.9550 C.ar   72  PHE72      -0.0000
    106  N         25.9900   -4.3760  -15.7420 N.3    74  LEU74      -0.1245
    107  CA        25.9190   -4.1240  -14.3010 C.3    74  LEU74       0.1561
    108  C         26.3680   -2.7100  -13.9860 C.2    74  LEU74       0.2260
    109  O         27.2330   -2.1590  -14.6710 O.2    74  LEU74      -0.2867
    110  CB        26.7970   -5.1040  -13.5270 C.3    74  LEU74       0.0270
    111  CG        26.6610   -6.6010  -13.8070 C.3    74  LEU74       0.0019
    112  CD1       27.8100   -7.3440  -13.1370 C.3    74  LEU74       0.0001
    113  CD2       25.3150   -7.1100  -13.3260 C.3    74  LEU74       0.0001
    114  N         27.7920   -1.0890  -10.4280 N.3    76  GLN76      -0.1245
    115  CA        28.1380   -1.5160   -9.0750 C.3    76  GLN76       0.1566
    116  C         28.7570   -0.3880   -8.2690 C.2    76  GLN76       0.2260
    117  O         29.6520    0.3050   -8.7410 O.2    76  GLN76      -0.2867
    118  CB        29.0730   -2.7320   -9.1280 C.3    76  GLN76       0.0367
    119  CG        28.3840   -3.9730   -9.7030 C.3    76  GLN76       0.0905
    120  CD        29.3250   -5.1310   -9.9590 C.2    76  GLN76       0.2608
    121  OE1       30.2460   -5.0350  -10.7710 O.2    76  GLN76      -0.2717
    122  NE2       29.0890   -6.2450   -9.2740 N.am   76  GLN76      -0.0878
    123  N         30.3470    0.9760   -4.3860 N.3    78  VAL78      -0.1245
    124  CA        30.8490    0.8110   -3.0190 C.3    78  VAL78       0.1561
    125  C         30.1810    1.8250   -2.1090 C.2    78  VAL78       0.2260
    126  O         30.2830    3.0390   -2.3220 O.2    78  VAL78      -0.2867
    127  CB        32.3810    0.9960   -2.9190 C.3    78  VAL78       0.0252
    128  CG1       32.8380    0.8040   -1.4780 C.3    78  VAL78       0.0019
    129  CG2       33.1000    0.0280   -3.8160 C.3    78  VAL78       0.0019
    130  N         31.3420    1.4110  -10.5850 N.3    88  TRP88      -0.1241
    131  CA        31.8350    0.7470  -11.7850 C.3    88  TRP88       0.1605
    132  C         30.6970    0.3980  -12.7320 C.2    88  TRP88       0.2264
    133  O         29.5840    0.0950  -12.2950 O.2    88  TRP88      -0.2867
    134  CB        32.5830   -0.5420  -11.4510 C.3    88  TRP88       0.0550
    135  CG        33.8900   -0.3670  -10.7930 C.ar   88  TRP88       0.0003
    136  CD1       35.0840   -0.0900  -11.4010 C.ar   88  TRP88       0.0946
    137  CD2       34.1680   -0.4860   -9.3940 C.ar   88  TRP88       0.0152
    138  NE1       36.0840   -0.0170  -10.4600 N.ar   88  TRP88      -0.2442
    139  CE2       35.5480   -0.2590   -9.2180 C.ar   88  TRP88       0.0810
    140  CE3       33.3840   -0.7640   -8.2690 C.ar   88  TRP88       0.0012
    141  CZ2       36.1680   -0.2930   -7.9580 C.ar   88  TRP88       0.0191
    142  CZ3       34.0030   -0.8040   -7.0140 C.ar   88  TRP88       0.0001
    143  CH2       35.3800   -0.5680   -6.8740 C.ar   88  TRP88       0.0015
    144  N         29.9640   -2.2300  -16.0320 N.3    90  PHE90      -0.1241
    145  CA        30.4290   -3.3530  -16.8380 C.3    90  PHE90       0.1605
    146  C         29.3350   -3.8280  -17.7970 C.2    90  PHE90       0.2264
    147  O         28.2100   -4.0820  -17.3810 O.2    90  PHE90      -0.2867
    148  CB        30.8510   -4.5240  -15.9610 C.3    90  PHE90       0.0534
    149  CG        31.8900   -4.1800  -14.9330 C.ar   90  PHE90      -0.0203
    150  CD1       33.2280   -4.1170  -15.2830 C.ar   90  PHE90      -0.0042
    151  CD2       31.5280   -3.9570  -13.6130 C.ar   90  PHE90      -0.0042
    152  CE1       34.1980   -3.8230  -14.3350 C.ar   90  PHE90      -0.0003
    153  CE2       32.4980   -3.6590  -12.6550 C.ar   90  PHE90      -0.0003
    154  CZ        33.8290   -3.5950  -13.0200 C.ar   90  PHE90      -0.0000
    155  N         38.7460   -5.0880  -12.9710 N.3   107  ILE107     -0.1245
    156  CA        38.3170   -4.0430  -12.0620 C.3   107  ILE107      0.1561
    157  C         39.5260   -3.2830  -11.5350 C.2   107  ILE107      0.2260
    158  O         40.4230   -3.8720  -10.9350 O.2   107  ILE107     -0.2867
    159  CB        37.5330   -4.6110  -10.8790 C.3   107  ILE107      0.0252
    160  CG1       36.5320   -5.6720  -11.3560 C.3   107  ILE107      0.0019
    161  CG2       36.8520   -3.4910  -10.1190 C.3   107  ILE107      0.0019
    162  CD1       35.6640   -6.2100  -10.2300 C.3   107  ILE107      0.0001
    163  N         28.5470   -3.5260   -1.1770 N.3   125  ILE125     -0.1245
    164  CA        28.6020   -3.4430   -2.6380 C.3   125  ILE125      0.1561
    165  C         27.2050   -3.6200   -3.1780 C.2   125  ILE125      0.2260
    166  O         26.5790   -4.6720   -2.9700 O.2   125  ILE125     -0.2867
    167  CB        29.4900   -4.5150   -3.2590 C.3   125  ILE125      0.0252
    168  CG1       30.8580   -4.5480   -2.5840 C.3   125  ILE125      0.0019
    169  CG2       29.6170   -4.2900   -4.7880 C.3   125  ILE125      0.0019
    170  CD1       31.6660   -3.3060   -2.8300 C.3   125  ILE125      0.0001
    171  N         24.8120   -3.8960   -6.4380 N.3   127  THR127     -0.1218
    172  CA        24.8870   -4.2360   -7.8510 C.3   127  THR127      0.1862
    173  C         23.5110   -4.0570   -8.4580 C.2   127  THR127      0.2287
    174  O         22.5340   -4.6050   -7.9490 O.2   127  THR127     -0.2866
    175  CB        25.3640   -5.6840   -8.0780 C.3   127  THR127      0.1770
    176  OG1       26.7100   -5.8360   -7.6090 O.3   127  THR127     -0.2211
    177  CG2       25.3090   -6.0480   -9.5610 C.3   127  THR127      0.0375
    178  N         21.3460   -4.8080  -11.8430 N.3   129  PHE129     -0.1241
    179  CA        21.2660   -5.7360  -12.9740 C.3   129  PHE129      0.1605
    180  C         20.3450   -5.0950  -14.0220 C.2   129  PHE129      0.2264
    181  O         19.1500   -4.8760  -13.7640 O.2   129  PHE129     -0.2867
    182  CB        20.7540   -7.0960  -12.4230 C.3   129  PHE129      0.0534
    183  CG        20.4380   -8.1710  -13.4490 C.ar  129  PHE129     -0.0203
    184  CD1       20.5480   -7.9740  -14.8240 C.ar  129  PHE129     -0.0042
    185  CD2       20.0030   -9.4160  -12.9930 C.ar  129  PHE129     -0.0042
    186  CE1       20.2180   -9.0020  -15.7210 C.ar  129  PHE129     -0.0003
    187  CE2       19.6780  -10.4450  -13.8780 C.ar  129  PHE129     -0.0003
    188  CZ        19.7890  -10.2410  -15.2410 C.ar  129  PHE129     -0.0000
    189  N         17.0110   -6.1060  -11.2940 N.3   137  SER137     -0.1217
    190  CA        17.0940   -6.2920   -9.8400 C.3   137  SER137      0.1889
    191  C         18.2310   -5.5040   -9.2180 C.2   137  SER137      0.2288
    192  O         19.1190   -5.0140   -9.9110 O.2   137  SER137     -0.2866
    193  CB        17.2770   -7.7720   -9.4820 C.3   137  SER137      0.2089
    194  OG        18.6090   -8.2030   -9.7420 O.3   137  SER137     -0.2183
    195  N         20.9140   -6.0530   -5.8970 N.3   139  SER139     -0.1217
    196  CA        21.3490   -6.9100   -4.7930 C.3   139  SER139      0.1889
    197  C         22.5260   -6.3010   -4.0160 C.2   139  SER139      0.2288
    198  O         23.1980   -5.3890   -4.5120 O.2   139  SER139     -0.2866
    199  CB        21.7220   -8.2890   -5.3160 C.3   139  SER139      0.2089
    200  OG        22.6180   -8.1740   -6.4000 O.3   139  SER139     -0.2183
    201  N         25.9450   -7.0270   -1.1590 N.3   141  VAL141     -0.1245
    202  CA        26.8980   -7.8240   -0.4080 C.3   141  VAL141      0.1561
    203  C         27.6340   -6.9690    0.6320 C.2   141  VAL141      0.2260
    204  O         28.2410   -5.9660    0.2760 O.2   141  VAL141     -0.2867
    205  CB        27.9470   -8.4720   -1.3180 C.3   141  VAL141      0.0252
    206  CG1       28.8820   -9.3150   -0.4890 C.3   141  VAL141      0.0019
    207  CG2       27.2780   -9.3330   -2.3870 C.3   141  VAL141      0.0019
    208  N         30.7770   -6.4880    3.0260 N.3   143  LEU143     -0.1245
    209  CA        32.1520   -6.9870    2.9870 C.3   143  LEU143      0.1561
    210  C         32.8600   -6.9560    4.3480 C.2   143  LEU143      0.2260
    211  O         32.7760   -5.9700    5.0930 O.2   143  LEU143     -0.2867
    212  CB        32.9670   -6.1820    1.9750 C.3   143  LEU143      0.0270
    213  CG        33.1900   -6.8170    0.5980 C.3   143  LEU143      0.0019
    214  CD1       31.9360   -7.5100    0.0790 C.3   143  LEU143      0.0001
    215  CD2       33.6800   -5.7710   -0.3950 C.3   143  LEU143      0.0001
@<TRIPOS>BOND
     1    95    96    1
     2    98    97    2
     3    96    99    1
     4    96    97    1
     5    99   100    1
     6   100   102   ar
     7   100   101   ar
     8   102   104   ar
     9   146   147    2
    10   146   145    1
    11   101   103   ar
    12   104   105   ar
    13   145   144    1
    14   145   148    1
    15   103   105   ar
    16   148   149    1
    17   106   107    1
    18   186   188   ar
    19   186   184   ar
    20    90    89    2
    21   150   149   ar
    22   150   152   ar
    23   188   187   ar
    24     7     9   ar
    25     7     6   ar
    26   149   151   ar
    27     9    11   ar
    28   184   183   ar
    29   109   108    2
    30   152   154   ar
    31     1     2    1
    32   107   108    1
    33   107   110    1
    34    89    88    1
    35    79    78    2
    36     2     5    1
    37     2     3    1
    38     5     6    1
    39   180   181    2
    40   180   179    1
    41     6     8   ar
    42   187   185   ar
    43   111   110    1
    44   111   113    1
    45   111   112    1
    46    87    88    1
    47    91    88    1
    48    91    92    1
    49   151   153   ar
    50    11    10   ar
    51   183   185   ar
    52   183   182    1
    53    86    84    1
    54    94    92    1
    55   154   153   ar
    56    78    77    1
    57   179   182    1
    58   179   178    1
    59   155   156    1
    60     3     4    2
    61   132   133    2
    62   132   131    1
    63     8    10   ar
    64    92    93    1
    65    76    77    1
    66    84    83    2
    67    84    85    1
    68    83    82    1
    69   156   157    1
    70   156   159    1
    71    77    80    1
    72   131   134    1
    73   131   130    1
    74    80    81    1
    75   157   158    2
    76   134   135    1
    77   136   135   ar
    78   136   138   ar
    79   160   159    1
    80   160   162    1
    81    81    82    1
    82   189   190    1
    83    18    17    1
    84    12    13    1
    85    13    14    1
    86    13    16    1
    87   159   161    1
    88   135   137   ar
    89   121   120    2
    90   138   139   ar
    91   114   115    1
    92    14    15    2
    93    16    17    1
    94   120   119    1
    95   120   122   am
    96    17    19    1
    97   192   191    2
    98   190   193    1
    99   190   191    1
   100   194   193    1
   101   119   118    1
   102   177   175    1
   103   137   139   ar
   104   137   140   ar
   105    21    20    1
   106    21    24    1
   107    21    22    1
   108   139   141   ar
   109   118   115    1
   110   115   116    1
   111    63    62    1
   112    25    24    1
   113    25    26    1
   114   117   116    2
   115    62    59    1
   116    22    23    2
   117   173   174    2
   118   173   172    1
   119   140   142   ar
   120   175   172    1
   121   175   176    1
   122   141   143   ar
   123    29    30    1
   124    29    28    1
   125    29    32    1
   126    30    31    2
   127    35    33    1
   128   172   171    1
   129    26    27    1
   130    59    60    1
   131    59    58    1
   132   142   143   ar
   133    61    60    2
   134    32    33    1
   135    33    34    1
   136   200   199    1
   137    58    52   am
   138   195   196    1
   139    39    38    2
   140   199   196    1
   141    52    53    2
   142    52    51    1
   143    50    51    1
   144   196   197    1
   145   169   167    1
   146    48    46   ar
   147    48    49   ar
   148    51    54    1
   149   198   197    2
   150    54    55    1
   151   123   124    1
   152    38    37    1
   153    46    43   ar
   154    36    37    1
   155    56    55    1
   156   129   127    1
   157    55    57    1
   158    49    47   ar
   159    37    40    1
   160   167   164    1
   161   167   168    1
   162   165   166    2
   163   165   164    1
   164   124   127    1
   165   124   125    1
   166    40    41    1
   167    43    41   ar
   168    43    45   ar
   169   127   128    1
   170   170   168    1
   171   164   163    1
   172   207   205    1
   173   126   125    2
   174    41    42   ar
   175    47    45   ar
   176    45    44   ar
   177   205   206    1
   178   205   202    1
   179   201   202    1
   180    42    44   ar
   181   202   203    1
   182   215   213    1
   183    74    73    1
   184   214   213    1
   185   204   203    2
   186    73    75    1
   187    73    70    1
   188    68    65    1
   189   213   212    1
   190    70    71    1
   191    70    69    1
   192   212   209    1
   193    65    64    1
   194    65    66    1
   195    71    72    2
   196    66    67    2
   197   209   208    1
   198   209   210    1
   199   210   211    2
