@<TRIPOS>MOLECULE
tmp/5yb1A07.pdb
 128 122 0 0 0
SMALL
GASTEIGER

@<TRIPOS>ATOM
      1  N         -7.9350   18.0490   10.3270 N.3   112  ARG112     -0.1231
      2  CA        -6.7500   17.6380    9.5860 C.3   112  ARG112      0.1694
      3  C         -5.4830   18.1160   10.2940 C.2   112  ARG112      0.2591
      4  O         -5.3990   19.2660   10.7320 O.2   112  ARG112     -0.2718
      5  CB        -6.8370   18.1780    8.1560 C.3   112  ARG112      0.0321
      6  CG        -5.5560   18.7200    7.5780 C.3   112  ARG112      0.0489
      7  CD        -5.8290   19.9760    6.7660 C.3   112  ARG112      0.2205
      8  NE        -4.6720   20.3470    5.9610 N.pl3 112  ARG112     -0.0865
      9  CZ        -3.5840   20.9370    6.4410 C.cat 112  ARG112      0.5346
     10  NH1       -3.4860   21.2110    7.7360 N.pl3 112  ARG112      0.1354
     11  NH2       -2.5840   21.2380    5.6260 N.pl3 112  ARG112      0.1354
     12  N         -4.5090   17.2140   10.4320 N.am  113  LEU113     -0.1980
     13  CA        -3.2520   17.5360   11.1060 C.3   113  LEU113      0.1596
     14  C         -2.4600   18.5740   10.3240 C.2   113  LEU113      0.2287
     15  O         -2.0420   18.3230    9.1870 O.2   113  LEU113     -0.2864
     16  CB        -2.4080   16.2780   11.2920 C.3   113  LEU113      0.0297
     17  CG        -2.4320   15.5870   12.6510 C.3   113  LEU113      0.0022
     18  CD1       -1.4130   14.4600   12.6560 C.3   113  LEU113      0.0001
     19  CD2       -2.1360   16.5900   13.7670 C.3   113  LEU113      0.0001
     20  N         -1.1830   10.5980   15.1740 N.3   140  ILE140     -0.1245
     21  CA        -1.2480    9.6920   14.0350 C.3   140  ILE140      0.1561
     22  C         -2.0210    8.4330   14.4070 C.2   140  ILE140      0.2260
     23  O         -2.8860    7.9740   13.6560 O.2   140  ILE140     -0.2867
     24  CB         0.1660    9.3540   13.5270 C.3   140  ILE140      0.0252
     25  CG1        1.0190   10.6200   13.3880 C.3   140  ILE140      0.0019
     26  CG2        0.0880    8.6360   12.2010 C.3   140  ILE140      0.0019
     27  CD1        0.4900   11.6420   12.4150 C.3   140  ILE140      0.0001
     28  N         -5.8170    8.5340   14.5140 N.3   143  ARG143     -0.1231
     29  CA        -6.4310    8.6600   13.2000 C.3   143  ARG143      0.1694
     30  C         -6.2680    7.4040   12.3560 C.2   143  ARG143      0.2592
     31  O         -6.6750    7.3990   11.1920 O.2   143  ARG143     -0.2718
     32  CB        -5.8440    9.8760   12.4680 C.3   143  ARG143      0.0321
     33  CG        -6.2260   11.2200   13.0990 C.3   143  ARG143      0.0489
     34  CD        -5.3350   12.3780   12.6040 C.3   143  ARG143      0.2205
     35  NE        -5.8660   13.6770   13.0130 N.pl3 143  ARG143     -0.0865
     36  CZ        -5.6050   14.2850   14.1700 C.cat 143  ARG143      0.5346
     37  NH1       -4.7990   13.7290   15.0590 N.pl3 143  ARG143      0.1354
     38  NH2       -6.1620   15.4600   14.4430 N.pl3 143  ARG143      0.1354
     39  N         -5.6870    6.3430   12.9100 N.am  144  HIS144     -0.1976
     40  CA        -5.5400    5.0630   12.2110 C.3   144  HIS144      0.1656
     41  C         -5.7140    3.9250   13.2030 C.2   144  HIS144      0.2291
     42  O         -4.7920    3.1360   13.4370 O.2   144  HIS144     -0.2864
     43  CB        -4.1840    4.9670   11.5220 C.3   144  HIS144      0.0771
     44  CG        -4.0310    5.9060   10.3790 C.ar  144  HIS144      0.0820
     45  ND1       -4.2700    5.5280    9.0770 N.ar  144  HIS144     -0.2267
     46  CD2       -3.6770    7.2100   10.3380 C.ar  144  HIS144      0.1154
     47  CE1       -4.0600    6.5600    8.2790 C.ar  144  HIS144      0.1986
     48  NE2       -3.7000    7.5920    9.0200 N.ar  144  HIS144     -0.2212
     49  N         -4.3690    0.7040   11.9020 N.3   147  PHE147     -0.1241
     50  CA        -3.0140    0.6140   11.3840 C.3   147  PHE147      0.1605
     51  C         -2.1690   -0.2100   12.3500 C.2   147  PHE147      0.2264
     52  O         -2.2220   -0.0020   13.5680 O.2   147  PHE147     -0.2867
     53  CB        -2.4200    2.0100   11.1750 C.3   147  PHE147      0.0534
     54  CG        -1.1140    2.0060   10.4380 C.ar  147  PHE147     -0.0203
     55  CD1       -1.0710    1.7510    9.0790 C.ar  147  PHE147     -0.0042
     56  CD2        0.0770    2.2520   11.1050 C.ar  147  PHE147     -0.0042
     57  CE1        0.1350    1.7350    8.3960 C.ar  147  PHE147     -0.0003
     58  CE2        1.2790    2.2400   10.4270 C.ar  147  PHE147     -0.0003
     59  CZ         1.3060    1.9820    9.0700 C.ar  147  PHE147     -0.0000
     60  N          3.7160    1.4160   12.6860 N.3   152  LEU152     -0.1245
     61  CA         3.6220    2.8150   13.0780 C.3   152  LEU152      0.1561
     62  C          4.8390    3.2300   13.8930 C.2   152  LEU152      0.2260
     63  O          5.3530    4.3480   13.7480 O.2   152  LEU152     -0.2867
     64  CB         2.3390    3.0140   13.8750 C.3   152  LEU152      0.0270
     65  CG         1.8190    4.4250   14.0160 C.3   152  LEU152      0.0019
     66  CD1        1.5340    4.9560   12.6250 C.3   152  LEU152      0.0001
     67  CD2        0.5480    4.3840   14.8420 C.3   152  LEU152      0.0001
     68  N          7.6950    3.7510   11.5650 N.3   155  PHE155     -0.1241
     69  CA         7.6410    5.0930   10.9860 C.3   155  PHE155      0.1605
     70  C          8.1340    6.1400   11.9750 C.2   155  PHE155      0.2264
     71  O          8.9510    7.0000   11.6280 O.2   155  PHE155     -0.2867
     72  CB         6.2230    5.4260   10.5360 C.3   155  PHE155      0.0534
     73  CG         5.8810    4.8870    9.1850 C.ar  155  PHE155     -0.0203
     74  CD1        6.3120    5.5310    8.0430 C.ar  155  PHE155     -0.0042
     75  CD2        5.1340    3.7330    9.0530 C.ar  155  PHE155     -0.0042
     76  CE1        5.9990    5.0300    6.7920 C.ar  155  PHE155     -0.0003
     77  CE2        4.8190    3.2310    7.8100 C.ar  155  PHE155     -0.0003
     78  CZ         5.2510    3.8800    6.6780 C.ar  155  PHE155     -0.0000
     79  N         10.8610    9.2600   11.6400 N.3   159  TYR159     -0.1241
     80  CA        10.6270   10.6710   11.9110 C.3   159  TYR159      0.1605
     81  C         11.6810   11.2190   12.8600 C.2   159  TYR159      0.2264
     82  O         12.2640   12.2860   12.6160 O.2   159  TYR159     -0.2867
     83  CB         9.2260   10.8770   12.4750 C.3   159  TYR159      0.0534
     84  CG         8.1590   10.9510   11.4090 C.ar  159  TYR159     -0.0201
     85  CD1        8.0240   12.0800   10.6110 C.ar  159  TYR159     -0.0009
     86  CD2        7.2940    9.8950   11.1990 C.ar  159  TYR159     -0.0009
     87  CE1        7.0490   12.1590    9.6390 C.ar  159  TYR159      0.0417
     88  CE2        6.3180    9.9580   10.2310 C.ar  159  TYR159      0.0417
     89  CZ         6.1990   11.0930    9.4500 C.ar  159  TYR159      0.1957
     90  OH         5.2140   11.1410    8.4860 O.3   159  TYR159     -0.2866
     91  N          7.8570   10.3810    4.0550 N.3   183  LEU183     -0.1231
     92  CA         7.1960    9.6230    5.1110 C.3   183  LEU183      0.1693
     93  C          5.6830    9.6640    4.9650 C.2   183  LEU183      0.2591
     94  O          5.0170    8.6310    5.0910 O.2   183  LEU183     -0.2718
     95  CB         7.6150   10.1550    6.4790 C.3   183  LEU183      0.0284
     96  CG         9.0770    9.8340    6.7390 C.3   183  LEU183      0.0019
     97  CD1        9.5540   10.3590    8.0860 C.3   183  LEU183      0.0001
     98  CD2        9.2340    8.3320    6.6270 C.3   183  LEU183      0.0001
     99  N          5.1230   10.8420    4.6870 N.am  184  ARG184     -0.1980
    100  CA         3.6850   10.9440    4.4640 C.3   184  ARG184      0.1597
    101  C          3.2510   10.0190    3.3300 C.2   184  ARG184      0.2287
    102  O          2.2640    9.2780    3.4480 O.2   184  ARG184     -0.2864
    103  CB         3.3210   12.3950    4.1420 C.3   184  ARG184      0.0334
    104  CG         1.8540   12.6410    3.8240 C.3   184  ARG184      0.0492
    105  CD         1.6690   14.0370    3.2370 C.3   184  ARG184      0.2205
    106  NE         2.6170   14.2670    2.1440 N.pl3 184  ARG184     -0.0865
    107  CZ         2.8130   15.4330    1.5340 C.cat 184  ARG184      0.5346
    108  NH1        3.7010   15.5160    0.5500 N.pl3 184  ARG184      0.1354
    109  NH2        2.1350   16.5130    1.9090 N.pl3 184  ARG184      0.1354
    110  N          3.3750    6.4600    4.2600 N.3   187  GLY187     -0.1210
    111  CA         2.3670    6.2020    5.2690 C.3   187  GLY187      0.1956
    112  C          0.9960    5.9620    4.6680 C.2   187  GLY187      0.2611
    113  O          0.3390    4.9630    4.9750 O.2   187  GLY187     -0.2717
    114  N          0.5380    6.8750    3.8040 N.am  188  LYS188     -0.1979
    115  CA        -0.7670    6.6630    3.1790 C.3   188  LYS188      0.1596
    116  C         -0.7400    5.4720    2.2270 C.2   188  LYS188      0.2287
    117  O         -1.7170    4.7190    2.1410 O.2   188  LYS188     -0.2864
    118  CB        -1.2330    7.9250    2.4540 C.3   188  LYS188      0.0298
    119  CG        -1.8180    8.9800    3.3780 C.3   188  LYS188      0.0038
    120  CD        -2.5750   10.0530    2.5950 C.3   188  LYS188      0.0206
    121  CE        -1.6580   10.8110    1.6390 C.3   188  LYS188      0.1093
    122  NZ        -0.6300   11.6020    2.3690 N.3   188  LYS188     -0.1314
    123  N         -0.9110    2.3790    4.5310 N.3   191  SER191     -0.1217
    124  CA        -2.2140    2.3520    5.1800 C.3   191  SER191      0.1889
    125  C         -3.3320    2.0250    4.2020 C.2   191  SER191      0.2288
    126  O         -4.3750    1.5100    4.6200 O.2   191  SER191     -0.2866
    127  CB        -2.4840    3.6910    5.8650 C.3   191  SER191      0.2089
    128  OG        -3.7590    3.7020    6.4810 O.3   191  SER191     -0.2183
@<TRIPOS>BOND
     1   108   107    1
     2   107   109    1
     3   107   106    2
     4   121   122    1
     5   121   120    1
     6   117   116    2
     7   106   105    1
     8   116   115    1
     9   118   115    1
    10   118   119    1
    11   120   119    1
    12   115   114    1
    13   105   104    1
    14   101   102    2
    15   101   100    1
    16   114   112   am
    17   104   103    1
    18    91    92    1
    19   103   100    1
    20   125   126    2
    21   125   124    1
    22   110   111    1
    23   100    99    1
    24   123   124    1
    25   112   113    2
    26   112   111    1
    27    99    93   am
    28    93    94    2
    29    93    92    1
    30    92    95    1
    31   124   127    1
    32    11     9    1
    33   127   128    1
    34     8     9    2
    35     8     7    1
    36     9    10    1
    37    95    96    1
    38    98    96    1
    39    78    76   ar
    40    78    77   ar
    41    96    97    1
    42     7     6    1
    43    76    74   ar
    44     6     5    1
    45    77    75   ar
    46    74    73   ar
    47     5     2    1
    48    47    48   ar
    49    47    45   ar
    50    57    59   ar
    51    57    55   ar
    52    90    89    1
    53    48    46   ar
    54    75    73   ar
    55    59    58   ar
    56    45    44   ar
    57    55    54   ar
    58    73    72    1
    59    15    14    2
    60    89    87   ar
    61    89    88   ar
    62     2     3    1
    63     2     1    1
    64    87    85   ar
    65    88    86   ar
    66     3    12   am
    67     3     4    2
    68    14    13    1
    69    46    44   ar
    70    44    43    1
    71    58    56   ar
    72    12    13    1
    73    54    56   ar
    74    54    53    1
    75    72    69    1
    76    85    84   ar
    77    69    68    1
    78    69    70    1
    79    13    16    1
    80    53    50    1
    81    31    30    2
    82    86    84   ar
    83    16    17    1
    84    50    49    1
    85    50    51    1
    86    84    83    1
    87    43    40    1
    88    71    70    2
    89    79    80    1
    90    80    83    1
    91    80    81    1
    92    26    24    1
    93    40    39    1
    94    40    41    1
    95    51    52    2
    96    30    39   am
    97    30    29    1
    98    27    25    1
    99    32    33    1
   100    32    29    1
   101    34    35    1
   102    34    33    1
   103    82    81    2
   104    66    65    1
   105    17    18    1
   106    17    19    1
   107    60    61    1
   108    35    36    2
   109    61    64    1
   110    61    62    1
   111    29    28    1
   112    41    42    2
   113    25    24    1
   114    24    21    1
   115    23    22    2
   116    63    62    2
   117    64    65    1
   118    65    67    1
   119    21    22    1
   120    21    20    1
   121    36    38    1
   122    36    37    1
