@<TRIPOS>MOLECULE
tmp/5yb5A00.pdb
 150 146 0 0 0
SMALL
GASTEIGER

@<TRIPOS>ATOM
      1  N         16.0180  -11.9240   -7.9030 N.3    33  PHE33      -0.1241
      2  CA        17.2150  -11.1500   -7.9910 C.3    33  PHE33       0.1605
      3  C         18.4610  -12.0250   -8.0050 C.2    33  PHE33       0.2264
      4  O         18.5740  -12.9050   -7.2070 O.2    33  PHE33      -0.2867
      5  CB        17.2670  -10.1960   -6.7960 C.3    33  PHE33       0.0534
      6  CG        18.5400   -9.4210   -6.7000 C.ar   33  PHE33      -0.0203
      7  CD1       19.6150   -9.9170   -6.0260 C.ar   33  PHE33      -0.0042
      8  CD2       18.6800   -8.2300   -7.3310 C.ar   33  PHE33      -0.0042
      9  CE1       20.8010   -9.2330   -5.9490 C.ar   33  PHE33      -0.0003
     10  CE2       19.8750   -7.5350   -7.2700 C.ar   33  PHE33      -0.0003
     11  CZ        20.9380   -8.0450   -6.5830 C.ar   33  PHE33      -0.0000
     12  N         12.3730  -16.3140   -5.1310 N.3   101  ASP101     -0.1225
     13  CA        13.1500  -15.2000   -4.5810 C.3   101  ASP101      0.1805
     14  C         12.2970  -13.9220   -4.4590 C.2   101  ASP101      0.2597
     15  O         11.1860  -13.9760   -3.9420 O.2   101  ASP101     -0.2718
     16  CB        14.3990  -14.9900   -5.4380 C.3   101  ASP101      0.1424
     17  CG        15.4020  -14.1030   -4.7860 C.2   101  ASP101      0.3668
     18  OD1       16.0580  -14.5710   -3.8420 O.co2 101  ASP101     -0.2456
     19  OD2       15.5330  -12.9430   -5.2190 O.co2 101  ASP101     -0.2456
     20  N         12.7830  -12.7710   -4.9240 N.am  102  TRP102     -0.1976
     21  CA        11.9510  -11.5570   -4.8540 C.3   102  TRP102      0.1640
     22  C         10.6190  -11.7310   -5.5810 C.2   102  TRP102      0.2290
     23  O          9.5930  -11.1720   -5.1710 O.2   102  TRP102     -0.2864
     24  CB        12.6960  -10.3440   -5.4270 C.3   102  TRP102      0.0576
     25  CG        13.1430   -9.4180   -4.3500 C.ar  102  TRP102      0.0006
     26  CD1       14.4210   -9.2050   -3.9260 C.ar  102  TRP102      0.0946
     27  CD2       12.3000   -8.5930   -3.5290 C.ar  102  TRP102      0.0152
     28  NE1       14.4280   -8.3060   -2.8960 N.ar  102  TRP102     -0.2442
     29  CE2       13.1440   -7.9120   -2.6310 C.ar  102  TRP102      0.0810
     30  CE3       10.9240   -8.3790   -3.4620 C.ar  102  TRP102      0.0012
     31  CZ2       12.6430   -7.0120   -1.6690 C.ar  102  TRP102      0.0191
     32  CZ3       10.4230   -7.4840   -2.5020 C.ar  102  TRP102      0.0001
     33  CH2       11.2850   -6.8160   -1.6230 C.ar  102  TRP102      0.0015
     34  N          8.3110  -13.1110   -3.0260 N.3   105  ILE105     -0.1245
     35  CA         7.8120  -12.1230   -2.0810 C.3   105  ILE105      0.1561
     36  C          6.6450  -11.3700   -2.7200 C.2   105  ILE105      0.2260
     37  O          5.6040  -11.1470   -2.0990 O.2   105  ILE105     -0.2867
     38  CB         8.9190  -11.1220   -1.6950 C.3   105  ILE105      0.0252
     39  CG1       10.0070  -11.8180   -0.8630 C.3   105  ILE105      0.0019
     40  CG2        8.3150   -9.9750   -0.8970 C.3   105  ILE105      0.0019
     41  CD1       11.3090  -11.0300   -0.7640 C.3   105  ILE105      0.0001
     42  N         11.7460  -18.4550   -1.1620 N.3   126  VAL126     -0.1245
     43  CA        11.3290  -17.5360   -0.1270 C.3   126  VAL126      0.1561
     44  C          9.9400  -17.7590    0.3380 C.2   126  VAL126      0.2260
     45  O          9.0390  -17.6020   -0.3960 O.2   126  VAL126     -0.2867
     46  CB        11.4730  -16.0650   -0.5760 C.3   126  VAL126      0.0252
     47  CG1       11.1740  -15.1370    0.5480 C.3   126  VAL126      0.0019
     48  CG2       12.8490  -15.7770   -1.0760 C.3   126  VAL126      0.0019
     49  N         23.9460   -8.7870    3.4190 N.3   150  TYR150     -0.1227
     50  CA        23.8120   -8.2410    2.0680 C.3   150  TYR150      0.1736
     51  C         22.6340   -7.2970    1.9310 C.2   150  TYR150      0.2595
     52  O         22.7440   -6.2700    1.2580 O.2   150  TYR150     -0.2718
     53  CB        23.7650   -9.3390    0.9810 C.3   150  TYR150      0.0548
     54  CG        22.4950  -10.1490    0.9060 C.ar  150  TYR150     -0.0200
     55  CD1       22.1390  -11.0170    1.9320 C.ar  150  TYR150     -0.0009
     56  CD2       21.6640  -10.0710   -0.2070 C.ar  150  TYR150     -0.0009
     57  CE1       21.0070  -11.7600    1.8610 C.ar  150  TYR150      0.0417
     58  CE2       20.5190  -10.8210   -0.2860 C.ar  150  TYR150      0.0417
     59  CZ        20.2040  -11.6710    0.7460 C.ar  150  TYR150      0.1957
     60  OH        19.0640  -12.4200    0.6900 O.3   150  TYR150     -0.2866
     61  N         21.5380   -7.6210    2.5690 N.am  151  ILE151     -0.1980
     62  CA        20.3330   -6.8140    2.4690 C.3   151  ILE151      0.1595
     63  C         20.5680   -5.4220    3.0320 C.2   151  ILE151      0.2287
     64  O         20.0130   -4.4830    2.5620 O.2   151  ILE151     -0.2864
     65  CB        19.0960   -7.4990    3.0480 C.3   151  ILE151      0.0276
     66  CG1       18.6890   -8.6670    2.1740 C.3   151  ILE151      0.0022
     67  CG2       17.9470   -6.5430    3.0720 C.3   151  ILE151      0.0022
     68  CD1       17.5030   -9.4200    2.6580 C.3   151  ILE151      0.0001
     69  N         27.2360  -14.6200   -7.7640 N.3   176  ILE176     -0.1245
     70  CA        25.9520  -14.9180   -7.1290 C.3   176  ILE176      0.1561
     71  C         25.3450  -16.2390   -7.5860 C.2   176  ILE176      0.2260
     72  O         25.0150  -17.0820   -6.7600 O.2   176  ILE176     -0.2867
     73  CB        24.9350  -13.7830   -7.3700 C.3   176  ILE176      0.0252
     74  CG1       25.3610  -12.5430   -6.5780 C.3   176  ILE176      0.0019
     75  CG2       23.5250  -14.1950   -6.9560 C.3   176  ILE176      0.0019
     76  CD1       24.7890  -11.2220   -7.1140 C.3   176  ILE176      0.0001
     77  N         26.9320  -19.5390   -6.2460 N.3   179  THR179     -0.1218
     78  CA        27.1160  -19.7650   -4.8220 C.3   179  THR179      0.1862
     79  C         26.4190  -21.0400   -4.2850 C.2   179  THR179      0.2287
     80  O         25.2790  -21.3480   -4.6440 O.2   179  THR179     -0.2866
     81  CB        26.7450  -18.5460   -3.9800 C.3   179  THR179      0.1770
     82  OG1       27.2820  -18.7230   -2.6720 O.3   179  THR179     -0.2211
     83  CG2       25.2310  -18.3930   -3.8810 C.3   179  THR179      0.0375
     84  N         28.9670  -12.8540   -2.3190 N.3   196  PHE196     -0.1241
     85  CA        28.1780  -14.0150   -1.8850 C.3   196  PHE196      0.1605
     86  C         28.9210  -15.3590   -1.9230 C.2   196  PHE196      0.2264
     87  O         28.4120  -16.3680   -1.4210 O.2   196  PHE196     -0.2867
     88  CB        26.9670  -14.1950   -2.7980 C.3   196  PHE196      0.0534
     89  CG        25.9290  -13.1330   -2.6690 C.ar  196  PHE196     -0.0203
     90  CD1       26.0380  -11.9510   -3.3760 C.ar  196  PHE196     -0.0042
     91  CD2       24.8080  -13.3360   -1.8770 C.ar  196  PHE196     -0.0042
     92  CE1       25.0500  -10.9880   -3.2800 C.ar  196  PHE196     -0.0003
     93  CE2       23.8280  -12.3650   -1.7740 C.ar  196  PHE196     -0.0003
     94  CZ        23.9480  -11.1980   -2.4810 C.ar  196  PHE196     -0.0000
     95  N         14.7810   -4.1540   -2.5190 N.3   232  TYR232     -0.1241
     96  CA        15.2110   -4.3410   -1.1360 C.3   232  TYR232      0.1605
     97  C         15.0770   -3.0450   -0.3580 C.2   232  TYR232      0.2264
     98  O         14.8150   -3.0560    0.8360 O.2   232  TYR232     -0.2867
     99  CB        16.6750   -4.7600   -1.0880 C.3   232  TYR232      0.0534
    100  CG        16.9970   -6.1220   -1.6850 C.ar  232  TYR232     -0.0201
    101  CD1       16.9800   -7.2630   -0.8970 C.ar  232  TYR232     -0.0009
    102  CD2       17.3480   -6.2510   -3.0260 C.ar  232  TYR232     -0.0009
    103  CE1       17.2960   -8.4950   -1.4210 C.ar  232  TYR232      0.0417
    104  CE2       17.6720   -7.4670   -3.5590 C.ar  232  TYR232      0.0417
    105  CZ        17.6450   -8.5900   -2.7540 C.ar  232  TYR232      0.1957
    106  OH        17.9710   -9.8140   -3.2870 O.3   232  TYR232     -0.2866
    107  N         11.7580   -2.6600    1.5320 N.3   235  MET235     -0.1245
    108  CA        11.2910   -3.6920    2.4760 C.3   235  MET235      0.1570
    109  C         10.6990   -3.1330    3.7620 C.2   235  MET235      0.2261
    110  O          9.6700   -3.5970    4.2180 O.2   235  MET235     -0.2867
    111  CB        12.3950   -4.7180    2.7990 C.3   235  MET235      0.0387
    112  CG        12.6150   -5.7350    1.6740 C.3   235  MET235      0.0595
    113  SD        14.1720   -6.6360    1.9060 S.3   235  MET235     -0.1393
    114  CE        13.5070   -8.2600    2.2770 C.3   235  MET235      0.0692
    115  N         20.8600  -19.9450    0.6940 N.3   263  ASN263     -0.1225
    116  CA        21.1990  -19.0700    1.7860 C.3   263  ASN263      0.1785
    117  C         19.9550  -18.6680    2.5450 C.2   263  ASN263      0.2597
    118  O         20.0050  -18.4000    3.6750 O.2   263  ASN263     -0.2718
    119  CB        21.8970  -17.8200    1.3230 C.3   263  ASN263      0.1169
    120  CG        20.9620  -16.8720    0.6810 C.2   263  ASN263      0.2627
    121  OD1       20.1780  -16.1930    1.3240 O.2   263  ASN263     -0.2716
    122  ND2       21.0550  -16.8000   -0.5750 N.am  263  ASN263     -0.0877
    123  N         18.8340  -18.6340    1.8810 N.am  264  VAL264     -0.1980
    124  CA        17.6070  -18.2440    2.5450 C.3   264  VAL264      0.1595
    125  C         17.1790  -19.3080    3.5440 C.2   264  VAL264      0.2287
    126  O         16.8880  -19.0080    4.7070 O.2   264  VAL264     -0.2864
    127  CB        16.4520  -17.9830    1.5430 C.3   264  VAL264      0.0276
    128  CG1       15.1930  -17.6760    2.2980 C.3   264  VAL264      0.0022
    129  CG2       16.8050  -16.8350    0.5980 C.3   264  VAL264      0.0022
    130  N         20.4270  -22.1560   -4.0750 N.3   297  HIS297     -0.1226
    131  CA        19.3760  -21.1840   -4.2400 C.3   297  HIS297      0.1752
    132  C         18.6130  -21.1930   -5.5600 C.2   297  HIS297      0.2596
    133  O         17.4410  -21.0410   -5.5430 O.2   297  HIS297     -0.2718
    134  CB        19.9260  -19.7770   -3.9910 C.3   297  HIS297      0.0759
    135  CG        18.9040  -18.6920   -4.0860 C.ar  297  HIS297      0.0818
    136  ND1       18.1270  -18.3070   -3.0310 N.ar  297  HIS297     -0.2268
    137  CD2       18.5510  -17.9050   -5.1170 C.ar  297  HIS297      0.1154
    138  CE1       17.3440  -17.3250   -3.4060 C.ar  297  HIS297      0.1986
    139  NE2       17.5740  -17.0700   -4.6730 N.ar  297  HIS297     -0.2212
    140  N         19.2850  -21.3560   -6.6720 N.am  298  PHE298     -0.1976
    141  CA        18.6350  -21.2790   -7.9440 C.3   298  PHE298      0.1639
    142  C         18.0660  -22.5930   -8.3820 C.2   298  PHE298      0.2290
    143  O         18.3540  -23.0420   -9.4210 O.2   298  PHE298     -0.2864
    144  CB        19.5900  -20.6890   -8.9540 C.3   298  PHE298      0.0560
    145  CG        20.1300  -19.3710   -8.5440 C.ar  298  PHE298     -0.0200
    146  CD1       21.2200  -19.2950   -7.7530 C.ar  298  PHE298     -0.0042
    147  CD2       19.5030  -18.2240   -8.8980 C.ar  298  PHE298     -0.0042
    148  CE1       21.7120  -18.0940   -7.3410 C.ar  298  PHE298     -0.0003
    149  CE2       19.9770  -17.0140   -8.4880 C.ar  298  PHE298     -0.0003
    150  CZ        21.0790  -16.9480   -7.7060 C.ar  298  PHE298     -0.0000
@<TRIPOS>BOND
     1   143   142    2
     2   144   145    1
     3   144   141    1
     4   147   145   ar
     5   147   149   ar
     6   145   146   ar
     7   149   150   ar
     8   142   141    1
     9     3     2    1
    10     3     4    2
    11     2     1    1
    12     2     5    1
    13   141   140    1
    14    69    70    1
    15   146   148   ar
    16   150   148   ar
    17    71    70    1
    18    71    72    2
    19    73    70    1
    20    73    75    1
    21    73    74    1
    22     8    10   ar
    23     8     6   ar
    24    10    11   ar
    25    76    74    1
    26     5     6    1
    27     6     7   ar
    28   140   132   am
    29    11     9   ar
    30    77    78    1
    31     7     9   ar
    32    22    23    2
    33    22    21    1
    34   132   133    2
    35   132   131    1
    36    16    17    1
    37    16    13    1
    38    24    21    1
    39    24    25    1
    40    19    17   ar
    41    12    13    1
    42   137   139   ar
    43   137   135   ar
    44    20    21    1
    45    20    14   am
    46    78    79    1
    47    78    81    1
    48    17    18   ar
    49   139   138   ar
    50    80    79    2
    51    13    14    1
    52    14    15    2
    53    25    26   ar
    54    25    27   ar
    55   131   130    1
    56   131   134    1
    57   135   134    1
    58   135   136   ar
    59    81    83    1
    60    81    82    1
    61    26    28   ar
    62   104   102   ar
    63   104   105   ar
    64    27    30   ar
    65    27    29   ar
    66    30    32   ar
    67   138   136   ar
    68    90    92   ar
    69    90    89   ar
    70   106   105    1
    71    92    94   ar
    72    34    35    1
    73   102   100   ar
    74    28    29   ar
    75    88    89    1
    76    88    85    1
    77   105   103   ar
    78    36    37    2
    79    36    35    1
    80    89    91   ar
    81    29    31   ar
    82    95    96    1
    83    32    33   ar
    84    94    93   ar
    85    84    85    1
    86    35    38    1
    87    86    85    1
    88    86    87    2
    89    91    93   ar
    90    38    40    1
    91    38    39    1
    92   100    99    1
    93   100   101   ar
    94    31    33   ar
    95   103   101   ar
    96    42    43    1
    97    96    99    1
    98    96    97    1
    99    48    46    1
   100    39    41    1
   101    46    43    1
   102    46    47    1
   103   122   120   am
   104    45    44    2
   105    97    98    2
   106    58    56   ar
   107    58    59   ar
   108    56    54   ar
   109    43    44    1
   110   129   127    1
   111   120   119    1
   112   120   121    2
   113    60    59    1
   114   115   116    1
   115    59    57   ar
   116    54    53    1
   117    54    55   ar
   118    53    50    1
   119    52    51    2
   120   119   116    1
   121   107   108    1
   122   127   128    1
   123   127   124    1
   124   112   113    1
   125   112   111    1
   126   116   117    1
   127    57    55   ar
   128   123   117   am
   129   123   124    1
   130   113   114    1
   131    51    50    1
   132    51    61   am
   133    50    49    1
   134    66    68    1
   135    66    65    1
   136    62    61    1
   137    62    63    1
   138    62    65    1
   139   108   111    1
   140   108   109    1
   141   117   118    2
   142   124   125    1
   143    64    63    2
   144    65    67    1
   145   125   126    2
   146   109   110    2
