@<TRIPOS>MOLECULE
tmp/5yb6B02.pdb
 146 144 0 0 0
SMALL
GASTEIGER

@<TRIPOS>ATOM
      1  N         22.1370   12.6680    0.7950 N.3    97  MET97      -0.1230
      2  CA        22.6040   11.5930   -0.1010 C.3    97  MET97       0.1702
      3  C         22.7720   11.9450   -1.6090 C.2    97  MET97       0.2592
      4  O         23.4980   11.2770   -2.2910 O.2    97  MET97      -0.2718
      5  CB        21.7060   10.3540    0.0640 C.3    97  MET97       0.0401
      6  CG        20.3030   10.4490   -0.5330 C.3    97  MET97       0.0596
      7  SD        19.5640    8.7760   -0.3520 S.3    97  MET97      -0.1393
      8  CE        17.8170    9.1970   -0.4420 C.3    97  MET97       0.0692
      9  N         22.0720   12.9480   -2.1200 N.am   98  ARG98      -0.1980
     10  CA        22.0340   13.2160   -3.5370 C.3    98  ARG98       0.1597
     11  C         22.1950   14.7030   -3.7360 C.2    98  ARG98       0.2287
     12  O         21.3050   15.4960   -3.4400 O.2    98  ARG98      -0.2864
     13  CB        20.7550   12.6800   -4.2180 C.3    98  ARG98       0.0334
     14  CG        19.4010   13.0010   -3.5500 C.3    98  ARG98       0.0492
     15  CD        18.2750   12.3160   -4.2480 C.3    98  ARG98       0.2205
     16  NE        17.0290   12.6720   -3.6120 N.pl3  98  ARG98      -0.0865
     17  CZ        15.8340   12.1710   -3.9100 C.cat  98  ARG98       0.5346
     18  NH1       15.6790   11.2590   -4.8620 N.pl3  98  ARG98       0.1354
     19  NH2       14.7710   12.5730   -3.2330 N.pl3  98  ARG98       0.1354
     20  N         12.3700   13.1060   -8.3950 N.3   228  THR228     -0.1218
     21  CA        13.0310   12.7590   -7.1130 C.3   228  THR228      0.1862
     22  C         12.0500   12.2600   -6.0470 C.2   228  THR228      0.2287
     23  O         12.2440   12.4370   -4.8140 O.2   228  THR228     -0.2866
     24  CB        13.8520   13.9480   -6.5540 C.3   228  THR228      0.1770
     25  OG1       12.9940   15.1040   -6.3730 O.3   228  THR228     -0.2211
     26  CG2       15.0860   14.2680   -7.4890 C.3   228  THR228      0.0375
     27  N          6.4230   14.4060   -3.7740 N.3   231  TRP231     -0.1241
     28  CA         6.5720   15.4740   -2.7780 C.3   231  TRP231      0.1605
     29  C          5.2670   15.8900   -2.1410 C.2   231  TRP231      0.2264
     30  O          5.1580   17.0390   -1.7050 O.2   231  TRP231     -0.2867
     31  CB         7.2170   16.6920   -3.3960 C.3   231  TRP231      0.0550
     32  CG         8.7050   16.5440   -3.6750 C.ar  231  TRP231      0.0003
     33  CD1        9.3510   15.5040   -4.3110 C.ar  231  TRP231      0.0946
     34  CD2        9.7010   17.5140   -3.3930 C.ar  231  TRP231      0.0152
     35  NE1       10.7040   15.7650   -4.4230 N.ar  231  TRP231     -0.2442
     36  CE2       10.9510   16.9900   -3.8440 C.ar  231  TRP231      0.0810
     37  CE3        9.6750   18.7980   -2.7980 C.ar  231  TRP231      0.0012
     38  CZ2       12.1470   17.7010   -3.7010 C.ar  231  TRP231      0.0191
     39  CZ3       10.9100   19.4990   -2.6640 C.ar  231  TRP231      0.0001
     40  CH2       12.0890   18.9530   -3.1010 C.ar  231  TRP231      0.0015
     41  N          5.4370   17.9110    1.0130 N.3   234  ASP234     -0.1239
     42  CA         5.6950   19.3630    0.8770 C.3   234  ASP234      0.1674
     43  C          4.5770   20.1840    0.2680 C.2   234  ASP234      0.2266
     44  O          4.7020   21.4100    0.1550 O.2   234  ASP234     -0.2867
     45  CB         6.9200   19.5940    0.0080 C.3   234  ASP234      0.1410
     46  CG         8.2370   19.0950    0.6920 C.2   234  ASP234      0.3668
     47  OD1        8.2780   17.9370    1.2220 O.co2 234  ASP234     -0.2456
     48  OD2        9.2060   19.8710    0.6980 O.co2 234  ASP234     -0.2456
     49  N          9.5860   28.1740   -1.4220 N.3   241  GLU241     -0.1245
     50  CA        10.5950   27.1520   -1.1440 C.3   241  GLU241      0.1567
     51  C         10.7350   26.1990   -2.3410 C.2   241  GLU241      0.2260
     52  O         11.8220   25.8130   -2.7710 O.2   241  GLU241     -0.2867
     53  CB        10.1970   26.3630    0.1280 C.3   241  GLU241      0.0388
     54  CG        11.2660   25.3780    0.5840 C.3   241  GLU241      0.1160
     55  CD        10.9930   24.8360    1.9900 C.2   241  GLU241      0.3649
     56  OE1       11.2490   25.5590    2.9600 O.co2 241  GLU241     -0.2457
     57  OE2       10.5620   23.6800    2.1480 O.co2 241  GLU241     -0.2457
     58  N         21.9130   15.1740   -9.8870 N.3   254  GLN254     -0.1245
     59  CA        22.4080   14.9610   -8.5100 C.3   254  GLN254      0.1566
     60  C         23.4660   13.8650   -8.5150 C.2   254  GLN254      0.2260
     61  O         23.3610   12.8770   -9.2230 O.2   254  GLN254     -0.2867
     62  CB        21.2450   14.5990   -7.5860 C.3   254  GLN254      0.0367
     63  CG        20.2460   15.7250   -7.3160 C.3   254  GLN254      0.0905
     64  CD        18.9610   15.2160   -6.6220 C.2   254  GLN254      0.2608
     65  OE1       18.6800   13.9980   -6.6040 O.2   254  GLN254     -0.2717
     66  NE2       18.1420   16.1340   -6.1570 N.am  254  GLN254     -0.0878
     67  N         10.6750   19.4380    9.4600 N.3   357  MET357     -0.1245
     68  CA         9.9930   18.3130    8.8260 C.3   357  MET357      0.1570
     69  C         10.5960   17.0240    9.3320 C.2   357  MET357      0.2261
     70  O         11.7090   17.0000    9.8700 O.2   357  MET357     -0.2867
     71  CB        10.1970   18.4010    7.3120 C.3   357  MET357      0.0387
     72  CG         9.6920   19.7210    6.7440 C.3   357  MET357      0.0595
     73  SD         9.7220   19.7870    4.9460 S.3   357  MET357     -0.1393
     74  CE         8.3160   18.7590    4.5680 C.3   357  MET357      0.0692
     75  N         12.4440    5.6200    1.8390 N.3   412  TYR412     -0.1241
     76  CA        12.8560    7.0060    2.1660 C.3   412  TYR412      0.1605
     77  C         11.5390    7.7290    2.2160 C.2   412  TYR412      0.2264
     78  O         10.8340    7.8170    1.2120 O.2   412  TYR412     -0.2867
     79  CB        13.8270    7.5870    1.1050 C.3   412  TYR412      0.0534
     80  CG        14.2500    9.0670    1.2400 C.ar  412  TYR412     -0.0201
     81  CD1       14.2480    9.7250    2.4530 C.ar  412  TYR412     -0.0009
     82  CD2       14.6720    9.7830    0.1170 C.ar  412  TYR412     -0.0009
     83  CE1       14.6180   11.0690    2.5550 C.ar  412  TYR412      0.0417
     84  CE2       15.0680   11.1100    0.1950 C.ar  412  TYR412      0.0417
     85  CZ        15.0470   11.7470    1.4100 C.ar  412  TYR412      0.1957
     86  OH        15.4220   13.0650    1.4540 O.3   412  TYR412     -0.2866
     87  N          9.0170   10.9370    3.8990 N.3   414  TRP414     -0.1241
     88  CA         8.8480   12.2880    4.5080 C.3   414  TRP414      0.1605
     89  C          7.5480   12.4850    5.3000 C.2   414  TRP414      0.2264
     90  O          6.5140   11.9770    4.9800 O.2   414  TRP414     -0.2867
     91  CB         8.8370   13.2970    3.3640 C.3   414  TRP414      0.0550
     92  CG        10.2260   13.3740    2.6970 C.ar  414  TRP414      0.0003
     93  CD1       11.4230   13.3980    3.3270 C.ar  414  TRP414      0.0946
     94  CD2       10.4970   13.4280    1.3100 C.ar  414  TRP414      0.0152
     95  NE1       12.4430   13.4450    2.4180 N.ar  414  TRP414     -0.2442
     96  CE2       11.8980   13.4840    1.1590 C.ar  414  TRP414      0.0810
     97  CE3        9.6930   13.4150    0.1620 C.ar  414  TRP414      0.0012
     98  CZ2       12.5240   13.5210   -0.1060 C.ar  414  TRP414      0.0191
     99  CZ3       10.3130   13.4980   -1.0950 C.ar  414  TRP414      0.0001
    100  CH2       11.7250   13.5460   -1.2100 C.ar  414  TRP414      0.0015
    101  N         15.0870   18.6170    8.5510 N.3   469  PHE469     -0.1227
    102  CA        15.3640   19.9000    7.9490 C.3   469  PHE469      0.1736
    103  C         14.1500   20.7820    8.0820 C.2   469  PHE469      0.2595
    104  O         13.0240   20.2840    8.2460 O.2   469  PHE469     -0.2718
    105  CB        15.7690   19.7800    6.4950 C.3   469  PHE469      0.0547
    106  CG        15.0460   18.7150    5.7460 C.ar  469  PHE469     -0.0202
    107  CD1       13.6540   18.8230    5.5080 C.ar  469  PHE469     -0.0042
    108  CD2       15.7380   17.6440    5.2330 C.ar  469  PHE469     -0.0042
    109  CE1       12.9860   17.8030    4.8430 C.ar  469  PHE469     -0.0003
    110  CE2       15.0720   16.6260    4.5510 C.ar  469  PHE469     -0.0003
    111  CZ        13.6950   16.7060    4.3570 C.ar  469  PHE469     -0.0000
    112  N         14.3960   22.0980    8.0820 N.am  470  LYS470     -0.1980
    113  CA        13.3490   23.0640    8.0920 C.3   470  LYS470      0.1596
    114  C         12.4320   22.8480    6.8790 C.2   470  LYS470      0.2287
    115  O         12.8930   22.3970    5.7860 O.2   470  LYS470     -0.2864
    116  CB        13.9450   24.4880    8.0900 C.3   470  LYS470      0.0298
    117  CG        12.8860   25.5520    7.8320 C.3   470  LYS470      0.0038
    118  CD        13.4390   26.9650    7.8690 C.3   470  LYS470      0.0206
    119  CE        14.3690   27.2380    6.6760 C.3   470  LYS470      0.1093
    120  NZ        14.7200   28.6900    6.7100 N.3   470  LYS470     -0.1314
    121  N         16.2360   25.0250    2.8660 N.3   510  PRO510     -0.2102
    122  CA        16.4820   23.9490    3.7940 C.3   510  PRO510      0.1504
    123  C         16.3540   22.6090    3.0750 C.2   510  PRO510      0.2576
    124  O         15.7290   22.5510    2.0120 O.2   510  PRO510     -0.2718
    125  CB        15.3650   24.1070    4.8300 C.3   510  PRO510      0.0282
    126  CG        14.2550   24.7930    4.0970 C.3   510  PRO510      0.0208
    127  CD        14.9360   25.6890    3.1160 C.3   510  PRO510      0.0893
    128  N         16.9520   21.5840    3.6660 N.am  511  ALA511     -0.1966
    129  CA        17.0090   20.2810    3.0950 C.3   511  ALA511      0.1728
    130  C         17.9860   20.2280    1.9110 C.2   511  ALA511      0.2616
    131  O         17.9410   19.2660    1.1870 O.2   511  ALA511     -0.2715
    132  CB        15.6220   19.7620    2.6710 C.3   511  ALA511      0.0334
    133  N         18.8780   21.2150    1.7640 N.am  512  TRP512     -0.1974
    134  CA        19.9010   21.2050    0.7180 C.3   512  TRP512      0.1640
    135  C         21.2070   21.6910    1.2820 C.2   512  TRP512      0.2290
    136  O         21.2800   22.7590    1.8260 O.2   512  TRP512     -0.2864
    137  CB        19.4860   22.1230   -0.4530 C.3   512  TRP512      0.0576
    138  CG        18.1700   21.7060   -1.0450 C.ar  512  TRP512      0.0006
    139  CD1       16.9390   22.2390   -0.7670 C.ar  512  TRP512      0.0946
    140  CD2       17.9530   20.6400   -1.9430 C.ar  512  TRP512      0.0152
    141  NE1       15.9780   21.6030   -1.5030 N.ar  512  TRP512     -0.2442
    142  CE2       16.5710   20.6240   -2.2470 C.ar  512  TRP512      0.0810
    143  CE3       18.8050   19.7360   -2.6040 C.ar  512  TRP512      0.0012
    144  CZ2       16.0120   19.6760   -3.1220 C.ar  512  TRP512      0.0191
    145  CZ3       18.2640   18.8020   -3.4600 C.ar  512  TRP512      0.0001
    146  CH2       16.8780   18.7740   -3.7340 C.ar  512  TRP512      0.0015
@<TRIPOS>BOND
     1    58    59    1
     2    61    60    2
     3    60    59    1
     4    59    62    1
     5    20    21    1
     6    62    63    1
     7    26    24    1
     8    63    64    1
     9    21    24    1
    10    21    22    1
    11    64    65    2
    12    64    66   am
    13    24    25    1
    14    22    23    2
    15    18    17    1
    16    35    33   ar
    17    35    36   ar
    18    33    32   ar
    19    15    16    1
    20    15    14    1
    21    13    14    1
    22    13    10    1
    23    17    16    2
    24    17    19    1
    25    36    38   ar
    26    36    34   ar
    27    27    28    1
    28    11    10    1
    29    11    12    2
    30   146   145   ar
    31   146   144   ar
    32    38    40   ar
    33    32    31    1
    34    32    34   ar
    35    10     9    1
    36   145   143   ar
    37    31    28    1
    38    34    37   ar
    39   144   142   ar
    40    40    39   ar
    41    37    39   ar
    42    28    29    1
    43    52    51    2
    44   143   140   ar
    45    51    50    1
    46     4     3    2
    47   142   140   ar
    48   142   141   ar
    49    29    30    2
    50     9     3   am
    51   140   138   ar
    52     3     2    1
    53   141   139   ar
    54    49    50    1
    55   100    99   ar
    56   100    98   ar
    57    50    53    1
    58    99    97   ar
    59   138   139   ar
    60   138   137    1
    61     6     7    1
    62     6     5    1
    63   137   134    1
    64     8     7    1
    65    98    96   ar
    66     2     5    1
    67     2     1    1
    68    45    46    1
    69    45    42    1
    70    82    84   ar
    71    82    80   ar
    72    53    54    1
    73    44    43    2
    74    97    94   ar
    75    84    85   ar
    76    43    42    1
    77    54    55    1
    78    46    48   ar
    79    46    47   ar
    80   134   135    1
    81   134   133    1
    82    42    41    1
    83    79    80    1
    84    79    76    1
    85    96    94   ar
    86    96    95   ar
    87   131   130    2
    88    78    77    2
    89    80    81   ar
    90   135   136    2
    91    94    92   ar
    92    85    86    1
    93    85    83   ar
    94   133   130   am
    95    75    76    1
    96   130   129    1
    97    55    57   ar
    98    55    56   ar
    99   124   123    2
   100    76    77    1
   101    95    93   ar
   102    81    83   ar
   103   132   129    1
   104    92    93   ar
   105    92    91    1
   106   121   127    1
   107   121   122    1
   108   123   128   am
   109   123   122    1
   110   129   128    1
   111   127   126    1
   112    91    88    1
   113   122   125    1
   114    87    88    1
   115   126   125    1
   116   111   110   ar
   117   111   109   ar
   118    88    89    1
   119   110   108   ar
   120    74    73    1
   121   109   107   ar
   122    73    72    1
   123    90    89    2
   124   108   106   ar
   125   107   106   ar
   126   106   105    1
   127   115   114    2
   128   105   102    1
   129   119   120    1
   130   119   118    1
   131    72    71    1
   132   114   113    1
   133    71    68    1
   134   117   118    1
   135   117   116    1
   136   102   103    1
   137   102   101    1
   138   112   103   am
   139   112   113    1
   140   103   104    2
   141   116   113    1
   142    68    69    1
   143    68    67    1
   144    69    70    2
