@<TRIPOS>MOLECULE
tmp/5yb7C02.pdb
 97 96 0 0 0
SMALL
GASTEIGER

@<TRIPOS>ATOM
      1  N         39.7940    9.4810   22.8470 N.3    90  MET90      -0.1230
      2  CA        40.1590   10.1190   21.5770 C.3    90  MET90       0.1702
      3  C         41.2990   11.1560   21.5750 C.2    90  MET90       0.2592
      4  O         41.8370   11.4440   20.5190 O.2    90  MET90      -0.2718
      5  CB        38.9140   10.7240   20.9070 C.3    90  MET90       0.0401
      6  CG        38.2680   11.9090   21.5950 C.3    90  MET90       0.0596
      7  SD        36.7980   12.4480   20.6700 S.3    90  MET90      -0.1393
      8  CE        36.1360   13.4920   21.9460 C.3    90  MET90       0.0692
      9  N         41.5650   11.7870   22.7120 N.am   91  ARG91      -0.1980
     10  CA        42.5260   12.9090   22.7860 C.3    91  ARG91       0.1597
     11  C         43.5150   12.6400   23.9060 C.2    91  ARG91       0.2287
     12  O         43.2030   12.6980   25.1290 O.2    91  ARG91      -0.2864
     13  CB        41.8100   14.2880   22.9430 C.3    91  ARG91       0.0334
     14  CG        40.6820   14.3440   23.9450 C.3    91  ARG91       0.0492
     15  CD        39.8620   15.6210   23.8030 C.3    91  ARG91       0.2205
     16  NE        38.8730   15.7430   24.8680 N.pl3  91  ARG91      -0.0865
     17  CZ        38.0240   16.7580   25.0040 C.cat  91  ARG91       0.5346
     18  NH1       38.0520   17.7970   24.1630 N.pl3  91  ARG91       0.1354
     19  NH2       37.1310   16.7240   25.9960 N.pl3  91  ARG91       0.1354
     20  N         29.9600   18.5610   34.2530 N.3   226  SER226     -0.1202
     21  CA        29.8150   17.1530   34.5720 C.3   226  SER226      0.2020
     22  C         30.7480   16.6520   35.6780 C.2   226  SER226      0.2618
     23  O         30.3740   15.7150   36.3810 O.2   226  SER226     -0.2717
     24  CB        29.9920   16.3030   33.3340 C.3   226  SER226      0.2103
     25  OG        31.3220   16.3100   32.9200 O.3   226  SER226     -0.2182
     26  N         31.9300   17.2780   35.8270 N.am  227  ASP227     -0.1973
     27  CA        32.8900   16.9400   36.8620 C.3   227  ASP227      0.1709
     28  C         32.7140   17.6900   38.1670 C.2   227  ASP227      0.2293
     29  O         33.4150   17.4180   39.1210 O.2   227  ASP227     -0.2864
     30  CB        34.2930   17.3030   36.3730 C.3   227  ASP227      0.1436
     31  CG        34.8280   16.3490   35.2920 C.2   227  ASP227      0.3671
     32  OD1       34.6720   15.1140   35.4000 O.co2 227  ASP227     -0.2456
     33  OD2       35.4850   16.8460   34.3580 O.co2 227  ASP227     -0.2456
     34  N         30.7620    7.3240   35.4210 N.3   350  MET350     -0.1245
     35  CA        30.1640    8.4130   34.7060 C.3   350  MET350      0.1570
     36  C         29.6370    7.9640   33.3540 C.2   350  MET350      0.2261
     37  O         30.2270    7.1460   32.6980 O.2   350  MET350     -0.2867
     38  CB        31.2010    9.5270   34.5430 C.3   350  MET350      0.0387
     39  CG        31.5850   10.0730   35.9280 C.3   350  MET350      0.0595
     40  SD        32.7630   11.4280   35.8750 S.3   350  MET350     -0.1393
     41  CE        31.6010   12.6920   35.3190 C.3   350  MET350      0.0692
     42  N         29.3070   15.2850   21.9710 N.3   405  TYR405     -0.1241
     43  CA        30.0280   14.5140   22.9620 C.3   405  TYR405      0.1605
     44  C         29.4870   15.0080   24.2830 C.2   405  TYR405      0.2264
     45  O         29.6420   16.1720   24.6020 O.2   405  TYR405     -0.2867
     46  CB        31.5290   14.7810   22.8420 C.3   405  TYR405      0.0534
     47  CG        32.3930   14.1610   23.9190 C.ar  405  TYR405     -0.0201
     48  CD1       31.9860   13.0110   24.6190 C.ar  405  TYR405     -0.0009
     49  CD2       33.6940   14.6780   24.2030 C.ar  405  TYR405     -0.0009
     50  CE1       32.7960   12.4230   25.6120 C.ar  405  TYR405      0.0417
     51  CE2       34.5090   14.1060   25.1990 C.ar  405  TYR405      0.0417
     52  CZ        34.0560   12.9560   25.9060 C.ar  405  TYR405      0.1957
     53  OH        34.8020   12.3190   26.9160 O.3   405  TYR405     -0.2866
     54  N         28.2550   14.1630   28.5880 N.3   407  TRP407     -0.1241
     55  CA        28.5430   13.4660   29.8000 C.3   407  TRP407      0.1605
     56  C         27.4220   13.6490   30.7940 C.2   407  TRP407      0.2264
     57  O         26.7290   14.6880   30.8100 O.2   407  TRP407     -0.2867
     58  CB        29.7500   14.0760   30.4990 C.3   407  TRP407      0.0550
     59  CG        31.0260   13.9920   29.7700 C.ar  407  TRP407      0.0003
     60  CD1       31.6080   12.8860   29.2910 C.ar  407  TRP407      0.0946
     61  CD2       31.9190   15.0910   29.4850 C.ar  407  TRP407      0.0152
     62  NE1       32.7850   13.2100   28.6930 N.ar  407  TRP407     -0.2442
     63  CE2       33.0090   14.5580   28.7940 C.ar  407  TRP407      0.0810
     64  CE3       31.8770   16.4870   29.7300 C.ar  407  TRP407      0.0012
     65  CZ2       34.0840   15.3570   28.3170 C.ar  407  TRP407      0.0191
     66  CZ3       32.9640   17.2960   29.2790 C.ar  407  TRP407      0.0001
     67  CH2       34.0460   16.7140   28.5760 C.ar  407  TRP407      0.0015
     68  N         33.7580    5.8200   32.4570 N.3   462  PHE462     -0.1241
     69  CA        34.8890    5.8490   33.3080 C.3   462  PHE462      0.1605
     70  C         34.4340    6.1860   34.6940 C.2   462  PHE462      0.2264
     71  O         33.3250    6.7380   34.8990 O.2   462  PHE462     -0.2867
     72  CB        35.9610    6.8530   32.8080 C.3   462  PHE462      0.0534
     73  CG        35.3840    8.1370   32.1930 C.ar  462  PHE462     -0.0203
     74  CD1       34.6990    9.0550   32.9850 C.ar  462  PHE462     -0.0042
     75  CD2       35.5400    8.4080   30.8540 C.ar  462  PHE462     -0.0042
     76  CE1       34.1960   10.2130   32.4430 C.ar  462  PHE462     -0.0003
     77  CE2       35.0190    9.5680   30.2860 C.ar  462  PHE462     -0.0003
     78  CZ        34.3380   10.4640   31.0840 C.ar  462  PHE462     -0.0000
     79  N         39.5080    9.0930   33.8300 N.3   504  ALA504     -0.1231
     80  CA        39.0730    9.1380   32.4020 C.3   504  ALA504      0.1694
     81  C         40.2600    9.3910   31.5150 C.2   504  ALA504      0.2592
     82  O         40.1460   10.0370   30.5150 O.2   504  ALA504     -0.2718
     83  CB        38.0180   10.2380   32.2160 C.3   504  ALA504      0.0304
     84  N         41.4200    8.8590   31.8780 N.am  505  TRP505     -0.1976
     85  CA        42.6490    9.1090   31.1440 C.3   505  TRP505      0.1640
     86  C         43.4310    7.7980   30.9880 C.2   505  TRP505      0.2290
     87  O         43.7500    7.1390   31.9770 O.2   505  TRP505     -0.2864
     88  CB        43.5350   10.1490   31.9000 C.3   505  TRP505      0.0576
     89  CG        42.8400   11.4210   32.0870 C.ar  505  TRP505      0.0006
     90  CD1       42.1190   11.8170   33.2300 C.ar  505  TRP505      0.0946
     91  CD2       42.6200   12.4440   31.1110 C.ar  505  TRP505      0.0152
     92  NE1       41.5240   13.0200   33.0040 N.ar  505  TRP505     -0.2442
     93  CE2       41.7730   13.4180   31.7090 C.ar  505  TRP505      0.0810
     94  CE3       43.0150   12.6230   29.7860 C.ar  505  TRP505      0.0012
     95  CZ2       41.3840   14.5940   31.0420 C.ar  505  TRP505      0.0191
     96  CZ3       42.5920   13.7510   29.1190 C.ar  505  TRP505      0.0001
     97  CH2       41.7950   14.7450   29.7550 C.ar  505  TRP505      0.0015
@<TRIPOS>BOND
     1     4     3    2
     2     7     6    1
     3     7     8    1
     4     5     2    1
     5     5     6    1
     6     3     2    1
     7     3     9   am
     8     2     1    1
     9    42    43    1
    10     9    10    1
    11    10    13    1
    12    10    11    1
    13    46    43    1
    14    46    47    1
    15    13    14    1
    16    43    44    1
    17    15    14    1
    18    15    16    1
    19    11    12    2
    20    47    49   ar
    21    47    48   ar
    22    18    17    1
    23    49    51   ar
    24    44    45    2
    25    48    50   ar
    26    16    17    2
    27    17    19    1
    28    51    52   ar
    29    50    52   ar
    30    52    53    1
    31    65    67   ar
    32    65    63   ar
    33    67    66   ar
    34    54    55    1
    35    62    63   ar
    36    62    60   ar
    37    63    61   ar
    38    96    97   ar
    39    96    94   ar
    40    66    64   ar
    41    60    59   ar
    42    61    64   ar
    43    61    59   ar
    44    97    95   ar
    45    59    58    1
    46    94    91   ar
    47    55    58    1
    48    55    56    1
    49    77    75   ar
    50    77    78   ar
    51    82    81    2
    52    56    57    2
    53    75    73   ar
    54    86    85    1
    55    86    87    2
    56    95    93   ar
    57    78    76   ar
    58    91    93   ar
    59    91    89   ar
    60    85    84    1
    61    85    88    1
    62    81    84   am
    63    81    80    1
    64    93    92   ar
    65    88    89    1
    66    89    90   ar
    67    73    72    1
    68    73    74   ar
    69    83    80    1
    70    80    79    1
    71    76    74   ar
    72    68    69    1
    73    37    36    2
    74    72    69    1
    75    25    24    1
    76    92    90   ar
    77    69    70    1
    78    24    21    1
    79    36    35    1
    80    20    21    1
    81    33    31   ar
    82    38    35    1
    83    38    39    1
    84    21    22    1
    85    70    71    2
    86    35    34    1
    87    31    32   ar
    88    31    30    1
    89    41    40    1
    90    22    26   am
    91    22    23    2
    92    26    27    1
    93    40    39    1
    94    30    27    1
    95    27    28    1
    96    28    29    2
