@<TRIPOS>MOLECULE
tmp/5yb8C01.pdb
 133 131 0 0 0
SMALL
GASTEIGER

@<TRIPOS>ATOM
      1  N         -9.7580   13.8130   24.3570 N.3    89  GLY89      -0.1210
      2  CA       -10.8290   14.8240   24.2960 C.3    89  GLY89       0.1956
      3  C        -11.1300   15.3590   25.6830 C.2    89  GLY89       0.2612
      4  O        -11.2020   14.6000   26.6400 O.2    89  GLY89      -0.2717
      5  N        -11.2730   16.6720   25.8120 N.am   90  MET90      -0.1965
      6  CA       -11.6270   17.2430   27.1120 C.3    90  MET90       0.1736
      7  C        -12.7280   18.2950   27.1340 C.2    90  MET90       0.2616
      8  O        -13.3710   18.4810   28.1630 O.2    90  MET90      -0.2715
      9  CB       -10.3750   17.7770   27.7990 C.3    90  MET90       0.0427
     10  CG        -9.5870   18.8060   27.0270 C.3    90  MET90       0.0599
     11  SD        -8.2460   19.3340   28.0690 S.3    90  MET90      -0.1393
     12  CE        -7.5210   20.6370   27.0830 C.3    90  MET90       0.0692
     13  N        -12.9720   18.9710   26.0160 N.am   91  ARG91      -0.1977
     14  CA       -14.0030   20.0010   25.9440 C.3    91  ARG91       0.1597
     15  C        -14.9410   19.6610   24.8100 C.2    91  ARG91       0.2287
     16  O        -14.5120   19.4830   23.6740 O.2    91  ARG91      -0.2864
     17  CB       -13.3940   21.3720   25.7510 C.3    91  ARG91       0.0334
     18  CG       -12.2520   21.4330   24.7490 C.3    91  ARG91       0.0492
     19  CD       -11.3390   22.6200   24.9990 C.3    91  ARG91       0.2205
     20  NE       -10.6350   22.9930   23.7890 N.pl3  91  ARG91      -0.0865
     21  CZ        -9.7810   24.0070   23.6810 C.cat  91  ARG91       0.5346
     22  NH1       -9.4810   24.7930   24.7150 N.pl3  91  ARG91       0.1354
     23  NH2       -9.2140   24.2280   22.5110 N.pl3  91  ARG91       0.1354
     24  N         -4.2870   29.4570   15.9150 N.3   224  TRP224     -0.1241
     25  CA        -4.6650   28.7650   14.7130 C.3   224  TRP224      0.1605
     26  C         -3.4690   28.1840   13.9180 C.2   224  TRP224      0.2264
     27  O         -3.6490   27.6000   12.8710 O.2   224  TRP224     -0.2867
     28  CB        -5.4590   29.7590   13.8170 C.3   224  TRP224      0.0550
     29  CG        -6.8150   30.2390   14.3830 C.ar  224  TRP224      0.0003
     30  CD1       -7.0700   31.4430   15.0050 C.ar  224  TRP224      0.0946
     31  CD2       -8.0580   29.5290   14.3770 C.ar  224  TRP224      0.0152
     32  NE1       -8.3730   31.5050   15.4190 N.ar  224  TRP224     -0.2442
     33  CE2       -9.0130   30.3520   15.0380 C.ar  224  TRP224      0.0810
     34  CE3       -8.4550   28.2580   13.9230 C.ar  224  TRP224      0.0012
     35  CZ2      -10.3540   29.9640   15.2110 C.ar  224  TRP224      0.0191
     36  CZ3       -9.7980   27.8560   14.1100 C.ar  224  TRP224      0.0001
     37  CH2      -10.7240   28.7120   14.7370 C.ar  224  TRP224      0.0015
     38  N         -3.4160   24.6950   12.6570 N.3   227  ASP227     -0.1239
     39  CA        -4.4850   24.4260   11.6640 C.3   227  ASP227      0.1674
     40  C         -4.2610   25.0670   10.2820 C.2   227  ASP227      0.2266
     41  O         -4.9380   24.7130    9.3010 O.2   227  ASP227     -0.2867
     42  CB        -5.8320   24.8720   12.2170 C.3   227  ASP227      0.1410
     43  CG        -6.2300   24.1010   13.4570 C.2   227  ASP227      0.3668
     44  OD1       -6.4180   22.8580   13.3540 O.co2 227  ASP227     -0.2456
     45  OD2       -6.3190   24.7390   14.5330 O.co2 227  ASP227     -0.2456
     46  N        -11.9480   22.1100    6.2090 N.3   234  GLU234     -0.1231
     47  CA       -11.9480   21.6030    7.5840 C.3   234  GLU234      0.1699
     48  C        -12.2200   22.7310    8.5770 C.2   234  GLU234      0.2592
     49  O        -13.0130   22.6390    9.5190 O.2   234  GLU234     -0.2718
     50  CB       -10.5900   20.9400    7.9200 C.3   234  GLU234      0.0402
     51  CG       -10.5650   20.2280    9.2790 C.3   234  GLU234      0.1161
     52  CD        -9.3640   19.2800    9.4590 C.2   234  GLU234      0.3649
     53  OE1       -9.3120   18.2080    8.7760 O.co2 234  GLU234     -0.2457
     54  OE2       -8.4650   19.6020   10.2960 O.co2 234  GLU234     -0.2457
     55  N        -11.5140   23.8140    8.3760 N.am  235  ILE235     -0.1980
     56  CA       -11.6330   24.9070    9.3080 C.3   235  ILE235      0.1595
     57  C        -13.0690   25.4480    9.2650 C.2   235  ILE235      0.2287
     58  O        -13.6020   25.8240   10.2960 O.2   235  ILE235     -0.2864
     59  CB       -10.6920   26.0280    8.9510 C.3   235  ILE235      0.0276
     60  CG1       -9.2600   25.4820    8.7890 C.3   235  ILE235      0.0022
     61  CG2      -10.8310   27.1250    9.9860 C.3   235  ILE235      0.0022
     62  CD1       -8.7100   24.8090   10.0130 C.3   235  ILE235      0.0001
     63  N        -15.4540   23.4980   11.3010 N.3   238  VAL238     -0.1245
     64  CA       -15.2320   23.7440   12.7350 C.3   238  VAL238      0.1561
     65  C        -15.8970   25.0350   13.2030 C.2   238  VAL238      0.2260
     66  O        -16.6010   25.0720   14.2410 O.2   238  VAL238     -0.2867
     67  CB       -13.6950   23.7770   13.0830 C.3   238  VAL238      0.0252
     68  CG1      -13.3900   24.5120   14.3730 C.3   238  VAL238      0.0019
     69  CG2      -13.1480   22.3750   13.1960 C.3   238  VAL238      0.0019
     70  N         -2.3310   14.9140   13.2870 N.3   350  MET350     -0.1245
     71  CA        -1.8550   15.9210   14.1510 C.3   350  MET350      0.1570
     72  C         -1.3920   15.4330   15.5220 C.2   350  MET350      0.2261
     73  O         -1.9650   14.5450   16.1510 O.2   350  MET350     -0.2867
     74  CB        -2.8870   16.9850   14.2280 C.3   350  MET350      0.0387
     75  CG        -3.0150   17.5810   12.8410 C.3   350  MET350      0.0595
     76  SD        -4.0800   19.0070   12.7570 S.3   350  MET350     -0.1393
     77  CE        -3.4540   20.0850   14.0580 C.3   350  MET350      0.0692
     78  N         -0.5820   22.5860   26.7170 N.3   405  TYR405     -0.1241
     79  CA        -1.4570   21.9680   25.7510 C.3   405  TYR405      0.1605
     80  C         -0.9390   22.4900   24.4520 C.2   405  TYR405      0.2264
     81  O         -1.1990   23.6280   24.1050 O.2   405  TYR405     -0.2867
     82  CB        -2.8780   22.4760   25.9160 C.3   405  TYR405      0.0534
     83  CG        -3.9410   21.7060   25.1710 C.ar  405  TYR405     -0.0201
     84  CD1       -3.7490   20.4030   24.7800 C.ar  405  TYR405     -0.0009
     85  CD2       -5.1690   22.2850   24.9000 C.ar  405  TYR405     -0.0009
     86  CE1       -4.7410   19.6980   24.1320 C.ar  405  TYR405      0.0417
     87  CE2       -6.1690   21.5910   24.2520 C.ar  405  TYR405      0.0417
     88  CZ        -5.9540   20.2870   23.8760 C.ar  405  TYR405      0.1957
     89  OH        -6.9410   19.5590   23.2340 O.3   405  TYR405     -0.2866
     90  N          0.2980   21.6020   20.1560 N.3   407  TRP407     -0.1241
     91  CA         0.1130   20.8240   18.9170 C.3   407  TRP407      0.1605
     92  C          1.3770   20.9130   18.0440 C.2   407  TRP407      0.2264
     93  O          2.1960   21.8410   18.1830 O.2   407  TRP407     -0.2867
     94  CB        -1.0450   21.3770   18.0800 C.3   407  TRP407      0.0550
     95  CG        -2.2510   21.7040   18.8590 C.ar  407  TRP407      0.0003
     96  CD1       -2.7100   22.9470   19.1960 C.ar  407  TRP407      0.0946
     97  CD2       -3.1690   20.7770   19.4030 C.ar  407  TRP407      0.0152
     98  NE1       -3.8630   22.8390   19.9240 N.ar  407  TRP407     -0.2442
     99  CE2       -4.1560   21.5130   20.0810 C.ar  407  TRP407      0.0810
    100  CE3       -3.2430   19.3890   19.4010 C.ar  407  TRP407      0.0012
    101  CZ2       -5.2100   20.9070   20.7470 C.ar  407  TRP407      0.0191
    102  CZ3       -4.2780   18.7860   20.0560 C.ar  407  TRP407      0.0001
    103  CH2       -5.2600   19.5410   20.7210 C.ar  407  TRP407      0.0015
    104  N         -5.2810   13.0290   16.2410 N.3   462  PHE462     -0.1241
    105  CA        -6.4350   12.9390   15.3460 C.3   462  PHE462      0.1605
    106  C         -5.9760   13.3610   13.9930 C.2   462  PHE462      0.2264
    107  O         -4.9270   13.9600   13.8710 O.2   462  PHE462     -0.2867
    108  CB        -7.6040   13.8340   15.7830 C.3   462  PHE462      0.0534
    109  CG        -7.1730   15.1350   16.4140 C.ar  462  PHE462     -0.0203
    110  CD1       -6.5430   16.1200   15.6540 C.ar  462  PHE462     -0.0042
    111  CD2       -7.3890   15.3700   17.7620 C.ar  462  PHE462     -0.0042
    112  CE1       -6.1180   17.3080   16.2460 C.ar  462  PHE462     -0.0003
    113  CE2       -6.9790   16.5550   18.3510 C.ar  462  PHE462     -0.0003
    114  CZ        -6.3210   17.5170   17.5990 C.ar  462  PHE462     -0.0000
    115  N        -11.1160   16.4850   14.7460 N.3   504  ALA504     -0.1231
    116  CA       -10.6870   16.5430   16.1650 C.3   504  ALA504      0.1694
    117  C        -11.8350   16.6400   17.1480 C.2   504  ALA504      0.2592
    118  O        -11.6630   17.1110   18.2550 O.2   504  ALA504     -0.2718
    119  CB        -9.7240   17.6850   16.3840 C.3   504  ALA504      0.0304
    120  N        -13.0110   16.1990   16.7250 N.am  505  TRP505     -0.1976
    121  CA       -14.2300   16.4050   17.4860 C.3   505  TRP505      0.1640
    122  C        -14.9390   15.0760   17.5280 C.2   505  TRP505      0.2290
    123  O        -15.1780   14.4290   16.4660 O.2   505  TRP505     -0.2864
    124  CB       -15.0880   17.4960   16.8550 C.3   505  TRP505      0.0576
    125  CG       -14.2740   18.7620   16.7030 C.ar  505  TRP505      0.0006
    126  CD1      -13.5000   19.1180   15.6240 C.ar  505  TRP505      0.0946
    127  CD2      -14.0500   19.7890   17.7080 C.ar  505  TRP505      0.0152
    128  NE1      -12.8560   20.3130   15.8720 N.ar  505  TRP505     -0.2442
    129  CE2      -13.1600   20.7450   17.1420 C.ar  505  TRP505      0.0810
    130  CE3      -14.4960   19.9840   19.0240 C.ar  505  TRP505      0.0012
    131  CZ2      -12.7480   21.9130   17.8410 C.ar  505  TRP505      0.0191
    132  CZ3      -14.0680   21.1330   19.7280 C.ar  505  TRP505      0.0001
    133  CH2      -13.2250   22.0900   19.1230 C.ar  505  TRP505      0.0015
@<TRIPOS>BOND
     1    46    47    1
     2    47    50    1
     3    47    48    1
     4    50    51    1
     5    55    48   am
     6    55    56    1
     7    48    49    2
     8    53    52   ar
     9    60    59    1
    10    60    62    1
    11    59    56    1
    12    59    61    1
    13    57    56    1
    14    57    58    2
    15    51    52    1
    16    41    40    2
    17    52    54   ar
    18    40    39    1
    19    63    64    1
    20    39    42    1
    21    39    38    1
    22    42    43    1
    23    64    67    1
    24    64    65    1
    25    76    75    1
    26    76    77    1
    27    75    74    1
    28    27    26    2
    29    67    69    1
    30    67    68    1
    31    65    66    2
    32    70    71    1
    33    44    43   ar
    34    43    45   ar
    35    28    29    1
    36    28    25    1
    37   107   106    2
    38    26    25    1
    39    34    36   ar
    40    34    31   ar
    41   106   105    1
    42    36    37   ar
    43    71    74    1
    44    71    72    1
    45    31    29   ar
    46    31    33   ar
    47    29    30   ar
    48    25    24    1
    49    37    35   ar
    50   115   116    1
    51    30    32   ar
    52    33    35   ar
    53    33    32   ar
    54   105   108    1
    55   105   104    1
    56    72    73    2
    57   126   128   ar
    58   126   125   ar
    59   110   112   ar
    60   110   109   ar
    61   108   109    1
    62   128   129   ar
    63   116   119    1
    64   116   117    1
    65   112   114   ar
    66   109   111   ar
    67   123   122    2
    68   125   124    1
    69   125   127   ar
    70   120   117   am
    71   120   121    1
    72   124   121    1
    73   129   127   ar
    74   129   131   ar
    75   117   118    2
    76   121   122    1
    77   114   113   ar
    78   127   130   ar
    79   111   113   ar
    80   131   133   ar
    81    92    93    2
    82    92    91    1
    83    94    95    1
    84    94    91    1
    85    95    96   ar
    86    95    97   ar
    87    91    90    1
    88   130   132   ar
    89   133   132   ar
    90    96    98   ar
    91   100    97   ar
    92   100   102   ar
    93    97    99   ar
    94    98    99   ar
    95   102   103   ar
    96    99   101   ar
    97   103   101   ar
    98    23    21    1
    99    89    88    1
   100    16    15    2
   101    21    20    2
   102    21    22    1
   103    20    19    1
   104    88    86   ar
   105    88    87   ar
   106    81    80    2
   107    86    84   ar
   108    87    85   ar
   109     2     1    1
   110     2     3    1
   111    80    79    1
   112    18    19    1
   113    18    17    1
   114    84    83   ar
   115    15    14    1
   116    85    83   ar
   117    83    82    1
   118     3     5   am
   119     3     4    2
   120    79    82    1
   121    79    78    1
   122    17    14    1
   123     5     6    1
   124    14    13    1
   125    13     7   am
   126    10     9    1
   127    10    11    1
   128    12    11    1
   129     6     7    1
   130     6     9    1
   131     7     8    2
