@<TRIPOS>MOLECULE
tmp/5ybfF00.pdb
 98 95 0 0 0
SMALL
GASTEIGER

@<TRIPOS>ATOM
      1  N         32.7840   95.0560   22.9640 N.3    90  ILE90      -0.1231
      2  CA        32.1220   94.2970   24.0050 C.3    90  ILE90       0.1692
      3  C         32.4140   92.8210   23.7610 C.2    90  ILE90       0.2592
      4  O         32.0730   92.2820   22.7070 O.2    90  ILE90      -0.2718
      5  CB        30.5990   94.5260   23.9540 C.3    90  ILE90       0.0266
      6  CG1       30.3190   96.0020   24.2770 C.3    90  ILE90       0.0019
      7  CG2       29.8770   93.5830   24.9140 C.3    90  ILE90       0.0020
      8  CD1       28.9810   96.4950   23.7330 C.3    90  ILE90       0.0001
      9  N         33.0490   92.1790   24.7340 N.am   91  THR91      -0.1953
     10  CA        33.3640   90.7620   24.6370 C.3    91  THR91       0.1897
     11  C         33.0990   90.1110   25.9750 C.2    91  THR91       0.2313
     12  O         33.0790   90.7750   27.0210 O.2    91  THR91      -0.2863
     13  CB        34.8430   90.4980   24.2850 C.3    91  THR91       0.1794
     14  OG1       35.6700   90.8350   25.4120 O.3    91  THR91      -0.2208
     15  CG2       35.2880   91.2900   23.0480 C.3    91  THR91       0.0378
     16  N         25.4010   99.7450   27.0470 N.3   102  LYS102     -0.1231
     17  CA        24.8620   99.3230   25.7740 C.3   102  LYS102      0.1678
     18  C         25.7670   99.8350   24.6430 C.2   102  LYS102      0.2434
     19  O         26.4650  100.8620   24.8090 O.2   102  LYS102     -0.2733
     20  CB        23.4290   99.8590   25.5930 C.3   102  LYS102      0.0284
     21  CG        22.3880   99.1220   26.4340 C.3   102  LYS102      0.0035
     22  CD        22.2870   97.6530   26.0220 C.3   102  LYS102      0.0206
     23  CE        21.2700   96.8880   26.8760 C.3   102  LYS102      0.1093
     24  NZ        21.6380   96.8000   28.3150 N.3   102  LYS102     -0.1314
     25  N         25.7880   99.1340   23.5120 N.am  103  PRO103     -0.2718
     26  CA        26.6930   99.5350   22.4320 C.3   103  PRO103      0.1535
     27  C         26.3330  100.8970   21.8580 C.2   103  PRO103      0.2599
     28  O         25.1550  101.2390   21.7190 O.2   103  PRO103     -0.2715
     29  CB        26.5280   98.4470   21.3830 C.3   103  PRO103      0.0310
     30  CG        25.2880   97.7230   21.7570 C.3   103  PRO103      0.0237
     31  CD        24.9980   97.9390   23.1830 C.3   103  PRO103      0.0939
     32  N         27.3580  101.7090   21.6090 N.am  104  PHE104     -0.1960
     33  CA        27.1380  102.9930   20.9380 C.3   104  PHE104      0.1771
     34  C         27.3320  102.9000   19.4220 C.2   104  PHE104      0.2619
     35  O         26.9420  103.8010   18.6820 O.2   104  PHE104     -0.2715
     36  CB        27.9860  104.1230   21.5550 C.3   104  PHE104      0.0574
     37  CG        29.4730  103.9140   21.4600 C.ar  104  PHE104     -0.0200
     38  CD1       30.1700  104.2450   20.2960 C.ar  104  PHE104     -0.0042
     39  CD2       30.1820  103.4000   22.5560 C.ar  104  PHE104     -0.0042
     40  CE1       31.5480  104.0770   20.2380 C.ar  104  PHE104     -0.0003
     41  CE2       31.5600  103.2290   22.4940 C.ar  104  PHE104     -0.0003
     42  CZ        32.2370  103.5620   21.3390 C.ar  104  PHE104     -0.0000
     43  N         27.9390  101.8090   18.9590 N.am  105  MET105     -0.1963
     44  CA        28.1900  101.6180   17.5370 C.3   105  MET105      0.1736
     45  C         28.3070  100.1360   17.3050 C.2   105  MET105      0.2617
     46  O         28.8960   99.4170   18.1200 O.2   105  MET105     -0.2715
     47  CB        29.5040  102.2750   17.1040 C.3   105  MET105      0.0427
     48  CG        29.6340  102.4470   15.5940 C.3   105  MET105      0.0599
     49  SD        31.1730  103.2670   15.1460 S.3   105  MET105     -0.1393
     50  CE        30.8230  104.9710   15.5330 C.3   105  MET105      0.0692
     51  N         27.7490   99.6970   16.1900 N.am  106  SER106     -0.1950
     52  CA        27.8330   98.3020   15.7930 C.3   106  SER106      0.1924
     53  C         29.0050   98.0970   14.8610 C.2   106  SER106      0.2314
     54  O         29.3850   98.9960   14.1050 O.2   106  SER106     -0.2863
     55  CB        26.5540   97.8870   15.0800 C.3   106  SER106      0.2116
     56  OG        26.4110   98.5690   13.8610 O.3   106  SER106     -0.2180
     57  N         28.9350   89.9470   14.5230 N.3   215  SER215     -0.1202
     58  CA        28.0860   91.0980   14.7530 C.3   215  SER215      0.2020
     59  C         28.2080   91.4310   16.2170 C.2   215  SER215      0.2619
     60  O         27.8370   90.6380   17.0840 O.2   215  SER215     -0.2717
     61  CB        26.6170   90.8000   14.4490 C.3   215  SER215      0.2103
     62  OG        26.3660   90.5790   13.0780 O.3   215  SER215     -0.2182
     63  N         28.7260   92.6210   16.4950 N.am  216  LYS216     -0.1965
     64  CA        28.9080   93.0400   17.8820 C.3   216  LYS216      0.1728
     65  C         28.8980   94.5600   17.9310 C.2   216  LYS216      0.2616
     66  O         28.2980   95.2160   17.0700 O.2   216  LYS216     -0.2715
     67  CB        30.1760   92.4110   18.4780 C.3   216  LYS216      0.0311
     68  CG        31.4260   92.7260   17.6920 C.3   216  LYS216      0.0038
     69  CD        32.4610   91.6450   17.9180 C.3   216  LYS216      0.0206
     70  CE        33.6980   91.9360   17.1000 C.3   216  LYS216      0.1093
     71  NZ        34.6800   90.8270   17.1740 N.3   216  LYS216     -0.1314
     72  N         29.4980   95.1330   18.9640 N.am  217  GLY217     -0.1955
     73  CA        29.3910   96.5610   19.1790 C.3   217  GLY217      0.1869
     74  C         30.4900   97.0320   20.0890 C.2   217  GLY217      0.2309
     75  O         31.1350   96.2270   20.7570 O.2   217  GLY217     -0.2863
     76  N         24.0750  106.5920   26.8640 N.3   236  VAL236     -0.1231
     77  CA        24.2640  106.0010   25.5390 C.3   236  VAL236      0.1692
     78  C         22.9140  105.8180   24.8380 C.2   236  VAL236      0.2591
     79  O         22.7720  106.1630   23.6660 O.2   236  VAL236     -0.2718
     80  CB        25.0650  104.6720   25.6060 C.3   236  VAL236      0.0266
     81  CG1       25.0460  103.9270   24.2700 C.3   236  VAL236      0.0020
     82  CG2       26.5040  104.9690   26.0300 C.3   236  VAL236      0.0020
     83  N         21.9400  105.2670   25.5530 N.am  237  LEU237     -0.1980
     84  CA        20.6220  105.0520   24.9560 C.3   237  LEU237      0.1596
     85  C         19.9380  106.3720   24.5780 C.2   237  LEU237      0.2287
     86  O         19.3170  106.4540   23.5170 O.2   237  LEU237     -0.2864
     87  CB        19.7190  104.2960   25.9120 C.3   237  LEU237      0.0297
     88  CG        20.2170  102.8980   26.2550 C.3   237  LEU237      0.0022
     89  CD1       19.2420  102.3330   27.2560 C.3   237  LEU237      0.0001
     90  CD2       20.3210  102.0160   25.0310 C.3   237  LEU237      0.0001
     91  N         21.5680  107.6240   21.4350 N.3   240  ASN240     -0.1240
     92  CA        21.1450  106.8390   20.2990 C.3   240  ASN240      0.1653
     93  C         19.7730  107.3090   19.8390 C.2   240  ASN240      0.2266
     94  O         19.5510  107.5370   18.6510 O.2   240  ASN240     -0.2867
     95  CB        21.0860  105.3520   20.6690 C.3   240  ASN240      0.1155
     96  CG        20.6450  104.5040   19.5070 C.2   240  ASN240      0.2627
     97  OD1       21.4660  103.9480   18.7960 O.2   240  ASN240     -0.2716
     98  ND2       19.3580  104.4760   19.2580 N.am  240  ASN240     -0.0877
@<TRIPOS>BOND
     1    62    61    1
     2    56    55    1
     3    54    53    2
     4    61    58    1
     5    57    58    1
     6    58    59    1
     7    53    52    1
     8    55    52    1
     9    49    50    1
    10    49    48    1
    11    48    47    1
    12    52    51    1
    13    51    45   am
    14    59    63   am
    15    59    60    2
    16    63    64    1
    17    66    65    2
    18    70    71    1
    19    70    69    1
    20    47    44    1
    21    45    44    1
    22    45    46    2
    23    44    43    1
    24    68    69    1
    25    68    67    1
    26    64    65    1
    27    64    67    1
    28    65    72   am
    29    94    93    2
    30    35    34    2
    31    97    96    2
    32    43    34   am
    33    72    73    1
    34    73    74    1
    35    98    96   am
    36    34    33    1
    37    96    95    1
    38    93    92    1
    39    74    75    2
    40    40    38   ar
    41    40    42   ar
    42    38    37   ar
    43    92    95    1
    44    92    91    1
    45    33    36    1
    46    33    32    1
    47    42    41   ar
    48    29    30    1
    49    29    26    1
    50    37    36    1
    51    37    39   ar
    52    32    27   am
    53    28    27    2
    54    30    31    1
    55    27    26    1
    56    26    25    1
    57    41    39   ar
    58     4     3    2
    59     1     2    1
    60    15    13    1
    61    31    25    1
    62    25    18   am
    63    86    85    2
    64    79    78    2
    65     8     6    1
    66     3     2    1
    67     3     9   am
    68     5     2    1
    69     5     6    1
    70     5     7    1
    71    81    80    1
    72    13    10    1
    73    13    14    1
    74    85    84    1
    75    10     9    1
    76    10    11    1
    77    18    19    2
    78    18    17    1
    79    78    77    1
    80    78    83   am
    81    84    83    1
    82    84    87    1
    83    90    88    1
    84    77    80    1
    85    77    76    1
    86    20    17    1
    87    20    21    1
    88    80    82    1
    89    17    16    1
    90    87    88    1
    91    11    12    2
    92    22    21    1
    93    22    23    1
    94    88    89    1
    95    23    24    1
