@<TRIPOS>MOLECULE
tmp/5ybiA00.pdb
 136 134 0 0 0
SMALL
GASTEIGER

@<TRIPOS>ATOM
      1  N         40.5360   31.8910   61.5480 N.3    78  SER78      -0.1202
      2  CA        40.9960   32.9440   62.4360 C.3    78  SER78       0.2020
      3  C         42.4180   32.6320   62.8630 C.2    78  SER78       0.2619
      4  O         42.9530   31.5490   62.5550 O.2    78  SER78      -0.2717
      5  CB        40.0910   33.0650   63.6470 C.3    78  SER78       0.2103
      6  OG        40.2750   31.9490   64.4860 O.3    78  SER78      -0.2182
      7  N         43.0180   33.5590   63.6060 N.am   79  ALA79      -0.1965
      8  CA        44.4480   33.5350   63.8790 C.3    79  ALA79       0.1728
      9  C         44.8980   32.3530   64.7360 C.2    79  ALA79       0.2617
     10  O         44.2210   31.9620   65.6890 O.2    79  ALA79      -0.2715
     11  CB        44.8460   34.8140   64.5390 C.3    79  ALA79       0.0334
     12  N         46.0540   31.7950   64.3690 N.am   80  GLY80      -0.1940
     13  CA        46.6630   30.6790   65.0670 C.3    80  GLY80       0.2014
     14  C         45.8810   29.3790   65.1080 C.2    80  GLY80       0.2639
     15  O         46.0230   28.6180   66.0560 O.2    80  GLY80      -0.2714
     16  N         45.0630   29.1180   64.0900 N.am   81  CYS81      -0.1953
     17  CA        44.3290   27.8570   63.9920 C.3    81  CYS81       0.1843
     18  C         45.0580   26.8810   63.0730 C.2    81  CYS81       0.2626
     19  O         44.5640   25.7930   62.7940 O.2    81  CYS81      -0.2714
     20  CB        42.9030   28.0870   63.5020 C.3    81  CYS81       0.0997
     21  SG        41.8720   28.9940   64.6700 S.3    81  CYS81      -0.0797
     22  N         46.2410   27.2720   62.6100 N.am   82  GLY82      -0.1940
     23  CA        47.1060   26.3710   61.8710 C.3    82  GLY82       0.2014
     24  C         46.9060   26.4140   60.3700 C.2    82  GLY82       0.2639
     25  O         47.1280   25.4100   59.6780 O.2    82  GLY82      -0.2714
     26  N         46.5050   27.5650   59.8390 N.am   83  LYS83      -0.1963
     27  CA        46.2720   27.6350   58.4090 C.3    83  LYS83       0.1728
     28  C         47.5810   27.4810   57.6610 C.2    83  LYS83       0.2617
     29  O         47.6060   26.8180   56.6350 O.2    83  LYS83      -0.2715
     30  CB        45.5440   28.9240   58.0100 C.3    83  LYS83       0.0311
     31  CG        46.3180   30.1610   58.1190 C.3    83  LYS83       0.0038
     32  CD        45.9240   31.1010   57.0290 C.3    83  LYS83       0.0206
     33  CE        46.7820   32.3510   57.1000 C.3    83  LYS83       0.1093
     34  NZ        48.2350   32.0630   57.2450 N.3    83  LYS83      -0.1314
     35  N         48.6780   28.0210   58.1900 N.am   84  THR84      -0.1937
     36  CA        49.9510   27.9450   57.4770 C.3    84  THR84       0.2028
     37  C         50.4230   26.5020   57.4460 C.2    84  THR84       0.2642
     38  O         50.9330   26.0210   56.4330 O.2    84  THR84      -0.2714
     39  CB        51.0420   28.8710   58.1130 C.3    84  THR84       0.1808
     40  OG1       50.6740   30.2450   57.9350 O.3    84  THR84      -0.2208
     41  CG2       52.3970   28.6750   57.4550 C.3    84  THR84       0.0379
     42  N         50.2700   25.7900   58.5490 N.am   85  PHE85      -0.1973
     43  CA        50.6080   24.3710   58.5260 C.3    85  PHE85       0.1639
     44  C         49.7780   23.5650   57.5430 C.2    85  PHE85       0.2290
     45  O         50.3090   22.6940   56.8490 O.2    85  PHE85      -0.2864
     46  CB        50.4490   23.7670   59.8960 C.3    85  PHE85       0.0560
     47  CG        51.7370   23.6280   60.6250 C.ar   85  PHE85      -0.0200
     48  CD1       52.8430   23.0400   60.0330 C.ar   85  PHE85      -0.0042
     49  CD2       51.8450   24.0950   61.8950 C.ar   85  PHE85      -0.0042
     50  CE1       54.0240   22.9290   60.7300 C.ar   85  PHE85      -0.0003
     51  CE2       53.0130   23.9930   62.5780 C.ar   85  PHE85      -0.0003
     52  CZ        54.1060   23.4090   62.0040 C.ar   85  PHE85      -0.0000
     53  N         58.8140   37.6770   58.7660 N.3   107  ARG107     -0.1231
     54  CA        58.9850   36.4580   59.5420 C.3   107  ARG107      0.1694
     55  C         58.1040   35.3170   58.9980 C.2   107  ARG107      0.2591
     56  O         58.4770   34.1390   59.0310 O.2   107  ARG107     -0.2718
     57  CB        58.6430   36.7490   60.9990 C.3   107  ARG107      0.0321
     58  CG        59.0420   35.6720   62.0130 C.3   107  ARG107      0.0489
     59  CD        58.4760   35.9850   63.4260 C.3   107  ARG107      0.2205
     60  NE        57.0740   36.4240   63.3830 N.pl3 107  ARG107     -0.0865
     61  CZ        56.0130   35.6150   63.3190 C.cat 107  ARG107      0.5346
     62  NH1       56.1600   34.2950   63.3100 N.pl3 107  ARG107      0.1354
     63  NH2       54.7880   36.1310   63.2660 N.pl3 107  ARG107      0.1354
     64  N         56.9290   35.6720   58.4930 N.am  108  GLU108     -0.1979
     65  CA        55.9880   34.6850   57.9930 C.3   108  GLU108      0.1602
     66  C         56.4700   34.1510   56.6520 C.2   108  GLU108      0.2287
     67  O         56.3750   32.9640   56.3660 O.2   108  GLU108     -0.2864
     68  CB        54.5910   35.3010   57.8810 C.3   108  GLU108      0.0415
     69  CG        53.9390   35.6290   59.2320 C.3   108  GLU108      0.1163
     70  CD        52.6250   36.3870   59.0790 C.2   108  GLU108      0.3649
     71  OE1       52.6380   37.5170   58.5200 O.co2 108  GLU108     -0.2457
     72  OE2       51.5730   35.8520   59.5050 O.co2 108  GLU108     -0.2457
     73  N         59.2900   31.6040   57.4070 N.3   111  GLU111     -0.1245
     74  CA        58.8120   30.2920   57.8210 C.3   111  GLU111      0.1567
     75  C         58.6040   29.4440   56.5710 C.2   111  GLU111      0.2260
     76  O         59.0790   28.3090   56.4880 O.2   111  GLU111     -0.2867
     77  CB        57.5090   30.3780   58.6060 C.3   111  GLU111      0.0388
     78  CG        57.6310   31.0190   59.9640 C.3   111  GLU111      0.1160
     79  CD        56.2990   31.1170   60.6820 C.2   111  GLU111      0.3649
     80  OE1       55.2550   30.8750   60.0390 O.co2 111  GLU111     -0.2457
     81  OE2       56.2920   31.4370   61.8900 O.co2 111  GLU111     -0.2457
     82  N         41.1370   35.3430   55.9920 N.3   221  LEU221     -0.1245
     83  CA        41.4590   35.5470   57.4050 C.3   221  LEU221      0.1561
     84  C         40.2510   36.0810   58.1310 C.2   221  LEU221      0.2260
     85  O         39.7440   37.1460   57.8040 O.2   221  LEU221     -0.2867
     86  CB        42.6360   36.5040   57.5690 C.3   221  LEU221      0.0270
     87  CG        43.8660   36.1550   56.7340 C.3   221  LEU221      0.0019
     88  CD1       44.9950   37.1640   57.0090 C.3   221  LEU221      0.0001
     89  CD2       44.3270   34.7290   57.0000 C.3   221  LEU221      0.0001
     90  N         44.8430   19.0010   65.4670 N.3   254  PHE254     -0.1228
     91  CA        45.4320   19.4990   64.2310 C.3   254  PHE254      0.1721
     92  C         45.5150   18.4210   63.1180 C.2   254  PHE254      0.2437
     93  O         45.9430   17.2920   63.3640 O.2   254  PHE254     -0.2733
     94  CB        46.8290   20.0750   64.5140 C.3   254  PHE254      0.0547
     95  CG        46.7980   21.4050   65.2350 C.ar  254  PHE254     -0.0202
     96  CD1       46.3810   22.5560   64.5780 C.ar  254  PHE254     -0.0042
     97  CD2       47.1730   21.5020   66.5670 C.ar  254  PHE254     -0.0042
     98  CE1       46.3460   23.7750   65.2320 C.ar  254  PHE254     -0.0003
     99  CE2       47.1350   22.7250   67.2250 C.ar  254  PHE254     -0.0003
    100  CZ        46.7250   23.8600   66.5510 C.ar  254  PHE254     -0.0000
    101  N         45.1180   18.7750   61.8810 N.am  255  PRO255     -0.2729
    102  CA        44.5950   20.0880   61.4720 C.3   255  PRO255      0.1401
    103  C         43.1980   20.3380   62.0130 C.2   255  PRO255      0.2269
    104  O         42.3950   19.4240   61.9970 O.2   255  PRO255     -0.2865
    105  CB        44.5810   20.0060   59.9430 C.3   255  PRO255      0.0296
    106  CG        44.4850   18.5440   59.6370 C.3   255  PRO255      0.0237
    107  CD        45.2720   17.8610   60.7310 C.3   255  PRO255      0.0939
    108  N         46.3290   14.6950   62.6410 N.3   312  GLN312     -0.1231
    109  CA        47.3620   14.3300   61.6950 C.3   312  GLN312      0.1698
    110  C         48.5350   15.3120   61.7700 C.2   312  GLN312      0.2592
    111  O         48.4440   16.4630   61.3150 O.2   312  GLN312     -0.2718
    112  CB        46.8050   14.2710   60.2740 C.3   312  GLN312      0.0381
    113  CG        47.8250   13.8440   59.2290 C.3   312  GLN312      0.0905
    114  CD        47.2040   13.6320   57.8730 C.2   312  GLN312      0.2608
    115  OE1       45.9900   13.5950   57.7490 O.2   312  GLN312     -0.2717
    116  NE2       48.0310   13.5020   56.8530 N.am  312  GLN312     -0.0878
    117  N         49.6410   14.8230   62.3280 N.am  313  ASP313     -0.1960
    118  CA        50.8810   15.5800   62.4140 C.3   313  ASP313      0.1840
    119  C         51.2830   16.0480   61.0350 C.2   313  ASP313      0.2622
    120  O         51.2240   15.2820   60.0670 O.2   313  ASP313     -0.2715
    121  CB        52.0060   14.7370   63.0250 C.3   313  ASP313      0.1450
    122  CG        53.3110   15.5250   63.1860 C.2   313  ASP313      0.3671
    123  OD1       53.4850   16.1460   64.2460 O.co2 313  ASP313     -0.2456
    124  OD2       54.1620   15.5210   62.2630 O.co2 313  ASP313     -0.2456
    125  N         51.7350   17.2960   60.9750 N.am  314  TYR314     -0.1974
    126  CA        51.9780   17.9790   59.7200 C.3   314  TYR314      0.1639
    127  C         53.0670   17.2850   58.9260 C.2   314  TYR314      0.2290
    128  O         53.2020   17.5350   57.7360 O.2   314  TYR314     -0.2864
    129  CB        52.3450   19.4430   59.9830 C.3   314  TYR314      0.0560
    130  CG        53.7190   19.6310   60.5790 C.ar  314  TYR314     -0.0198
    131  CD1       53.9200   19.5700   61.9580 C.ar  314  TYR314     -0.0009
    132  CD2       54.8190   19.8670   59.7610 C.ar  314  TYR314     -0.0009
    133  CE1       55.1890   19.7310   62.5100 C.ar  314  TYR314      0.0417
    134  CE2       56.0950   20.0390   60.2960 C.ar  314  TYR314      0.0417
    135  CZ        56.2740   19.9650   61.6680 C.ar  314  TYR314      0.1957
    136  OH        57.5430   20.1260   62.1730 O.3   314  TYR314     -0.2866
@<TRIPOS>BOND
     1    82    83    1
     2    67    66    2
     3    38    37    2
     4    76    75    2
     5    75    74    1
     6    29    28    2
     7    66    65    1
     8    87    89    1
     9    87    88    1
    10    87    86    1
    11    45    44    2
    12   116   114   am
    13    32    33    1
    14    32    31    1
    15    33    34    1
    16    83    86    1
    17    83    84    1
    18    73    74    1
    19    37    36    1
    20    37    42   am
    21    41    39    1
    22    36    39    1
    23    36    35    1
    24    44    43    1
    25    28    35   am
    26    28    27    1
    27   128   127    2
    28   115   114    2
    29    85    84    2
    30    74    77    1
    31   114   113    1
    32    68    65    1
    33    68    69    1
    34    40    39    1
    35    65    64    1
    36    30    31    1
    37    30    27    1
    38    27    26    1
    39    64    55   am
    40    71    70   ar
    41    43    42    1
    42    43    46    1
    43    77    78    1
    44    53    54    1
    45   127   126    1
    46    55    56    2
    47    55    54    1
    48    70    69    1
    49    70    72   ar
    50   113   112    1
    51    54    57    1
    52   106   105    1
    53   106   107    1
    54    25    24    2
    55   126   129    1
    56   126   125    1
    57   132   134   ar
    58   132   130   ar
    59    26    24   am
    60    46    47    1
    61   105   102    1
    62    78    79    1
    63   129   130    1
    64    48    47   ar
    65    48    50   ar
    66    80    79   ar
    67   120   119    2
    68   112   109    1
    69   134   135   ar
    70    24    23    1
    71   130   131   ar
    72    47    49   ar
    73    79    81   ar
    74    50    52   ar
    75   107   101    1
    76   125   119   am
    77    57    58    1
    78   119   118    1
    79   111   110    2
    80   102   101    1
    81   102   103    1
    82     1     2    1
    83   135   136    1
    84   135   133   ar
    85   109   110    1
    86   109   108    1
    87   110   117   am
    88    23    22    1
    89   101    92   am
    90    49    51   ar
    91   131   133   ar
    92   104   103    2
    93    52    51   ar
    94    58    59    1
    95   124   122   ar
    96   117   118    1
    97   118   121    1
    98     2     3    1
    99     2     5    1
   100     4     3    2
   101    22    18   am
   102    19    18    2
   103     3     7   am
   104   121   122    1
   105    18    17    1
   106    92    93    2
   107    92    91    1
   108   122   123   ar
   109    63    61    1
   110    62    61    1
   111    61    60    2
   112    60    59    1
   113    20    17    1
   114    20    21    1
   115     7     8    1
   116     5     6    1
   117     8    11    1
   118     8     9    1
   119    17    16    1
   120    16    14   am
   121    91    94    1
   122    91    90    1
   123    12     9   am
   124    12    13    1
   125    94    95    1
   126    96    98   ar
   127    96    95   ar
   128     9    10    2
   129    13    14    1
   130    14    15    2
   131    98   100   ar
   132    95    97   ar
   133   100    99   ar
   134    97    99   ar
