@<TRIPOS>MOLECULE
tmp/5yblA00.pdb
 118 109 0 0 0
SMALL
GASTEIGER

@<TRIPOS>ATOM
      1  N        237.4840  462.9290  154.0050 N.3    61  ARG61      -0.1245
      2  CA       238.2450  463.9720  154.6730 C.3    61  ARG61       0.1563
      3  C        238.5840  465.0200  153.6340 C.2    61  ARG61       0.2260
      4  O        239.0250  464.6760  152.5360 O.2    61  ARG61      -0.2867
      5  CB       239.5060  463.4060  155.3210 C.3    61  ARG61       0.0307
      6  CG       239.1800  462.5130  156.4840 C.3    61  ARG61       0.0489
      7  CD       240.3720  461.7290  156.9650 C.3    61  ARG61       0.2205
      8  NE       239.9220  460.6430  157.8280 N.pl3  61  ARG61      -0.0865
      9  CZ       239.7760  460.7470  159.1460 C.cat  61  ARG61       0.5346
     10  NH1      240.0650  461.8950  159.7530 N.pl3  61  ARG61       0.1354
     11  NH2      239.3480  459.7030  159.8600 N.pl3  61  ARG61       0.1354
     12  N        239.2980  470.5630  158.7950 N.3   105  MET105     -0.1245
     13  CA       238.9260  469.4370  157.9520 C.3   105  MET105      0.1570
     14  C        237.4740  469.0610  158.1690 C.2   105  MET105      0.2261
     15  O        237.0320  468.9350  159.3130 O.2   105  MET105     -0.2867
     16  CB       239.8170  468.2290  158.2480 C.3   105  MET105      0.0387
     17  CG       239.6380  467.1270  157.2420 C.3   105  MET105      0.0595
     18  SD       240.9610  465.9370  157.3000 S.3   105  MET105     -0.1393
     19  CE       240.8020  465.3620  158.9830 C.3   105  MET105      0.0692
     20  N        235.2630  465.9120  158.0700 N.3   107  ILE107     -0.1245
     21  CA       235.3320  464.4550  158.1300 C.3   107  ILE107      0.1561
     22  C        233.9090  463.9190  158.0410 C.2   107  ILE107      0.2260
     23  O        233.0460  464.2900  158.8480 O.2   107  ILE107     -0.2867
     24  CB       235.9990  463.9680  159.4250 C.3   107  ILE107      0.0252
     25  CG1      237.4150  464.5330  159.5520 C.3   107  ILE107      0.0019
     26  CG2      235.9530  462.4450  159.5000 C.3   107  ILE107      0.0019
     27  CD1      237.9290  464.5020  160.9600 C.3   107  ILE107      0.0001
     28  N        236.9150  454.0370  164.7340 N.3   116  GLN116     -0.1245
     29  CA       238.3470  454.3030  164.7000 C.3   116  GLN116      0.1566
     30  C        238.9420  454.0110  166.0670 C.2   116  GLN116      0.2260
     31  O        238.2630  454.1130  167.0930 O.2   116  GLN116     -0.2867
     32  CB       238.6190  455.7550  164.2910 C.3   116  GLN116      0.0367
     33  CG       238.2370  456.0060  162.8440 C.3   116  GLN116      0.0905
     34  CD       239.1360  455.2730  161.8690 C.2   116  GLN116      0.2608
     35  OE1      240.3360  455.0940  162.1160 O.2   116  GLN116     -0.2717
     36  NE2      238.5940  454.8730  160.7800 N.am  116  GLN116     -0.0878
     37  N        242.4210  456.8540  170.4270 N.3   119  HIS119     -0.1241
     38  CA       243.7140  457.5000  170.4350 C.3   119  HIS119      0.1621
     39  C        243.5900  458.8230  171.1560 C.2   119  HIS119      0.2264
     40  O        242.4910  459.2880  171.4660 O.2   119  HIS119     -0.2867
     41  CB       244.2460  457.7080  169.0130 C.3   119  HIS119      0.0745
     42  CG       243.2980  458.4320  168.1080 C.ar  119  HIS119      0.0817
     43  ND1      242.1080  457.8820  167.6820 N.ar  119  HIS119     -0.2268
     44  CD2      243.3780  459.6510  167.5220 C.ar  119  HIS119      0.1154
     45  CE1      241.4910  458.7320  166.8810 C.ar  119  HIS119      0.1986
     46  NE2      242.2400  459.8140  166.7680 N.ar  119  HIS119     -0.2212
     47  N        244.8120  462.7710  170.3920 N.3   121  ASP121     -0.1239
     48  CA       245.2890  463.6480  169.3250 C.3   121  ASP121      0.1674
     49  C        246.7400  464.0780  169.5400 C.2   121  ASP121      0.2266
     50  O        247.4270  464.4300  168.5770 O.2   121  ASP121     -0.2867
     51  CB       244.3990  464.8950  169.2340 C.3   121  ASP121      0.1410
     52  CG       243.2780  464.7590  168.2260 C.2   121  ASP121      0.3668
     53  OD1      243.0910  463.6380  167.7010 O.co2 121  ASP121     -0.2456
     54  OD2      242.5890  465.7870  167.9760 O.co2 121  ASP121     -0.2456
     55  N        240.9040  470.4350  169.7040 N.3   141  ASN141     -0.1240
     56  CA       240.0320  470.3250  168.5440 C.3   141  ASN141      0.1653
     57  C        238.6320  470.7730  168.9330 C.2   141  ASN141      0.2266
     58  O        238.1110  470.3720  169.9780 O.2   141  ASN141     -0.2867
     59  CB       240.0020  468.8910  168.0080 C.3   141  ASN141      0.1155
     60  CG       239.2150  468.7320  166.7210 C.2   141  ASN141      0.2627
     61  OD1      238.3890  469.5590  166.3270 O.2   141  ASN141     -0.2716
     62  ND2      239.3730  467.6270  166.0190 N.am  141  ASN141     -0.0877
     63  N        235.3870  469.9800  167.6290 N.3   143  PHE143     -0.1241
     64  CA       234.8240  469.0180  166.6910 C.3   143  PHE143      0.1605
     65  C        233.3290  469.2710  166.5750 C.2   143  PHE143      0.2264
     66  O        232.5530  468.8880  167.4510 O.2   143  PHE143     -0.2867
     67  CB       235.1220  467.5950  167.1300 C.3   143  PHE143      0.0534
     68  CG       235.1310  466.6370  166.0010 C.ar  143  PHE143     -0.0203
     69  CD1      236.2330  466.5530  165.1680 C.ar  143  PHE143     -0.0042
     70  CD2      234.0330  465.8360  165.7450 C.ar  143  PHE143     -0.0042
     71  CE1      236.2390  465.6790  164.0970 C.ar  143  PHE143     -0.0003
     72  CE2      234.0370  464.9540  164.6890 C.ar  143  PHE143     -0.0003
     73  CZ       235.1340  464.8790  163.8560 C.ar  143  PHE143     -0.0000
     74  N        231.5640  460.6250  167.7220 N.3   156  THR156     -0.1218
     75  CA       232.8700  460.4060  168.3420 C.3   156  THR156      0.1862
     76  C        232.7160  459.8010  169.7280 C.2   156  THR156      0.2287
     77  O        231.9560  460.3070  170.5550 O.2   156  THR156     -0.2866
     78  CB       233.6310  461.7420  168.4360 C.3   156  THR156      0.1770
     79  OG1      233.6640  462.3660  167.1530 O.3   156  THR156     -0.2211
     80  CG2      235.0690  461.5520  168.9190 C.3   156  THR156      0.0375
     81  N        232.0610  469.7590  170.3270 N.3   189  TYR189     -0.1241
     82  CA       232.8460  469.3720  171.4830 C.3   189  TYR189      0.1605
     83  C        234.1900  470.0960  171.4090 C.2   189  TYR189      0.2264
     84  O        234.7520  470.2780  170.3280 O.2   189  TYR189     -0.2867
     85  CB       233.0300  467.8540  171.5250 C.3   189  TYR189      0.0534
     86  CG       233.9580  467.0890  170.6330 C.ar  189  TYR189     -0.0201
     87  CD1      235.3100  467.2370  170.6150 C.ar  189  TYR189     -0.0009
     88  CD2      233.3930  466.0800  169.8550 C.ar  189  TYR189     -0.0009
     89  CE1      236.1400  466.4440  169.8550 C.ar  189  TYR189      0.0417
     90  CE2      234.2120  465.2980  169.0700 C.ar  189  TYR189      0.0417
     91  CZ       235.5440  465.4520  169.0410 C.ar  189  TYR189      0.1957
     92  OH       236.4480  464.6840  168.3160 O.3   189  TYR189     -0.2866
     93  N        239.7810  459.0270  172.5260 N.3   197  HIS197     -0.1241
     94  CA       238.5870  459.1790  171.7150 C.3   197  HIS197      0.1621
     95  C        238.8370  458.4910  170.3840 C.2   197  HIS197      0.2264
     96  O        239.9730  458.1480  170.0440 O.2   197  HIS197     -0.2867
     97  CB       238.2580  460.6500  171.4770 C.3   197  HIS197      0.0745
     98  CG       239.1840  461.3000  170.4990 C.ar  197  HIS197      0.0817
     99  ND1      240.4100  461.8070  170.8660 N.ar  197  HIS197     -0.2268
    100  CD2      239.0820  461.4830  169.1620 C.ar  197  HIS197      0.1154
    101  CE1      241.0180  462.2850  169.7970 C.ar  197  HIS197      0.1986
    102  NE2      240.2320  462.1050  168.7510 N.ar  197  HIS197     -0.2212
    103  N        236.6110  458.0390  166.2490 N.3   199  ALA199     -0.1245
    104  CA       235.3970  458.0540  165.4520 C.3   199  ALA199      0.1562
    105  C        234.5440  456.8360  165.7760 C.2   199  ALA199      0.2260
    106  O        235.0520  455.7750  166.1340 O.2   199  ALA199     -0.2867
    107  CB       235.7310  458.0690  163.9590 C.3   199  ALA199      0.0290
    108  N        227.6110  460.9230  158.2190 N.3   209  ARG209     -0.1245
    109  CA       227.8330  461.7830  159.3750 C.3   209  ARG209      0.1563
    110  C        228.9250  462.7840  159.0330 C.2   209  ARG209      0.2260
    111  O        230.0830  462.4090  158.8360 O.2   209  ARG209     -0.2867
    112  CB       228.2090  460.9610  160.6010 C.3   209  ARG209      0.0307
    113  CG       228.1380  461.7150  161.9150 C.3   209  ARG209      0.0489
    114  CD       229.3960  461.5210  162.7270 C.3   209  ARG209      0.2205
    115  NE       230.5760  462.0210  162.0160 N.pl3 209  ARG209     -0.0865
    116  CZ       231.8360  461.8350  162.3980 C.cat 209  ARG209      0.5346
    117  NH1      232.1200  461.1440  163.4970 N.pl3 209  ARG209      0.1354
    118  NH2      232.8200  462.3400  161.6690 N.pl3 209  ARG209      0.1354
@<TRIPOS>BOND
     1     4     3    2
     2     3     2    1
     3     1     2    1
     4     2     5    1
     5     5     6    1
     6     6     7    1
     7     7     8    1
     8    17    18    1
     9    17    16    1
    10    18    19    1
    11     8     9    2
    12    13    14    1
    13    13    16    1
    14    13    12    1
    15    22    21    1
    16    22    23    2
    17    20    21    1
    18    21    24    1
    19    14    15    2
    20   108   109    1
    21   111   110    2
    22   110   109    1
    23     9    10    1
    24     9    11    1
    25   109   112    1
    26    24    26    1
    27    24    25    1
    28    25    27    1
    29   112   113    1
    30    36    34   am
    31   118   116    1
    32    34    35    2
    33    34    33    1
    34   113   114    1
    35   115   116    2
    36   115   114    1
    37   116   117    1
    38    33    32    1
    39    73    71   ar
    40    73    72   ar
    41   107   104    1
    42    71    69   ar
    43    32    29    1
    44    72    70   ar
    45    29    28    1
    46    29    30    1
    47    69    68   ar
    48   104   105    1
    49   104   103    1
    50    70    68   ar
    51   105   106    2
    52    68    67    1
    53    62    60   am
    54    30    31    2
    55    61    60    2
    56    65    64    1
    57    65    66    2
    58    64    67    1
    59    64    63    1
    60    60    59    1
    61    46    45   ar
    62    46    44   ar
    63    45    43   ar
    64    79    78    1
    65    44    42   ar
    66    43    42   ar
    67    53    52   ar
    68    74    75    1
    69    54    52   ar
    70    59    56    1
    71    42    41    1
    72    52    51    1
    73    92    91    1
    74    75    78    1
    75    75    76    1
    76    78    80    1
    77    56    57    1
    78    56    55    1
    79    50    49    2
    80   102   100   ar
    81   102   101   ar
    82    57    58    2
    83    41    38    1
    84    91    90   ar
    85    91    89   ar
    86    90    88   ar
    87   100    98   ar
    88    51    48    1
    89    48    49    1
    90    48    47    1
    91    76    77    2
    92   101    99   ar
    93    89    87   ar
    94    88    86   ar
    95    96    95    2
    96    81    82    1
    97    84    83    2
    98    95    94    1
    99    37    38    1
   100    38    39    1
   101    98    99   ar
   102    98    97    1
   103    87    86   ar
   104    86    85    1
   105    39    40    2
   106    83    82    1
   107    97    94    1
   108    82    85    1
   109    94    93    1
