@<TRIPOS>MOLECULE
tmp/5ybnA00.pdb
 125 115 0 0 0
SMALL
GASTEIGER

@<TRIPOS>ATOM
      1  N        242.2480  -29.3790  -10.9190 N.3    75  ARG75      -0.1245
      2  CA       241.8960  -29.8130   -9.5710 C.3    75  ARG75       0.1563
      3  C        242.6900  -31.0680   -9.2240 C.2    75  ARG75       0.2260
      4  O        242.6810  -32.0390   -9.9890 O.2    75  ARG75      -0.2867
      5  CB       240.3770  -30.0710   -9.4620 C.3    75  ARG75       0.0307
      6  CG       239.5090  -28.8210   -9.7220 C.3    75  ARG75       0.0489
      7  CD       238.0000  -29.1400   -9.7100 C.3    75  ARG75       0.2205
      8  NE       237.1490  -27.9890  -10.0580 N.pl3  75  ARG75      -0.0865
      9  CZ       236.6320  -27.7620  -11.2690 C.cat  75  ARG75       0.5346
     10  NH1      236.8770  -28.5960  -12.2700 N.pl3  75  ARG75       0.1354
     11  NH2      235.8630  -26.7010  -11.4840 N.pl3  75  ARG75       0.1354
     12  N        242.2690  -30.0140   -1.8950 N.3   119  MET119     -0.1245
     13  CA       242.2280  -29.8150   -3.3390 C.3   119  MET119      0.1570
     14  C        243.0210  -28.5890   -3.7730 C.2   119  MET119      0.2261
     15  O        242.7120  -27.4640   -3.3730 O.2   119  MET119     -0.2867
     16  CB       240.7860  -29.7040   -3.8190 C.3   119  MET119      0.0387
     17  CG       240.6380  -29.8880   -5.3100 C.3   119  MET119      0.0595
     18  SD       238.9110  -29.7280   -5.7170 S.3   119  MET119     -0.1393
     19  CE       238.3540  -31.3640   -5.2710 C.3   119  MET119      0.0692
     20  N        243.2680  -26.0840   -6.5580 N.3   121  ILE121     -0.1245
     21  CA       242.3100  -25.5770   -7.5360 C.3   121  ILE121      0.1561
     22  C        242.9810  -24.4170   -8.2660 C.2   121  ILE121      0.2260
     23  O        243.0980  -23.3160   -7.7110 O.2   121  ILE121     -0.2867
     24  CB       241.0030  -25.1170   -6.8680 C.3   121  ILE121      0.0252
     25  CG1      240.4590  -26.1950   -5.9230 C.3   121  ILE121      0.0019
     26  CG2      239.9770  -24.7490   -7.9050 C.3   121  ILE121      0.0019
     27  CD1      239.1350  -25.8550   -5.2470 C.3   121  ILE121      0.0001
     28  N        242.7950  -21.9330  -11.3560 N.3   123  VAL123     -0.1245
     29  CA       241.8450  -21.3850  -12.3160 C.3   123  VAL123      0.1561
     30  C        242.6300  -20.7890  -13.4820 C.2   123  VAL123      0.2260
     31  O        243.3600  -19.8090  -13.3160 O.2   123  VAL123     -0.2867
     32  CB       240.9450  -20.3440  -11.6490 C.3   123  VAL123      0.0252
     33  CG1      240.0790  -19.6100  -12.6850 C.3   123  VAL123      0.0019
     34  CG2      240.0930  -21.0190  -10.5760 C.3   123  VAL123      0.0019
     35  N        232.3360  -19.2140  -11.7730 N.3   130  GLN130     -0.1245
     36  CA       231.6120  -20.3620  -11.2560 C.3   130  GLN130      0.1566
     37  C        230.2780  -19.9070  -10.6670 C.2   130  GLN130      0.2260
     38  O        230.1790  -18.8140  -10.1100 O.2   130  GLN130     -0.2867
     39  CB       232.5110  -21.0480  -10.2240 C.3   130  GLN130      0.0367
     40  CG       231.9420  -22.1060   -9.3310 C.3   130  GLN130      0.0905
     41  CD       232.9650  -22.4890   -8.2940 C.2   130  GLN130      0.2608
     42  OE1      233.2290  -21.7330   -7.3650 O.2   130  GLN130     -0.2717
     43  NE2      233.5860  -23.6420   -8.4750 N.am  130  GLN130     -0.0878
     44  N        227.0050  -20.5470   -5.1230 N.3   133  HIS133     -0.1241
     45  CA       226.5650  -21.7590   -4.4440 C.3   133  HIS133      0.1621
     46  C        226.9970  -21.6970   -2.9830 C.2   133  HIS133      0.2264
     47  O        227.8210  -20.8700   -2.5930 O.2   133  HIS133     -0.2867
     48  CB       227.1350  -23.0010   -5.1270 C.3   133  HIS133      0.0745
     49  CG       228.6200  -23.1410   -4.9860 C.ar  133  HIS133      0.0817
     50  ND1      229.5130  -22.5260   -5.8360 N.ar  133  HIS133     -0.2268
     51  CD2      229.3680  -23.8270   -4.0890 C.ar  133  HIS133      0.1154
     52  CE1      230.7470  -22.8190   -5.4640 C.ar  133  HIS133      0.1986
     53  NE2      230.6870  -23.6070   -4.4050 N.ar  133  HIS133     -0.2212
     54  N        228.6380  -24.4050   -0.1040 N.3   135  ASP135     -0.1239
     55  CA       229.3450  -25.6820   -0.1720 C.3   135  ASP135      0.1674
     56  C        228.5620  -26.7900    0.5110 C.2   135  ASP135      0.2266
     57  O        228.6990  -27.9590    0.1390 O.2   135  ASP135     -0.2867
     58  CB       230.7370  -25.5710    0.4420 C.3   135  ASP135      0.1410
     59  CG       231.7280  -24.8440   -0.4670 C.2   135  ASP135      0.3668
     60  OD1      231.4720  -24.7440   -1.6900 O.co2 135  ASP135     -0.2456
     61  OD2      232.7720  -24.3870    0.0480 O.co2 135  ASP135     -0.2456
     62  N        240.5410  -21.8060    2.5770 N.3   157  PHE157     -0.1241
     63  CA       240.7890  -21.6810    1.1520 C.3   157  PHE157      0.1605
     64  C        241.9880  -20.7600    0.9980 C.2   157  PHE157      0.2264
     65  O        241.8590  -19.5420    1.1320 O.2   157  PHE157     -0.2867
     66  CB       239.5470  -21.1410    0.4600 C.3   157  PHE157      0.0534
     67  CG       239.4590  -21.4950   -0.9870 C.ar  157  PHE157     -0.0203
     68  CD1      238.8660  -22.6850   -1.3860 C.ar  157  PHE157     -0.0042
     69  CD2      239.9510  -20.6330   -1.9550 C.ar  157  PHE157     -0.0042
     70  CE1      238.7840  -23.0110   -2.7270 C.ar  157  PHE157     -0.0003
     71  CE2      239.8630  -20.9500   -3.2920 C.ar  157  PHE157     -0.0003
     72  CZ       239.2930  -22.1430   -3.6770 C.ar  157  PHE157     -0.0000
     73  N        237.8770  -15.7410   -5.3990 N.3   170  THR170     -0.1218
     74  CA       236.5080  -16.1500   -5.0840 C.3   170  THR170      0.1862
     75  C        235.6370  -14.9540   -4.7420 C.2   170  THR170      0.2287
     76  O        236.0370  -14.0660   -3.9850 O.2   170  THR170     -0.2866
     77  CB       236.4750  -17.1080   -3.8960 C.3   170  THR170      0.1770
     78  OG1      237.5920  -17.9940   -3.9520 O.3   170  THR170     -0.2211
     79  CG2      235.1810  -17.9230   -3.9230 C.3   170  THR170      0.0375
     80  N        241.0990  -17.6500    3.3780 N.3   209  TYR209     -0.1241
     81  CA       239.8670  -17.2860    4.0450 C.3   209  TYR209      0.1605
     82  C        239.2490  -18.5590    4.6000 C.2   209  TYR209      0.2264
     83  O        239.3060  -19.6170    3.9650 O.2   209  TYR209     -0.2867
     84  CB       238.8850  -16.5240    3.1220 C.3   209  TYR209      0.0534
     85  CG       238.4040  -17.2500    1.8690 C.ar  209  TYR209     -0.0201
     86  CD1      237.3060  -18.1070    1.9130 C.ar  209  TYR209     -0.0009
     87  CD2      239.0370  -17.0660    0.6420 C.ar  209  TYR209     -0.0009
     88  CE1      236.8600  -18.7720    0.7820 C.ar  209  TYR209      0.0417
     89  CE2      238.5990  -17.7340   -0.4910 C.ar  209  TYR209      0.0417
     90  CZ       237.5010  -18.5720   -0.4140 C.ar  209  TYR209      0.1957
     91  OH       237.0500  -19.2340   -1.5320 O.3   209  TYR209     -0.2866
     92  N        235.7410  -20.1710    5.4990 N.3   211  MET211     -0.1245
     93  CA       234.4000  -19.9000    4.9950 C.3   211  MET211      0.1570
     94  C        233.4280  -20.9890    5.4070 C.2   211  MET211      0.2261
     95  O        233.6660  -22.1710    5.1490 O.2   211  MET211     -0.2867
     96  CB       234.3820  -19.7620    3.4680 C.3   211  MET211      0.0387
     97  CG       232.9940  -19.4400    2.9290 C.3   211  MET211      0.0595
     98  SD       232.9150  -19.3400    1.1370 S.3   211  MET211     -0.1393
     99  CE       233.4890  -20.9550    0.6410 C.3   211  MET211      0.0692
    100  N        228.9200  -18.2100   -2.4950 N.3   217  HIS217     -0.1241
    101  CA       230.1890  -17.8110   -3.0680 C.3   217  HIS217      0.1621
    102  C        230.2980  -18.4380   -4.4460 C.2   217  HIS217      0.2264
    103  O        229.4520  -19.2340   -4.8570 O.2   217  HIS217     -0.2867
    104  CB       231.3540  -18.2430   -2.1800 C.3   217  HIS217      0.0745
    105  CG       231.5260  -19.7250   -2.1190 C.ar  217  HIS217      0.0817
    106  ND1      230.6810  -20.5390   -1.3960 N.ar  217  HIS217     -0.2268
    107  CD2      232.4180  -20.5450   -2.7210 C.ar  217  HIS217      0.1154
    108  CE1      231.0530  -21.8000   -1.5460 C.ar  217  HIS217      0.1986
    109  NE2      232.1050  -21.8320   -2.3450 N.ar  217  HIS217     -0.2212
    110  N        233.8040  -18.9790   -7.5540 N.3   219  ALA219     -0.1245
    111  CA       235.0520  -18.5460   -8.1700 C.3   219  ALA219      0.1562
    112  C        234.7850  -17.4830   -9.2260 C.2   219  ALA219      0.2260
    113  O        233.8020  -17.5480   -9.9690 O.2   219  ALA219     -0.2867
    114  CB       235.7730  -19.7330   -8.8130 C.3   219  ALA219      0.0290
    115  N        245.6980  -19.0100  -11.4260 N.3   229  ARG229     -0.1245
    116  CA       245.3990  -18.6470  -10.0390 C.3   229  ARG229      0.1563
    117  C        245.3050  -19.9190   -9.2050 C.2   229  ARG229      0.2260
    118  O        244.3090  -20.6400   -9.2610 O.2   229  ARG229     -0.2867
    119  CB       244.1080  -17.8430   -9.9760 C.3   229  ARG229      0.0307
    120  CG       243.8140  -17.2010   -8.6300 C.3   229  ARG229      0.0489
    121  CD       242.3730  -17.4670   -8.2210 C.3   229  ARG229      0.2205
    122  NE       242.1650  -18.8910   -7.9610 N.pl3 229  ARG229     -0.0865
    123  CZ       240.9990  -19.4280   -7.6240 C.cat 229  ARG229      0.5346
    124  NH1      239.9320  -18.6600   -7.5150 N.pl3 229  ARG229      0.1354
    125  NH2      240.8960  -20.7360   -7.4060 N.pl3 229  ARG229      0.1354
@<TRIPOS>BOND
     1    30    31    2
     2    30    29    1
     3    33    32    1
     4    29    32    1
     5    29    28    1
     6    10     9    1
     7    35    36    1
     8    32    34    1
     9    11     9    1
    10   115   116    1
    11     9     8    2
    12    36    37    1
    13    36    39    1
    14     1     2    1
    15    37    38    2
    16    39    40    1
    17     8     7    1
    18   116   119    1
    19   116   117    1
    20     4     3    2
    21   119   120    1
    22   113   112    2
    23     6     7    1
    24     6     5    1
    25     2     5    1
    26     2     3    1
    27    40    41    1
    28   118   117    2
    29   112   111    1
    30   114   111    1
    31   120   121    1
    32    43    41   am
    33    41    42    2
    34    22    23    2
    35    22    21    1
    36   121   122    1
    37   111   110    1
    38   122   123    2
    39    26    24    1
    40   123   124    1
    41   123   125    1
    42    21    24    1
    43    21    20    1
    44    24    25    1
    45    25    27    1
    46    50    52   ar
    47    50    49   ar
    48    18    17    1
    49    18    19    1
    50    52    53   ar
    51    73    74    1
    52    17    16    1
    53    48    49    1
    54    48    45    1
    55    44    45    1
    56    74    75    1
    57    74    77    1
    58    49    51   ar
    59   103   102    2
    60    75    76    2
    61   102   101    1
    62    45    46    1
    63    53    51   ar
    64    78    77    1
    65    79    77    1
    66    16    13    1
    67    14    15    2
    68    14    13    1
    69    72    71   ar
    70    72    70   ar
    71    13    12    1
    72    71    69   ar
    73   101   100    1
    74   101   104    1
    75    46    47    2
    76    70    68   ar
    77   107   109   ar
    78   107   105   ar
    79   109   108   ar
    80   104   105    1
    81   105   106   ar
    82    69    67   ar
    83    60    59   ar
    84   108   106   ar
    85    91    90    1
    86    68    67   ar
    87    67    66    1
    88    89    90   ar
    89    89    87   ar
    90    59    61   ar
    91    59    58    1
    92    90    88   ar
    93    55    54    1
    94    55    58    1
    95    55    56    1
    96    57    56    2
    97    66    63    1
    98    99    98    1
    99    87    85   ar
   100    88    86   ar
   101    64    65    2
   102    64    63    1
   103    98    97    1
   104    63    62    1
   105    85    86   ar
   106    85    84    1
   107    97    96    1
   108    84    81    1
   109    80    81    1
   110    96    93    1
   111    83    82    2
   112    81    82    1
   113    93    94    1
   114    93    92    1
   115    95    94    2
