@<TRIPOS>MOLECULE
tmp/5ybqA01.pdb
 169 157 0 0 0
SMALL
GASTEIGER

@<TRIPOS>ATOM
      1  N        -49.7280   37.8070   14.3680 N.3    67  SER67      -0.1202
      2  CA       -51.0860   37.3650   14.0920 C.3    67  SER67       0.2020
      3  C        -51.7500   38.0670   12.9090 C.2    67  SER67       0.2618
      4  O        -52.8210   37.6170   12.4770 O.2    67  SER67      -0.2717
      5  CB       -51.9500   37.5550   15.3500 C.3    67  SER67       0.2103
      6  OG       -53.3290   37.4290   15.0610 O.3    67  SER67      -0.2182
      7  N        -51.1320   39.1250   12.3550 N.am   68  ASN68      -0.1974
      8  CA       -51.7470   40.0130   11.3520 C.3    68  ASN68       0.1688
      9  C        -52.9620   40.7300   11.9440 C.2    68  ASN68       0.2292
     10  O        -54.0160   40.8530   11.3080 O.2    68  ASN68      -0.2864
     11  CB       -52.1090   39.2760   10.0500 C.3    68  ASN68       0.1181
     12  CG       -50.8370   38.7410    9.4020 C.2    68  ASN68       0.2629
     13  OD1      -49.7150   39.2540    9.4470 O.2    68  ASN68      -0.2716
     14  ND2      -51.0680   37.6950    8.6160 N.am   68  ASN68      -0.0877
     15  N        -59.9640   45.5310    7.8010 N.3    73  ARG73      -0.1245
     16  CA       -60.1010   45.0050    6.4490 C.3    73  ARG73       0.1563
     17  C        -61.5740   45.0740    6.0870 C.2    73  ARG73       0.2260
     18  O        -62.4010   44.4420    6.7530 O.2    73  ARG73      -0.2867
     19  CB       -59.5580   43.5680    6.3510 C.3    73  ARG73       0.0307
     20  CG       -58.0260   43.4470    6.6240 C.3    73  ARG73       0.0489
     21  CD       -57.4450   42.0180    6.4680 C.3    73  ARG73       0.2205
     22  NE       -56.0150   41.9330    6.8240 N.pl3  73  ARG73      -0.0865
     23  CZ       -55.5470   41.4570    7.9880 C.cat  73  ARG73       0.5346
     24  NH1      -54.2400   41.4160    8.2300 N.pl3  73  ARG73       0.1354
     25  NH2      -56.3820   41.0050    8.9180 N.pl3  73  ARG73       0.1354
     26  N        -61.2220   39.2540   -7.4160 N.3   114  ASN114     -0.1225
     27  CA       -61.1620   38.3770   -6.2570 C.3   114  ASN114      0.1785
     28  C        -61.6770   39.0970   -5.0170 C.2   114  ASN114      0.2597
     29  O        -62.4360   38.5260   -4.2230 O.2   114  ASN114     -0.2718
     30  CB       -59.7200   37.8920   -6.0600 C.3   114  ASN114      0.1169
     31  CG       -59.5250   37.1160   -4.7810 C.2   114  ASN114      0.2627
     32  OD1      -60.2840   36.2110   -4.4650 O.2   114  ASN114     -0.2716
     33  ND2      -58.5010   37.4720   -4.0390 N.am  114  ASN114     -0.0877
     34  N        -61.3230   40.3700   -4.8730 N.am  115  ASP115     -0.1974
     35  CA       -61.6640   41.1170   -3.6740 C.3   115  ASP115      0.1709
     36  C        -61.5040   42.6060   -3.9630 C.2   115  ASP115      0.2293
     37  O        -60.8110   43.0050   -4.9050 O.2   115  ASP115     -0.2864
     38  CB       -60.7920   40.6740   -2.4900 C.3   115  ASP115      0.1436
     39  CG       -61.4990   40.8230   -1.1610 C.2   115  ASP115      0.3671
     40  OD1      -62.2690   41.8010   -1.0130 O.co2 115  ASP115     -0.2456
     41  OD2      -61.2960   39.9610   -0.2710 O.co2 115  ASP115     -0.2456
     42  N        -60.6490   45.2920   -1.1760 N.3   117  MET117     -0.1245
     43  CA       -60.4940   45.3800    0.2720 C.3   117  MET117      0.1570
     44  C        -59.7820   46.6560    0.6940 C.2   117  MET117      0.2261
     45  O        -58.6230   46.8820    0.3250 O.2   117  MET117     -0.2867
     46  CB       -59.7430   44.1640    0.8060 C.3   117  MET117      0.0387
     47  CG       -59.7850   44.0460    2.3060 C.3   117  MET117      0.0595
     48  SD       -58.7830   42.6410    2.7730 S.3   117  MET117     -0.1393
     49  CE       -59.8860   41.3050    2.4380 C.3   117  MET117      0.0692
     50  N        -57.6900   48.1060    3.4130 N.3   119  ILE119     -0.1245
     51  CA       -56.7910   47.5440    4.4120 C.3   119  ILE119      0.1561
     52  C        -56.1600   48.7140    5.1610 C.2   119  ILE119      0.2260
     53  O        -55.2710   49.3870    4.6270 O.2   119  ILE119     -0.2867
     54  CB       -55.7090   46.6620    3.7730 C.3   119  ILE119      0.0252
     55  CG1      -56.3300   45.5930    2.8640 C.3   119  ILE119      0.0019
     56  CG2      -54.8530   46.0300    4.8420 C.3   119  ILE119      0.0019
     57  CD1      -55.3250   44.7570    2.1190 C.3   119  ILE119      0.0001
     58  N        -46.2640   42.0140    8.6230 N.3   128  GLN128     -0.1231
     59  CA       -46.9190   40.8400    8.0820 C.3   128  GLN128      0.1698
     60  C        -45.8450   39.8680    7.6170 C.2   128  GLN128      0.2592
     61  O        -44.7980   40.2860    7.1200 O.2   128  GLN128     -0.2718
     62  CB       -47.8270   41.2470    6.9180 C.3   128  GLN128      0.0381
     63  CG       -49.0720   40.4260    6.7210 C.3   128  GLN128      0.0905
     64  CD       -49.7270   40.7560    5.4220 C.2   128  GLN128      0.2608
     65  OE1      -49.0800   41.2650    4.5130 O.2   128  GLN128     -0.2717
     66  NE2      -51.0210   40.4910    5.3200 N.am  128  GLN128     -0.0878
     67  N        -46.1010   38.5750    7.7890 N.am  129  ARG129     -0.1980
     68  CA       -45.2090   37.5520    7.2580 C.3   129  ARG129      0.1597
     69  C        -44.9290   37.7860    5.7750 C.2   129  ARG129      0.2287
     70  O        -45.7990   38.2280    5.0280 O.2   129  ARG129     -0.2864
     71  CB       -45.8490   36.1760    7.4610 C.3   129  ARG129      0.0334
     72  CG       -47.2040   36.0050    6.7310 C.3   129  ARG129      0.0492
     73  CD       -47.6900   34.5420    6.7480 C.3   129  ARG129      0.2205
     74  NE       -48.7550   34.2660    5.7670 N.pl3 129  ARG129     -0.0865
     75  CZ       -48.6000   33.5420    4.6500 C.cat 129  ARG129      0.5346
     76  NH1      -49.6330   33.3620    3.8290 N.pl3 129  ARG129      0.1354
     77  NH2      -47.4180   32.9950    4.3430 N.pl3 129  ARG129      0.1354
     78  N        -44.8000   36.7830    2.0730 N.3   131  HIS131     -0.1226
     79  CA       -45.6410   35.8270    1.3610 C.3   131  HIS131      0.1752
     80  C        -45.7650   36.2120   -0.1080 C.2   131  HIS131      0.2596
     81  O        -45.4540   37.3390   -0.5090 O.2   131  HIS131     -0.2718
     82  CB       -47.0270   35.7320    1.9920 C.3   131  HIS131      0.0759
     83  CG       -47.8560   36.9680    1.8360 C.ar  131  HIS131      0.0818
     84  ND1      -47.8100   38.0140    2.7320 N.ar  131  HIS131     -0.2268
     85  CD2      -48.7790   37.3110    0.9070 C.ar  131  HIS131      0.1154
     86  CE1      -48.6570   38.9540    2.3530 C.ar  131  HIS131      0.1986
     87  NE2      -49.2570   38.5540    1.2450 N.ar  131  HIS131     -0.2212
     88  N        -46.1960   35.2430   -0.9100 N.am  132  ARG132     -0.1966
     89  CA       -46.6860   35.4970   -2.2560 C.3   132  ARG132      0.1729
     90  C        -48.2030   35.4150   -2.2270 C.2   132  ARG132      0.2616
     91  O        -48.7640   34.5090   -1.6030 O.2   132  ARG132     -0.2715
     92  CB       -46.1430   34.4790   -3.2630 C.3   132  ARG132      0.0348
     93  CG       -44.6510   34.5520   -3.5130 C.3   132  ARG132      0.0492
     94  CD       -44.2040   33.4620   -4.4710 C.3   132  ARG132      0.2205
     95  NE       -42.8050   33.6120   -4.8590 N.pl3 132  ARG132     -0.0865
     96  CZ       -41.7860   33.0320   -4.2310 C.cat 132  ARG132      0.5346
     97  NH1      -42.0090   32.2600   -3.1770 N.pl3 132  ARG132      0.1354
     98  NH2      -40.5480   33.2280   -4.6550 N.pl3 132  ARG132      0.1354
     99  N        -48.8740   36.3410   -2.9240 N.am  133  ASP133     -0.1971
    100  CA       -50.3330   36.3360   -2.8980 C.3   133  ASP133      0.1709
    101  C        -50.9220   35.0690   -3.5250 C.2   133  ASP133      0.2293
    102  O        -52.0210   34.6450   -3.1510 O.2   133  ASP133     -0.2864
    103  CB       -50.8620   37.5940   -3.5810 C.3   133  ASP133      0.1436
    104  CG       -50.8470   38.8000   -2.6540 C.2   133  ASP133      0.3671
    105  OD1      -50.6480   38.5720   -1.4400 O.co2 133  ASP133     -0.2456
    106  OD2      -51.0430   39.9550   -3.1240 O.co2 133  ASP133     -0.2456
    107  N        -50.1890   32.1520   -2.9350 N.3   135  GLU135     -0.1231
    108  CA       -50.3230   31.0930   -1.9360 C.3   135  GLU135      0.1699
    109  C        -51.7750   30.8770   -1.5700 C.2   135  GLU135      0.2592
    110  O        -52.1260   29.8400   -1.0050 O.2   135  GLU135     -0.2718
    111  CB       -49.5240   31.4370   -0.6770 C.3   135  GLU135      0.0402
    112  CG       -47.9890   31.3400   -0.8340 C.3   135  GLU135      0.1161
    113  CD       -47.2170   31.9080    0.3660 C.2   135  GLU135      0.3649
    114  OE1      -47.8030   32.0360    1.4670 O.co2 135  GLU135     -0.2457
    115  OE2      -46.0230   32.2380    0.2020 O.co2 135  GLU135     -0.2457
    116  N        -52.6220   31.8550   -1.8720 N.am  136  LEU136     -0.1980
    117  CA       -54.0560   31.6710   -1.7520 C.3   136  LEU136      0.1596
    118  C        -54.5350   30.4920   -2.5940 C.2   136  LEU136      0.2287
    119  O        -55.4770   29.7940   -2.2030 O.2   136  LEU136     -0.2864
    120  CB       -54.7610   32.9610   -2.1700 C.3   136  LEU136      0.0297
    121  CG       -56.2910   32.9750   -2.1100 C.3   136  LEU136      0.0022
    122  CD1      -56.7460   32.9130   -0.6630 C.3   136  LEU136      0.0001
    123  CD2      -56.8740   34.2040   -2.8230 C.3   136  LEU136      0.0001
    124  N        -52.8500   35.8090  -10.3760 N.3   151  LEU151     -0.1245
    125  CA       -53.3910   36.8920   -9.5720 C.3   151  LEU151      0.1561
    126  C        -52.4940   38.1110   -9.7100 C.2   151  LEU151      0.2260
    127  O        -51.2710   37.9870   -9.6920 O.2   151  LEU151     -0.2867
    128  CB       -53.4790   36.4430   -8.1050 C.3   151  LEU151      0.0270
    129  CG       -54.0220   37.3320   -6.9980 C.3   151  LEU151      0.0019
    130  CD1      -54.4890   36.4300   -5.8990 C.3   151  LEU151      0.0001
    131  CD2      -52.9470   38.2800   -6.4740 C.3   151  LEU151      0.0001
    132  N        -52.4960   42.3860   -8.1650 N.3   153  ASN153     -0.1240
    133  CA       -53.1120   43.2740   -7.2010 C.3   153  ASN153      0.1653
    134  C        -52.7460   44.6990   -7.5810 C.2   153  ASN153      0.2266
    135  O        -51.5670   44.9890   -7.8060 O.2   153  ASN153     -0.2867
    136  CB       -52.6210   42.9500   -5.7880 C.3   153  ASN153      0.1155
    137  CG       -53.7020   43.1030   -4.7470 C.2   153  ASN153      0.2627
    138  OD1      -54.1660   44.2060   -4.4670 O.2   153  ASN153     -0.2716
    139  ND2      -54.0970   41.9890   -4.1490 N.am  153  ASN153     -0.0877
    140  N        -52.5820   47.8100   -5.7560 N.3   155  PHE155     -0.1241
    141  CA       -52.5850   48.1020   -4.3320 C.3   155  PHE155      0.1605
    142  C        -52.4050   49.5970   -4.1650 C.2   155  PHE155      0.2264
    143  O        -51.3060   50.1190   -4.3530 O.2   155  PHE155     -0.2867
    144  CB       -51.4890   47.3320   -3.6110 C.3   155  PHE155      0.0534
    145  CG       -51.8110   47.0440   -2.1770 C.ar  155  PHE155     -0.0203
    146  CD1      -52.5900   45.9520   -1.8370 C.ar  155  PHE155     -0.0042
    147  CD2      -51.3420   47.8640   -1.1670 C.ar  155  PHE155     -0.0042
    148  CE1      -52.8920   45.6790   -0.5120 C.ar  155  PHE155     -0.0003
    149  CE2      -51.6470   47.6030    0.1630 C.ar  155  PHE155     -0.0003
    150  CZ       -52.4260   46.5120    0.4900 C.ar  155  PHE155     -0.0000
    151  N        -57.0940   47.5370   -1.9450 N.3   231  ALA231     -0.1245
    152  CA       -56.4990   46.4270   -2.6700 C.3   231  ALA231      0.1562
    153  C        -57.5070   45.9560   -3.7010 C.2   231  ALA231      0.2260
    154  O        -58.5660   45.4350   -3.3370 O.2   231  ALA231     -0.2867
    155  CB       -56.1250   45.3000   -1.7170 C.3   231  ALA231      0.0290
    156  N        -57.9430   43.2120   -6.1100 N.3   233  SER233     -0.1217
    157  CA       -57.3680   41.8820   -6.2780 C.3   233  SER233      0.1889
    158  C        -58.0290   41.1820   -7.4620 C.2   233  SER233      0.2288
    159  O        -59.2450   40.9540   -7.4490 O.2   233  SER233     -0.2866
    160  CB       -57.5620   41.0720   -4.9980 C.3   233  SER233      0.2089
    161  OG       -56.9690   39.7900   -5.1110 O.3   233  SER233     -0.2183
    162  N        -62.5250   35.3590   -3.4970 N.3   242  MET242     -0.1245
    163  CA       -62.7100   35.4120   -2.0510 C.3   242  MET242      0.1570
    164  C        -64.1050   35.8780   -1.6970 C.2   242  MET242      0.2261
    165  O        -64.6940   35.4180   -0.7180 O.2   242  MET242     -0.2867
    166  CB       -61.7150   36.3790   -1.4180 C.3   242  MET242      0.0387
    167  CG       -60.2420   36.0220   -1.4480 C.3   242  MET242      0.0595
    168  SD       -59.7250   34.8140   -0.2400 S.3   242  MET242     -0.1393
    169  CE       -60.4750   33.2980   -0.8700 C.3   242  MET242      0.0692
@<TRIPOS>BOND
     1   124   125    1
     2   126   127    2
     3   126   125    1
     4   125   128    1
     5   132   133    1
     6   128   129    1
     7   135   134    2
     8   134   133    1
     9   158   159    2
    10   158   157    1
    11    26    27    1
    12   133   136    1
    13   129   131    1
    14   129   130    1
    15   157   156    1
    16   157   160    1
    17    27    30    1
    18    27    28    1
    19    30    31    1
    20   136   137    1
    21   140   141    1
    22   161   160    1
    23    28    34   am
    24    28    29    2
    25    37    36    2
    26    34    35    1
    27    95    94    1
    28    95    96    2
    29    31    32    2
    30    31    33   am
    31   137   138    2
    32   137   139   am
    33    98    96    1
    34    94    93    1
    35   143   142    2
    36   141   142    1
    37   141   144    1
    38    96    97    1
    39    36    35    1
    40   153   154    2
    41   153   152    1
    42    35    38    1
    43   144   145    1
    44   103   100    1
    45   103   104    1
    46   101   102    2
    47   101   100    1
    48    93    92    1
    49   162   163    1
    50    92    89    1
    51   106   104   ar
    52   107   108    1
    53    99   100    1
    54    99    90   am
    55   123   121    1
    56   152   151    1
    57   152   155    1
    58   104   105   ar
    59   118   119    2
    60   118   117    1
    61    38    39    1
    62    89    90    1
    63    89    88    1
    64    90    91    2
    65   145   146   ar
    66   145   147   ar
    67   120   121    1
    68   120   117    1
    69   121   122    1
    70   163   164    1
    71   163   166    1
    72   108   109    1
    73   108   111    1
    74   116   117    1
    75   116   109   am
    76   146   148   ar
    77   164   165    2
    78   109   110    2
    79   167   166    1
    80   167   168    1
    81    42    43    1
    82   147   149   ar
    83    39    40   ar
    84    39    41   ar
    85    88    80   am
    86   169   168    1
    87   112   111    1
    88   112   113    1
    89   148   150   ar
    90    81    80    2
    91    80    79    1
    92   149   150   ar
    93   115   113   ar
    94    43    44    1
    95    43    46    1
    96    45    44    2
    97   113   114   ar
    98    46    47    1
    99    85    87   ar
   100    85    83   ar
   101    87    86   ar
   102    79    82    1
   103    79    78    1
   104    83    82    1
   105    83    84   ar
   106    57    55    1
   107    47    48    1
   108    86    84   ar
   109    49    48    1
   110    55    54    1
   111    50    51    1
   112    54    51    1
   113    54    56    1
   114    76    75    1
   115    77    75    1
   116    51    52    1
   117    65    64    2
   118    53    52    2
   119    75    74    2
   120    70    69    2
   121    66    64   am
   122    64    63    1
   123    74    73    1
   124    69    68    1
   125    17    16    1
   126    17    18    2
   127    19    16    1
   128    19    20    1
   129    16    15    1
   130    21    20    1
   131    21    22    1
   132    63    62    1
   133    72    73    1
   134    72    71    1
   135    22    23    2
   136    62    59    1
   137    61    60    2
   138    68    71    1
   139    68    67    1
   140    60    67   am
   141    60    59    1
   142    23    24    1
   143    23    25    1
   144    59    58    1
   145    14    12   am
   146    12    13    2
   147    12    11    1
   148    11     8    1
   149    10     9    2
   150     8     9    1
   151     8     7    1
   152     7     3   am
   153     4     3    2
   154     3     2    1
   155     2     1    1
   156     2     5    1
   157     6     5    1
