@<TRIPOS>MOLECULE
tmp/5ybsB01.pdb
 166 154 0 0 0
SMALL
GASTEIGER

@<TRIPOS>ATOM
      1  N        101.9610  216.2840   30.9990 N.3    67  ASN67      -0.1225
      2  CA       101.7420  216.8400   29.6660 C.3    67  ASN67       0.1785
      3  C        103.0430  216.7970   28.8490 C.2    67  ASN67       0.2598
      4  O        104.1420  216.5560   29.3700 O.2    67  ASN67      -0.2718
      5  CB       101.1870  218.2760   29.7670 C.3    67  ASN67       0.1169
      6  CG       102.1060  219.2550   30.4300 C.2    67  ASN67       0.2627
      7  OD1      103.2850  218.9730   30.6160 O.2    67  ASN67      -0.2716
      8  ND2      101.5770  220.4380   30.7200 N.am   67  ASN67      -0.0877
      9  N        102.9050  217.0110   27.5370 N.am   68  SER68      -0.1938
     10  CA       104.0500  217.1030   26.6340 C.3    68  SER68       0.2055
     11  C        104.6490  218.4960   26.6080 C.2    68  SER68       0.2643
     12  O        105.5390  218.7680   25.7940 O.2    68  SER68      -0.2714
     13  CB       103.6500  216.6860   25.2140 C.3    68  SER68       0.2130
     14  OG       103.3780  215.2920   25.1240 O.3    68  SER68      -0.2179
     15  N        104.1690  219.3820   27.4730 N.am   69  ASN69      -0.1971
     16  CA       104.6950  220.7280   27.5950 C.3    69  ASN69       0.1688
     17  C        105.5450  220.9080   28.8430 C.2    69  ASN69       0.2292
     18  O        105.9890  222.0300   29.1180 O.2    69  ASN69      -0.2864
     19  CB       103.5390  221.7370   27.5950 C.3    69  ASN69       0.1181
     20  CG       102.7640  221.7360   26.2850 C.2    69  ASN69       0.2629
     21  OD1      103.3520  221.8740   25.2070 O.2    69  ASN69      -0.2716
     22  ND2      101.4430  221.5580   26.3670 N.am   69  ASN69      -0.0877
     23  N        108.0570  224.3090   22.2400 N.3    74  ARG74      -0.1245
     24  CA       107.5450  224.0070   20.9070 C.3    74  ARG74       0.1563
     25  C        107.1650  225.2970   20.1870 C.2    74  ARG74       0.2260
     26  O        106.6230  226.2210   20.7980 O.2    74  ARG74      -0.2867
     27  CB       106.3440  223.0410   20.9840 C.3    74  ARG74       0.0307
     28  CG       106.6630  221.7080   21.6820 C.3    74  ARG74       0.0489
     29  CD       105.4100  220.9010   21.9920 C.3    74  ARG74       0.2205
     30  NE       105.6580  219.7590   22.8720 N.pl3  74  ARG74      -0.0865
     31  CZ       105.9470  218.5260   22.4510 C.cat  74  ARG74       0.5346
     32  NH1      106.1460  217.5520   23.3290 N.pl3  74  ARG74       0.1354
     33  NH2      106.0430  218.2600   21.1530 N.pl3  74  ARG74       0.1354
     34  N        101.2470  219.0020    7.6660 N.3   115  ASN115     -0.1225
     35  CA       100.4960  219.0720    8.9070 C.3   115  ASN115      0.1785
     36  C        101.0820  220.1280    9.8480 C.2   115  ASN115      0.2597
     37  O        100.3430  220.9430   10.4110 O.2   115  ASN115     -0.2718
     38  CB       100.4810  217.6860    9.5630 C.3   115  ASN115      0.1169
     39  CG        99.9100  217.7020   10.9660 C.2   115  ASN115      0.2627
     40  OD1       98.8730  218.3050   11.2250 O.2   115  ASN115     -0.2716
     41  ND2      100.5930  217.0340   11.8830 N.am  115  ASN115     -0.0877
     42  N        102.4050  220.1440   10.0170 N.am  116  ASP116     -0.1974
     43  CA       103.0270  221.0660   10.9620 C.3   116  ASP116      0.1709
     44  C        104.4780  221.3070   10.5650 C.2   116  ASP116      0.2293
     45  O        105.0690  220.5370    9.7990 O.2   116  ASP116     -0.2864
     46  CB       102.9450  220.5360   12.4060 C.3   116  ASP116      0.1436
     47  CG       102.8500  221.6540   13.4450 C.2   116  ASP116      0.3671
     48  OD1      103.5280  222.7080   13.3030 O.co2 116  ASP116     -0.2456
     49  OD2      102.0740  221.4790   14.4080 O.co2 116  ASP116     -0.2456
     50  N        107.2360  222.1160   13.2250 N.3   118  MET118     -0.1245
     51  CA       107.4210  222.3140   14.6540 C.3   118  MET118      0.1570
     52  C        108.8790  222.1430   15.0420 C.2   118  MET118      0.2261
     53  O        109.5210  221.1620   14.6560 O.2   118  MET118     -0.2867
     54  CB       106.5550  221.3530   15.4640 C.3   118  MET118      0.0387
     55  CG       106.5700  221.6720   16.9360 C.3   118  MET118      0.0595
     56  SD       105.3450  220.7650   17.8830 S.3   118  MET118     -0.1393
     57  CE       103.8360  221.5720   17.3510 C.3   118  MET118      0.0692
     58  N        111.0140  221.4930   18.3380 N.3   120  ILE120     -0.1245
     59  CA       110.7820  220.9130   19.6630 C.3   120  ILE120      0.1561
     60  C        112.1140  220.8860   20.4100 C.2   120  ILE120      0.2260
     61  O        113.0740  220.2460   19.9570 O.2   120  ILE120     -0.2867
     62  CB       110.1730  219.5010   19.5690 C.3   120  ILE120      0.0252
     63  CG1      108.9470  219.4870   18.6530 C.3   120  ILE120      0.0019
     64  CG2      109.7670  218.9970   20.9340 C.3   120  ILE120      0.0019
     65  CD1      108.3860  218.1050   18.3810 C.3   120  ILE120      0.0001
     66  N        108.6200  211.5730   27.4890 N.3   129  GLN129     -0.1245
     67  CA       107.2920  211.7620   26.9200 C.3   129  GLN129      0.1566
     68  C        106.5690  210.4300   26.7790 C.2   129  GLN129      0.2260
     69  O        107.1720  209.4180   26.4090 O.2   129  GLN129     -0.2867
     70  CB       107.3890  212.4440   25.5560 C.3   129  GLN129      0.0367
     71  CG       106.0910  212.4540   24.7700 C.3   129  GLN129      0.0905
     72  CD       106.2880  212.9370   23.3540 C.2   129  GLN129      0.2608
     73  OE1      107.2980  212.6310   22.7160 O.2   129  GLN129     -0.2717
     74  NE2      105.3310  213.7080   22.8540 N.am  129  GLN129     -0.0878
     75  N        103.4920  206.8590   22.2160 N.3   132  HIS132     -0.1226
     76  CA       102.3070  207.1220   21.4150 C.3   132  HIS132      0.1752
     77  C        102.6180  206.8680   19.9490 C.2   132  HIS132      0.2596
     78  O        103.7800  206.8640   19.5290 O.2   132  HIS132     -0.2718
     79  CB       101.8220  208.5660   21.6070 C.3   132  HIS132      0.0759
     80  CG       102.7780  209.5900   21.0760 C.ar  132  HIS132      0.0818
     81  ND1      103.8320  210.0800   21.8180 N.ar  132  HIS132     -0.2268
     82  CD2      102.8650  210.1840   19.8620 C.ar  132  HIS132      0.1154
     83  CE1      104.5160  210.9430   21.0880 C.ar  132  HIS132      0.1986
     84  NE2      103.9500  211.0240   19.8970 N.ar  132  HIS132     -0.2212
     85  N        101.5500  206.6480   19.1800 N.am  133  ARG133     -0.1966
     86  CA       101.5860  206.7640   17.7280 C.3   133  ARG133      0.1729
     87  C        101.1160  208.1630   17.3330 C.2   133  ARG133      0.2616
     88  O        100.1800  208.7100   17.9290 O.2   133  ARG133     -0.2715
     89  CB       100.7250  205.6810   17.0620 C.3   133  ARG133      0.0348
     90  CG       101.2760  204.2760   17.2610 C.3   133  ARG133      0.0492
     91  CD       100.3330  203.2010   16.7690 C.3   133  ARG133      0.2205
     92  NE       100.9280  201.8600   16.7740 N.pl3 133  ARG133     -0.0865
     93  CZ       100.6650  200.9210   17.6870 C.cat 133  ARG133      0.5346
     94  NH1       99.8060  201.1680   18.6820 N.pl3 133  ARG133      0.1354
     95  NH2      101.2480  199.7270   17.6050 N.pl3 133  ARG133      0.1354
     96  N        101.7970  208.7580   16.3510 N.am  134  ASP134     -0.1971
     97  CA       101.3840  210.0750   15.8670 C.3   134  ASP134      0.1709
     98  C         99.9600  210.0470   15.3280 C.2   134  ASP134      0.2293
     99  O         99.1830  210.9800   15.5580 O.2   134  ASP134     -0.2864
    100  CB       102.3480  210.5620   14.7870 C.3   134  ASP134      0.1436
    101  CG       103.5370  211.2810   15.3630 C.2   134  ASP134      0.3671
    102  OD1      103.4340  211.6900   16.5350 O.co2 134  ASP134     -0.2456
    103  OD2      104.5560  211.4460   14.6500 O.co2 134  ASP134     -0.2456
    104  N         97.5600  208.9130   16.4520 N.3   136  GLU136     -0.1231
    105  CA        96.5570  209.1600   17.4780 C.3   136  GLU136      0.1699
    106  C         96.0010  210.5630   17.3580 C.2   136  GLU136      0.2592
    107  O         94.9390  210.8540   17.9180 O.2   136  GLU136     -0.2718
    108  CB        97.1420  208.9180   18.8710 C.3   136  GLU136      0.0402
    109  CG        97.5520  207.4580   19.1130 C.3   136  GLU136      0.1161
    110  CD        98.3510  207.2260   20.4060 C.2   136  GLU136      0.3649
    111  OE1       99.2130  206.3190   20.4460 O.co2 136  GLU136     -0.2457
    112  OE2       98.1460  207.9550   21.3930 O.co2 136  GLU136     -0.2457
    113  N         96.6820  211.4190   16.5990 N.am  137  LEU137     -0.1980
    114  CA        96.1290  212.7200   16.2540 C.3   137  LEU137      0.1596
    115  C         94.7850  212.5770   15.5420 C.2   137  LEU137      0.2287
    116  O         93.8520  213.3430   15.8030 O.2   137  LEU137     -0.2864
    117  CB        97.1330  213.4720   15.3890 C.3   137  LEU137      0.0297
    118  CG        96.6510  214.8420   14.9380 C.3   137  LEU137      0.0022
    119  CD1       96.2180  215.6560   16.1570 C.3   137  LEU137      0.0001
    120  CD2       97.7320  215.5560   14.1450 C.3   137  LEU137      0.0001
    121  N        100.0200  209.7280    8.1210 N.3   152  LEU152     -0.1245
    122  CA       100.9550  210.7260    8.6150 C.3   152  LEU152      0.1561
    123  C        102.3640  210.1560    8.5760 C.2   152  LEU152      0.2260
    124  O        102.5750  208.9780    8.8790 O.2   152  LEU152     -0.2867
    125  CB       100.5920  211.1450   10.0490 C.3   152  LEU152      0.0270
    126  CG       101.1920  212.4360   10.6190 C.3   152  LEU152      0.0019
    127  CD1      100.2470  213.0520   11.6370 C.3   152  LEU152      0.0001
    128  CD2      102.5350  212.1730   11.2600 C.3   152  LEU152      0.0001
    129  N        106.5620  211.6520    9.5570 N.3   154  ASN154     -0.1240
    130  CA       107.3630  212.6810   10.1900 C.3   154  ASN154      0.1653
    131  C        108.7700  212.5810    9.6410 C.2   154  ASN154      0.2266
    132  O        109.3610  211.4980    9.6550 O.2   154  ASN154     -0.2867
    133  CB       107.3860  212.4910   11.7010 C.3   154  ASN154      0.1155
    134  CG       106.9520  213.7130   12.4510 C.2   154  ASN154      0.2627
    135  OD1      107.4310  214.8230   12.2130 O.2   154  ASN154     -0.2716
    136  ND2      106.0370  213.5170   13.3820 N.am  154  ASN154     -0.0877
    137  N        111.7440  213.7780   11.0620 N.3   156  PHE156     -0.1241
    138  CA       112.1290  214.2870   12.3720 C.3   156  PHE156      0.1605
    139  C        113.6270  214.5520   12.3520 C.2   156  PHE156      0.2264
    140  O        114.4280  213.6160   12.3010 O.2   156  PHE156     -0.2867
    141  CB       111.7520  213.2950   13.4630 C.3   156  PHE156      0.0534
    142  CG       111.4970  213.9290   14.7820 C.ar  156  PHE156     -0.0203
    143  CD1      110.2920  214.5530   15.0380 C.ar  156  PHE156     -0.0042
    144  CD2      112.4620  213.9070   15.7720 C.ar  156  PHE156     -0.0042
    145  CE1      110.0530  215.1460   16.2610 C.ar  156  PHE156     -0.0003
    146  CE2      112.2320  214.4890   17.0010 C.ar  156  PHE156     -0.0003
    147  CZ       111.0320  215.1150   17.2440 C.ar  156  PHE156     -0.0000
    148  N        110.4700  219.0190   13.2620 N.3   230  ALA230     -0.1245
    149  CA       109.5410  217.9920   12.7860 C.3   230  ALA230      0.1562
    150  C        108.7980  218.4780   11.5450 C.2   230  ALA230      0.2260
    151  O        108.0580  219.4670   11.6080 O.2   230  ALA230     -0.2867
    152  CB       108.5350  217.6210   13.8750 C.3   230  ALA230      0.0290
    153  N        105.9560  217.4100    9.7540 N.3   232  SER232     -0.1217
    154  CA       104.7610  216.5820    9.7150 C.3   232  SER232      0.1889
    155  C        104.0450  216.7430    8.3800 C.2   232  SER232      0.2288
    156  O        103.7190  217.8630    7.9780 O.2   232  SER232     -0.2866
    157  CB       103.8360  216.9700   10.8560 C.3   232  SER232      0.2089
    158  OG       103.5320  215.8370   11.6280 O.3   232  SER232     -0.2183
    159  N         97.1390  220.6240   11.5300 N.3   241  MET241     -0.1245
    160  CA        97.1310  221.2100   12.8650 C.3   241  MET241      0.1570
    161  C         97.3740  222.7040   12.8250 C.2   241  MET241      0.2261
    162  O         96.8490  223.4380   13.6710 O.2   241  MET241     -0.2867
    163  CB        98.1870  220.5550   13.7440 C.3   241  MET241      0.0387
    164  CG        97.8160  219.1830   14.2090 C.3   241  MET241      0.0595
    165  SD        97.7920  219.1540   16.0050 S.3   241  MET241     -0.1393
    166  CE        96.2390  219.9590   16.3530 C.3   241  MET241      0.0692
@<TRIPOS>BOND
     1    34    35    1
     2   156   155    2
     3   121   122    1
     4   155   154    1
     5   123   122    1
     6   123   124    2
     7   122   125    1
     8    35    38    1
     9    35    36    1
    10   129   130    1
    11    38    39    1
    12   131   132    2
    13   131   130    1
    14   154   153    1
    15   154   157    1
    16    45    44    2
    17    36    42   am
    18    36    37    2
    19    42    43    1
    20   125   126    1
    21   130   133    1
    22    44    43    1
    23   126   128    1
    24   126   127    1
    25   157   158    1
    26    43    46    1
    27    39    40    2
    28    39    41   am
    29   137   138    1
    30   159   160    1
    31   150   151    2
    32   150   149    1
    33   133   134    1
    34   135   134    2
    35   140   139    2
    36   139   138    1
    37   138   141    1
    38    46    47    1
    39   134   136   am
    40   149   148    1
    41   149   152    1
    42   161   160    1
    43   161   162    2
    44   160   163    1
    45    50    51    1
    46    48    47   ar
    47    47    49   ar
    48   141   142    1
    49   163   164    1
    50   120   118    1
    51   164   165    1
    52   103   101   ar
    53    51    52    1
    54    51    54    1
    55    53    52    2
    56   142   143   ar
    57   142   144   ar
    58   100   101    1
    59   100    97    1
    60   118   117    1
    61   118   119    1
    62   143   145   ar
    63    98    99    2
    64    98    97    1
    65   101   102   ar
    66   117   114    1
    67    54    55    1
    68   115   116    2
    69   115   114    1
    70   144   146   ar
    71    97    96    1
    72   165   166    1
    73   114   113    1
    74   145   147   ar
    75    96    87   am
    76   104   105    1
    77   113   106   am
    78    91    92    1
    79    91    90    1
    80    92    93    2
    81    55    56    1
    82   146   147   ar
    83    89    90    1
    84    89    86    1
    85    87    86    1
    86    87    88    2
    87    57    56    1
    88   106   105    1
    89   106   107    2
    90   105   108    1
    91    95    93    1
    92    93    94    1
    93    86    85    1
    94    58    59    1
    95    65    63    1
    96    63    62    1
    97   108   109    1
    98   109   110    1
    99    85    77   am
   100    78    77    2
   101    62    59    1
   102    62    64    1
   103    59    60    1
   104    82    84   ar
   105    82    80   ar
   106    84    83   ar
   107    77    76    1
   108    61    60    2
   109    25    26    2
   110    25    24    1
   111   110   111   ar
   112   110   112   ar
   113    24    27    1
   114    24    23    1
   115    27    28    1
   116    80    79    1
   117    80    81   ar
   118    83    81   ar
   119    33    31    1
   120    76    79    1
   121    76    75    1
   122    28    29    1
   123    29    30    1
   124    31    30    2
   125    31    32    1
   126    73    72    2
   127    74    72   am
   128    72    71    1
   129    71    70    1
   130    14    13    1
   131    21    20    2
   132    13    10    1
   133    70    67    1
   134    12    11    2
   135    20    22   am
   136    20    19    1
   137    69    68    2
   138    11    10    1
   139    11    15   am
   140    10     9    1
   141    68    67    1
   142    67    66    1
   143    15    16    1
   144     9     3   am
   145    16    19    1
   146    16    17    1
   147    17    18    2
   148     3     4    2
   149     3     2    1
   150     2     5    1
   151     2     1    1
   152     5     6    1
   153     6     7    2
   154     6     8   am
