@<TRIPOS>MOLECULE
tmp/5yc6A01.pdb
 95 94 0 0 0
SMALL
GASTEIGER

@<TRIPOS>ATOM
      1  N        -47.8500  -24.2430    1.5050 N.3   131  PHE131     -0.1227
      2  CA       -47.2500  -24.6120    2.7880 C.3   131  PHE131      0.1736
      3  C        -47.2130  -26.1310    2.9060 C.2   131  PHE131      0.2596
      4  O        -48.0930  -26.8340    2.3960 O.2   131  PHE131     -0.2718
      5  CB       -47.9460  -23.9610    4.0000 C.3   131  PHE131      0.0547
      6  CG       -49.3600  -24.4300    4.2390 C.ar  131  PHE131     -0.0202
      7  CD1      -49.6180  -25.6060    4.9440 C.ar  131  PHE131     -0.0042
      8  CD2      -50.4430  -23.6680    3.7960 C.ar  131  PHE131     -0.0042
      9  CE1      -50.9230  -26.0270    5.1700 C.ar  131  PHE131     -0.0003
     10  CE2      -51.7480  -24.0850    4.0200 C.ar  131  PHE131     -0.0003
     11  CZ       -51.9880  -25.2640    4.7080 C.ar  131  PHE131     -0.0000
     12  N        -46.1630  -26.6280    3.5460 N.am  132  GLY132     -0.1957
     13  CA       -45.9150  -28.0560    3.6430 C.3   132  GLY132      0.1869
     14  C        -45.0300  -28.6120    2.5430 C.2   132  GLY132      0.2309
     15  O        -44.5740  -29.7410    2.6430 O.2   132  GLY132     -0.2863
     16  N        -39.4540  -27.8030    5.2100 N.3   160  LYS160     -0.1231
     17  CA       -40.8130  -27.6110    4.6900 C.3   160  LYS160      0.1693
     18  C        -41.2970  -26.1940    4.9130 C.2   160  LYS160      0.2592
     19  O        -41.0880  -25.6140    5.9780 O.2   160  LYS160     -0.2718
     20  CB       -41.7970  -28.5870    5.3440 C.3   160  LYS160      0.0285
     21  CG       -41.5330  -30.0420    4.9830 C.3   160  LYS160      0.0035
     22  CD       -42.6530  -30.9640    5.4600 C.3   160  LYS160      0.0206
     23  CE       -42.4420  -32.4140    5.0290 C.3   160  LYS160      0.1093
     24  NZ       -43.5770  -33.2980    5.4260 N.3   160  LYS160     -0.1314
     25  N        -41.9800  -25.6550    3.9070 N.am  161  LEU161     -0.1966
     26  CA       -42.4930  -24.2920    3.9870 C.3   161  LEU161      0.1728
     27  C        -43.6410  -24.1980    4.9870 C.2   161  LEU161      0.2616
     28  O        -44.4870  -25.0910    5.0800 O.2   161  LEU161     -0.2715
     29  CB       -42.9510  -23.7900    2.6180 C.3   161  LEU161      0.0311
     30  CG       -41.9310  -23.8420    1.4840 C.3   161  LEU161      0.0022
     31  CD1      -42.5350  -23.2090    0.2370 C.3   161  LEU161      0.0001
     32  CD2      -40.5980  -23.2020    1.8580 C.3   161  LEU161      0.0001
     33  N        -43.6400  -23.1030    5.7350 N.am  162  ILE162     -0.1977
     34  CA       -44.6190  -22.8300    6.7740 C.3   162  ILE162      0.1596
     35  C        -45.4470  -21.6240    6.3320 C.2   162  ILE162      0.2287
     36  O        -44.9030  -20.6710    5.7820 O.2   162  ILE162     -0.2864
     37  CB       -43.8880  -22.5310    8.1040 C.3   162  ILE162      0.0276
     38  CG1      -43.1610  -23.7880    8.5930 C.3   162  ILE162      0.0022
     39  CG2      -44.8470  -22.0100    9.1670 C.3   162  ILE162      0.0022
     40  CD1      -42.2070  -23.5500    9.7350 C.3   162  ILE162      0.0001
     41  N        -48.9850  -19.4100   10.5350 N.3   166  GLU166     -0.1245
     42  CA       -48.2800  -20.1930   11.5450 C.3   166  GLU166      0.1567
     43  C        -47.0470  -19.4420   12.0300 C.2   166  GLU166      0.2260
     44  O        -46.7930  -19.3660   13.2360 O.2   166  GLU166     -0.2867
     45  CB       -47.8850  -21.5660   10.9980 C.3   166  GLU166      0.0388
     46  CG       -47.2670  -22.5010   12.0370 C.3   166  GLU166      0.1160
     47  CD       -46.8050  -23.8300   11.4630 C.2   166  GLU166      0.3649
     48  OE1      -47.3900  -24.3080   10.4710 O.co2 166  GLU166     -0.2457
     49  OE2      -45.8460  -24.4060   12.0160 O.co2 166  GLU166     -0.2457
     50  N        -43.9180  -18.1570   17.6400 N.3   172  TYR172     -0.1241
     51  CA       -42.9460  -18.2810   16.5780 C.3   172  TYR172      0.1605
     52  C        -42.2890  -16.9180   16.5180 C.2   172  TYR172      0.2264
     53  O        -41.5260  -16.6090   17.3700 O.2   172  TYR172     -0.2867
     54  CB       -43.6130  -18.7250   15.2750 C.3   172  TYR172      0.0534
     55  CG       -43.9100  -20.2240   15.0660 C.ar  172  TYR172     -0.0201
     56  CD1      -44.4870  -20.9770   16.0330 C.ar  172  TYR172     -0.0009
     57  CD2      -43.5850  -20.8520   13.8870 C.ar  172  TYR172     -0.0009
     58  CE1      -44.7540  -22.2890   15.8330 C.ar  172  TYR172      0.0417
     59  CE2      -43.8520  -22.1610   13.6560 C.ar  172  TYR172      0.0417
     60  CZ       -44.4400  -22.9020   14.6470 C.ar  172  TYR172      0.1957
     61  OH       -44.7350  -24.2020   14.4310 O.3   172  TYR172     -0.2866
     62  N        -39.0590  -24.9790    8.0030 N.3   185  ALA185     -0.1231
     63  CA       -38.4750  -25.7690    9.0840 C.3   185  ALA185      0.1694
     64  C        -38.7460  -27.2500    8.8900 C.2   185  ALA185      0.2592
     65  O        -39.5530  -27.6640    8.0550 O.2   185  ALA185     -0.2718
     66  CB       -39.0240  -25.3230   10.4270 C.3   185  ALA185      0.0304
     67  N        -38.0440  -28.0470    9.6860 N.am  186  ASP186     -0.1960
     68  CA       -38.2490  -29.4810    9.7320 C.3   186  ASP186      0.1825
     69  C        -39.3870  -29.7910   10.7090 C.2   186  ASP186      0.2464
     70  O        -39.4830  -29.1340   11.7430 O.2   186  ASP186     -0.2730
     71  CB       -36.9570  -30.1560   10.1730 C.3   186  ASP186      0.1450
     72  CG       -37.0890  -31.6590   10.2420 C.2   186  ASP186      0.3671
     73  OD1      -37.0490  -32.3170    9.1970 O.co2 186  ASP186     -0.2456
     74  OD2      -37.2760  -32.1780   11.3550 O.co2 186  ASP186     -0.2456
     75  N        -40.2390  -30.8000   10.4130 N.am  187  PRO187     -0.2727
     76  CA       -41.3120  -31.1240   11.3620 C.3   187  PRO187      0.1402
     77  C        -40.8390  -31.5020   12.7760 C.2   187  PRO187      0.2269
     78  O        -41.5580  -31.2420   13.7390 O.2   187  PRO187     -0.2865
     79  CB       -42.0100  -32.3130   10.7010 C.3   187  PRO187      0.0296
     80  CG       -41.7990  -32.1040    9.2500 C.3   187  PRO187      0.0237
     81  CD       -40.4070  -31.5300    9.1440 C.3   187  PRO187      0.0939
     82  N        -37.8940  -30.2410   13.8660 N.3   189  TRP189     -0.1241
     83  CA       -36.9380  -29.1540   14.1560 C.3   189  TRP189      0.1605
     84  C        -35.4820  -29.6130   14.1690 C.2   189  TRP189      0.2264
     85  O        -34.6430  -28.9680   14.7880 O.2   189  TRP189     -0.2867
     86  CB       -37.2900  -28.4620   15.4860 C.3   189  TRP189      0.0550
     87  CG       -38.7140  -28.0740   15.5600 C.ar  189  TRP189      0.0003
     88  CD1      -39.7140  -28.7430   16.2010 C.ar  189  TRP189      0.0946
     89  CD2      -39.3160  -26.9320   14.9480 C.ar  189  TRP189      0.0152
     90  NE1      -40.9040  -28.0780   16.0350 N.ar  189  TRP189     -0.2442
     91  CE2      -40.6890  -26.9620   15.2690 C.ar  189  TRP189      0.0810
     92  CE3      -38.8220  -25.8710   14.1790 C.ar  189  TRP189      0.0012
     93  CZ2      -41.5850  -25.9710   14.8340 C.ar  189  TRP189      0.0191
     94  CZ3      -39.7080  -24.8880   13.7410 C.ar  189  TRP189      0.0001
     95  CH2      -41.0760  -24.9460   14.0750 C.ar  189  TRP189      0.0015
@<TRIPOS>BOND
     1    31    30    1
     2    30    32    1
     3    30    29    1
     4     1     2    1
     5     4     3    2
     6    14    15    2
     7    14    13    1
     8    29    26    1
     9     2     3    1
    10     2     5    1
    11     3    12   am
    12    12    13    1
    13     8    10   ar
    14     8     6   ar
    15    25    26    1
    16    25    18   am
    17    26    27    1
    18     5     6    1
    19    10    11   ar
    20     6     7   ar
    21    17    18    1
    22    17    16    1
    23    17    20    1
    24    11     9   ar
    25    18    19    2
    26     7     9   ar
    27    21    20    1
    28    21    22    1
    29    27    28    2
    30    27    33   am
    31    23    24    1
    32    23    22    1
    33    33    34    1
    34    36    35    2
    35    35    34    1
    36    34    37    1
    37    62    63    1
    38    65    64    2
    39    37    38    1
    40    37    39    1
    41    38    40    1
    42    64    63    1
    43    64    67   am
    44    63    66    1
    45    81    80    1
    46    81    75    1
    47    73    72   ar
    48    80    79    1
    49    67    68    1
    50    68    71    1
    51    68    69    1
    52    71    72    1
    53    72    74   ar
    54    75    69   am
    55    75    76    1
    56    48    47   ar
    57    41    42    1
    58    79    76    1
    59    69    70    2
    60    45    42    1
    61    45    46    1
    62    76    77    1
    63    47    49   ar
    64    47    46    1
    65    42    43    1
    66    43    44    2
    67    77    78    2
    68    59    57   ar
    69    59    60   ar
    70    94    95   ar
    71    94    92   ar
    72    82    83    1
    73    57    55   ar
    74    95    93   ar
    75    83    84    1
    76    83    86    1
    77    84    85    2
    78    92    89   ar
    79    61    60    1
    80    60    58   ar
    81    93    91   ar
    82    89    91   ar
    83    89    87   ar
    84    55    54    1
    85    55    56   ar
    86    91    90   ar
    87    54    51    1
    88    86    87    1
    89    87    88   ar
    90    58    56   ar
    91    90    88   ar
    92    52    51    1
    93    52    53    2
    94    51    50    1
