@<TRIPOS>MOLECULE
tmp/5yc7A00.pdb
 111 109 0 0 0
SMALL
GASTEIGER

@<TRIPOS>ATOM
      1  N        -27.8900   -7.8320    3.3360 N.3    46  HIS46      -0.1241
      2  CA       -27.3090   -7.6670    4.6380 C.3    46  HIS46       0.1621
      3  C        -25.9090   -8.2020    4.7490 C.2    46  HIS46       0.2264
      4  O        -25.1680   -7.7700    5.5730 O.2    46  HIS46      -0.2867
      5  CB       -28.2360   -8.1350    5.7510 C.3    46  HIS46       0.0745
      6  CG       -28.0870   -9.5650    6.1410 C.ar   46  HIS46       0.0817
      7  ND1      -29.0450  -10.4990    5.8580 N.ar   46  HIS46      -0.2268
      8  CD2      -27.1380  -10.2070    6.8520 C.ar   46  HIS46       0.1154
      9  CE1      -28.6820  -11.6620    6.3500 C.ar   46  HIS46       0.1986
     10  NE2      -27.5260  -11.5130    6.9550 N.ar   46  HIS46      -0.2212
     11  N        -35.0450   -8.0960    8.5610 N.3    94  HIS94      -0.1241
     12  CA       -34.3980   -7.3200    7.5300 C.3    94  HIS94       0.1621
     13  C        -35.3950   -7.2450    6.4360 C.2    94  HIS94       0.2264
     14  O        -36.0880   -8.1870    6.2290 O.2    94  HIS94      -0.2867
     15  CB       -33.1640   -8.0130    6.9970 C.3    94  HIS94       0.0745
     16  CG       -32.1140   -8.2590    8.0190 C.ar   94  HIS94       0.0817
     17  ND1      -30.9290   -7.5680    8.0450 N.ar   94  HIS94      -0.2268
     18  CD2      -32.0530   -9.1430    9.0300 C.ar   94  HIS94       0.1154
     19  CE1      -30.1860   -8.0080    9.0350 C.ar   94  HIS94       0.1986
     20  NE2      -30.8460   -8.9640    9.6490 N.ar   94  HIS94      -0.2212
     21  N        -32.4430  -26.1070   11.1350 N.3   192  ASP192     -0.1225
     22  CA       -32.6330  -24.7060   10.7410 C.3   192  ASP192      0.1805
     23  C        -31.3720  -24.1420   10.0910 C.2   192  ASP192      0.2598
     24  O        -30.2870  -24.7040   10.2370 O.2   192  ASP192     -0.2718
     25  CB       -32.9770  -23.8590   11.9910 C.3   192  ASP192      0.1424
     26  CG       -33.6650  -22.5380   11.6600 C.2   192  ASP192      0.3668
     27  OD1      -33.9160  -22.2310   10.4790 O.co2 192  ASP192     -0.2456
     28  OD2      -33.9500  -21.7840   12.6180 O.co2 192  ASP192     -0.2456
     29  N        -31.5120  -23.0280    9.3790 N.am  193  SER193     -0.1938
     30  CA       -30.3550  -22.2290    8.9940 C.3   193  SER193      0.2055
     31  C        -29.7990  -21.5320   10.2430 C.2   193  SER193      0.2643
     32  O        -30.4660  -21.4740   11.2770 O.2   193  SER193     -0.2714
     33  CB       -30.7500  -21.2010    7.9420 C.3   193  SER193      0.2130
     34  OG       -31.8660  -20.4490    8.3740 O.3   193  SER193     -0.2179
     35  N        -28.5770  -21.0270   10.1530 N.am  194  CYS194     -0.1953
     36  CA       -27.9530  -20.3010   11.2590 C.3   194  CYS194      0.1843
     37  C        -26.9920  -19.2460   10.7120 C.2   194  CYS194      0.2625
     38  O        -26.8930  -19.0720    9.4990 O.2   194  CYS194     -0.2714
     39  CB       -27.2440  -21.2880   12.1980 C.3   194  CYS194      0.0997
     40  SG       -26.9420  -20.6810   13.8780 S.3   194  CYS194     -0.0797
     41  N        -26.2920  -18.5390   11.5970 N.am  195  GLN195     -0.1963
     42  CA       -25.3320  -17.5070   11.1870 C.3   195  GLN195      0.1733
     43  C        -24.3220  -18.0590   10.1910 C.2   195  GLN195      0.2616
     44  O        -23.7440  -19.1100   10.4260 O.2   195  GLN195     -0.2715
     45  CB       -24.5770  -16.9450   12.4040 C.3   195  GLN195      0.0408
     46  CG       -23.4810  -15.9320   12.0630 C.3   195  GLN195      0.0908
     47  CD       -22.8220  -15.3270   13.2980 C.2   195  GLN195      0.2608
     48  OE1      -23.1200  -15.7070   14.4330 O.2   195  GLN195     -0.2717
     49  NE2      -21.9120  -14.3820   13.0790 N.am  195  GLN195     -0.0878
     50  N        -24.1110  -17.3220    9.0970 N.am  196  GLY196     -0.1955
     51  CA       -23.2520  -17.7500    7.9970 C.3   196  GLY196      0.1869
     52  C        -23.9870  -18.4220    6.8400 C.2   196  GLY196      0.2309
     53  O        -23.4070  -18.5750    5.7720 O.2   196  GLY196     -0.2863
     54  N        -26.7760  -17.0420    5.6960 N.3   198  SER198     -0.1217
     55  CA       -27.4410  -15.9440    5.0000 C.3   198  SER198      0.1889
     56  C        -27.0340  -15.8410    3.5410 C.2   198  SER198      0.2288
     57  O        -25.8940  -16.1410    3.1750 O.2   198  SER198     -0.2866
     58  CB       -27.1710  -14.6100    5.6950 C.3   198  SER198      0.2089
     59  OG       -27.8220  -14.5840    6.9610 O.3   198  SER198     -0.2183
     60  N        -32.0080  -17.1270    2.3700 N.3   216  VAL216     -0.1231
     61  CA       -31.8240  -17.1310    3.8150 C.3   216  VAL216      0.1692
     62  C        -31.5990  -15.6610    4.2560 C.2   216  VAL216      0.2593
     63  O        -30.6840  -15.0060    3.7490 O.2   216  VAL216     -0.2718
     64  CB       -30.6100  -18.0030    4.2470 C.3   216  VAL216      0.0266
     65  CG1      -30.3950  -17.9480    5.7520 C.3   216  VAL216      0.0020
     66  CG2      -30.7980  -19.4620    3.8350 C.3   216  VAL216      0.0020
     67  N        -32.4400  -15.1650    5.1790 N.am  217  SER217     -0.1938
     68  CA       -32.4260  -13.7420    5.6100 C.3   217  SER217      0.2055
     69  C        -32.1730  -13.5510    7.1030 C.2   217  SER217      0.2643
     70  O        -31.1920  -12.9090    7.4670 O.2   217  SER217     -0.2714
     71  CB       -33.7240  -13.0200    5.2240 C.3   217  SER217      0.2130
     72  OG       -33.5720  -11.6040    5.2900 O.3   217  SER217     -0.2179
     73  N        -33.0430  -14.0840    7.9620 N.am  218  TRP218     -0.1959
     74  CA       -32.9120  -13.8880    9.4200 C.3   218  TRP218      0.1771
     75  C        -33.7950  -14.8020   10.2490 C.2   218  TRP218      0.2620
     76  O        -34.6540  -15.4960    9.7140 O.2   218  TRP218     -0.2715
     77  CB       -33.2590  -12.4330    9.8050 C.3   218  TRP218      0.0590
     78  CG       -34.6670  -12.0360    9.4600 C.ar  218  TRP218      0.0006
     79  CD1      -35.1130  -11.5890    8.2650 C.ar  218  TRP218      0.0946
     80  CD2      -35.8060  -12.0520   10.3340 C.ar  218  TRP218      0.0152
     81  NE1      -36.4640  -11.3180    8.3260 N.ar  218  TRP218     -0.2442
     82  CE2      -36.9110  -11.6010    9.5870 C.ar  218  TRP218      0.0810
     83  CE3      -35.9950  -12.4050   11.6740 C.ar  218  TRP218      0.0012
     84  CZ2      -38.1910  -11.4870   10.1350 C.ar  218  TRP218      0.0191
     85  CZ3      -37.2660  -12.2990   12.2190 C.ar  218  TRP218      0.0001
     86  CH2      -38.3470  -11.8410   11.4510 C.ar  218  TRP218      0.0015
     87  N        -33.5120  -14.8630   11.5330 N.am  219  GLY219     -0.1954
     88  CA       -34.2900  -15.6380   12.4630 C.3   219  GLY219      0.1869
     89  C        -33.8790  -15.3030   13.8680 C.2   219  GLY219      0.2309
     90  O        -32.8330  -14.7330   14.0720 O.2   219  GLY219     -0.2863
     91  N        -32.8840  -17.1590   16.5550 N.3   221  GLY221     -0.1210
     92  CA       -31.6690  -17.8160   16.9670 C.3   221  GLY221      0.1956
     93  C        -31.5500  -18.8310   15.8700 C.2   221  GLY221      0.2612
     94  O        -31.8650  -18.5270   14.7550 O.2   221  GLY221     -0.2717
     95  N        -31.0830  -20.0230   16.1750 N.am  222  CYS222     -0.1970
     96  CA       -31.1810  -21.1020   15.2340 C.3   222  CYS222      0.1712
     97  C        -31.8350  -22.3310   15.8460 C.2   222  CYS222      0.2296
     98  O        -31.3780  -22.8450   16.8390 O.2   222  CYS222     -0.2864
     99  CB       -29.7970  -21.4370   14.7310 C.3   222  CYS222      0.0983
    100  SG       -28.7660  -20.0010   14.4700 S.3   222  CYS222     -0.0798
    101  N        -37.0890  -20.0100   10.5420 N.3   229  GLY229     -0.1210
    102  CA       -36.2150  -19.2560    9.6600 C.3   229  GLY229      0.1956
    103  C        -37.0550  -18.3440    8.7930 C.2   229  GLY229      0.2611
    104  O        -38.1520  -18.7330    8.3460 O.2   229  GLY229     -0.2717
    105  N        -36.5540  -17.1340    8.5390 N.am  230  VAL230     -0.1979
    106  CA       -37.2410  -16.2050    7.6540 C.3   230  VAL230      0.1595
    107  C        -36.3820  -15.9800    6.4390 C.2   230  VAL230      0.2287
    108  O        -35.1580  -15.9140    6.5260 O.2   230  VAL230     -0.2864
    109  CB       -37.5840  -14.8670    8.3570 C.3   230  VAL230      0.0276
    110  CG1      -38.5070  -14.0340    7.4930 C.3   230  VAL230      0.0022
    111  CG2      -38.2180  -15.1470    9.7080 C.3   230  VAL230      0.0022
@<TRIPOS>BOND
     1    60    61    1
     2    57    56    2
     3     1     2    1
     4    56    55    1
     5    63    62    2
     6    61    64    1
     7    61    62    1
     8    66    64    1
     9    64    65    1
    10    62    67   am
    11     2     3    1
    12     2     5    1
    13     3     4    2
    14    55    58    1
    15    55    54    1
    16    67    68    1
    17    71    72    1
    18    71    68    1
    19    68    69    1
    20    58    59    1
    21     5     6    1
    22    53    52    2
    23     7     6   ar
    24     7     9   ar
    25     6     8   ar
    26    14    13    2
    27     9    10   ar
    28    13    12    1
    29   107   108    2
    30   107   106    1
    31    52    51    1
    32     8    10   ar
    33    15    12    1
    34    15    16    1
    35    69    70    2
    36    69    73   am
    37   110   109    1
    38    12    11    1
    39   106   109    1
    40   106   105    1
    41    33    34    1
    42    33    30    1
    43    73    74    1
    44    51    50    1
    45    16    17   ar
    46    16    18   ar
    47    17    19   ar
    48    79    81   ar
    49    79    78   ar
    50    81    82   ar
    51   104   103    2
    52   109   111    1
    53   105   103   am
    54   103   102    1
    55    30    29    1
    56    30    31    1
    57    18    20   ar
    58    19    20   ar
    59    50    43   am
    60    29    23   am
    61    74    77    1
    62    74    75    1
    63    78    77    1
    64    78    80   ar
    65    38    37    2
    66    82    84   ar
    67    82    80   ar
    68   102   101    1
    69    76    75    2
    70    23    24    2
    71    23    22    1
    72    84    86   ar
    73    35    31   am
    74    35    36    1
    75    43    44    2
    76    43    42    1
    77    31    32    2
    78    75    87   am
    79    80    83   ar
    80    27    26   ar
    81    37    36    1
    82    37    41   am
    83    22    21    1
    84    22    25    1
    85    42    41    1
    86    42    45    1
    87    36    39    1
    88    86    85   ar
    89    87    88    1
    90    26    25    1
    91    26    28   ar
    92    83    85   ar
    93    46    45    1
    94    46    47    1
    95    39    40    1
    96    88    89    1
    97    49    47   am
    98    47    48    2
    99    89    90    2
   100    40   100    1
   101   100    99    1
   102    99    96    1
   103    94    93    2
   104    96    97    1
   105    96    95    1
   106    97    98    2
   107    93    95   am
   108    93    92    1
   109    91    92    1
