@<TRIPOS>MOLECULE
tmp/5yciB00.pdb
 227 219 0 0 0
SMALL
GASTEIGER

@<TRIPOS>ATOM
      1  N        -28.9650    7.5590   -4.6590 N.3    33  LEU33      -0.1245
      2  CA       -28.1630    8.7500   -4.8700 C.3    33  LEU33       0.1561
      3  C        -28.8000    9.9620   -4.2120 C.2    33  LEU33       0.2260
      4  O        -28.1120   10.8010   -3.6560 O.2    33  LEU33      -0.2867
      5  CB       -27.9800    9.0050   -6.3790 C.3    33  LEU33       0.0270
      6  CG       -27.1100    7.9770   -7.1290 C.3    33  LEU33       0.0019
      7  CD1      -27.0310    8.3710   -8.5550 C.3    33  LEU33       0.0001
      8  CD2      -25.7190    7.8990   -6.5080 C.3    33  LEU33       0.0001
      9  N        -28.1370    9.7530   -0.5830 N.3    36  LEU36      -0.1245
     10  CA       -26.7290   10.0800   -0.3590 C.3    36  LEU36       0.1561
     11  C        -26.4880   11.5850   -0.3970 C.2    36  LEU36       0.2260
     12  O        -25.8350   12.1520    0.4920 O.2    36  LEU36      -0.2867
     13  CB       -25.8900    9.3960   -1.4440 C.3    36  LEU36       0.0270
     14  CG       -24.3840    9.6620   -1.4490 C.3    36  LEU36       0.0019
     15  CD1      -23.7560    9.1010   -0.1920 C.3    36  LEU36       0.0001
     16  CD2      -23.7340    9.0700   -2.7380 C.3    36  LEU36       0.0001
     17  N        -20.8410   15.0340   -0.9310 N.3    43  THR43      -0.1218
     18  CA       -20.6120   14.0010   -1.9630 C.3    43  THR43       0.1862
     19  C        -21.0530   14.4340   -3.3510 C.2    43  THR43       0.2287
     20  O        -20.5670   13.9510   -4.3550 O.2    43  THR43      -0.2866
     21  CB       -21.3110   12.6660   -1.6120 C.3    43  THR43       0.1770
     22  OG1      -22.7340   12.8420   -1.6100 O.3    43  THR43      -0.2211
     23  CG2      -20.8650   12.1750   -0.2510 C.3    43  THR43       0.0375
     24  N        -18.6230   15.5360   -6.0720 N.3    46  LYS46      -0.1231
     25  CA       -17.8550   14.6020   -6.9210 C.3    46  LYS46       0.1693
     26  C        -18.3840   14.4570   -8.3480 C.2    46  LYS46       0.2592
     27  O        -17.6690   13.9990   -9.2790 O.2    46  LYS46      -0.2718
     28  CB       -17.7660   13.2220   -6.2490 C.3    46  LYS46       0.0285
     29  CG       -16.9570   13.2310   -4.9470 C.3    46  LYS46       0.0035
     30  CD       -15.4470   13.3680   -5.2270 C.3    46  LYS46       0.0206
     31  CE       -14.6360   13.3910   -3.9590 C.3    46  LYS46       0.1093
     32  NZ       -13.1460   13.4250   -4.2260 N.3    46  LYS46      -0.1314
     33  N        -19.6350   14.8630   -8.5310 N.am   47  PHE47      -0.1962
     34  CA       -20.3350   14.6690   -9.7910 C.3    47  PHE47       0.1771
     35  C        -20.4890   15.9790  -10.5300 C.2    47  PHE47       0.2620
     36  O        -21.4950   16.6700  -10.3570 O.2    47  PHE47      -0.2715
     37  CB       -21.7340   14.0720   -9.5470 C.3    47  PHE47       0.0574
     38  CG       -21.7020   12.7050   -8.9290 C.ar   47  PHE47      -0.0200
     39  CD1      -21.6430   11.5790   -9.7230 C.ar   47  PHE47      -0.0042
     40  CD2      -21.6880   12.5510   -7.5580 C.ar   47  PHE47      -0.0042
     41  CE1      -21.5900   10.3030   -9.1620 C.ar   47  PHE47      -0.0003
     42  CE2      -21.6350   11.2840   -6.9840 C.ar   47  PHE47      -0.0003
     43  CZ       -21.6060   10.1640   -7.7860 C.ar   47  PHE47      -0.0000
     44  N        -19.5290   16.3040  -11.3860 N.am   48  ASP48      -0.1957
     45  CA       -19.6110   17.5640  -12.1020 C.3    48  ASP48       0.1840
     46  C        -20.8950   17.6490  -12.9250 C.2    48  ASP48       0.2622
     47  O        -21.4400   18.7380  -13.1030 O.2    48  ASP48      -0.2715
     48  CB       -18.3960   17.8080  -12.9830 C.3    48  ASP48       0.1450
     49  CG       -18.2480   19.2760  -13.3490 C.2    48  ASP48       0.3671
     50  OD1      -18.8130   19.7070  -14.3860 O.co2  48  ASP48      -0.2456
     51  OD2      -17.5900   20.0050  -12.5750 O.co2  48  ASP48      -0.2456
     52  N        -21.3890   16.5070  -13.4000 N.am   49  LYS49      -0.1963
     53  CA       -22.6680   16.4740  -14.1020 C.3    49  LYS49       0.1728
     54  C        -23.8080   16.9300  -13.2040 C.2    49  LYS49       0.2616
     55  O        -24.8130   17.4330  -13.7020 O.2    49  LYS49      -0.2715
     56  CB       -23.0080   15.0550  -14.5730 C.3    49  LYS49       0.0311
     57  CG       -22.5620   14.6860  -15.9810 C.3    49  LYS49       0.0038
     58  CD       -23.0120   13.2570  -16.3280 C.3    49  LYS49       0.0206
     59  CE       -24.0560   13.2340  -17.4330 C.3    49  LYS49       0.1093
     60  NZ       -23.4690   13.5800  -18.7590 N.3    49  LYS49      -0.1314
     61  N        -23.6690   16.7190  -11.8910 N.am   50  PHE50      -0.1974
     62  CA       -24.8080   16.8550  -10.9810 C.3    50  PHE50       0.1639
     63  C        -24.7290   17.9170   -9.8910 C.2    50  PHE50       0.2290
     64  O        -25.7690   18.2770   -9.3370 O.2    50  PHE50      -0.2864
     65  CB       -25.0930   15.5100  -10.2900 C.3    50  PHE50       0.0560
     66  CG       -25.3090   14.3820  -11.2420 C.ar   50  PHE50      -0.0200
     67  CD1      -25.9880   14.5820  -12.4210 C.ar   50  PHE50      -0.0042
     68  CD2      -24.8220   13.1250  -10.9600 C.ar   50  PHE50      -0.0042
     69  CE1      -26.1730   13.5510  -13.3020 C.ar   50  PHE50      -0.0003
     70  CE2      -25.0150   12.0930  -11.8380 C.ar   50  PHE50      -0.0003
     71  CZ       -25.6860   12.3090  -13.0170 C.ar   50  PHE50      -0.0000
     72  N        -27.5350    7.2570  -14.0380 N.3    68  HIS68      -0.1241
     73  CA       -26.3750    6.9400  -13.2100 C.3    68  HIS68       0.1621
     74  C        -26.7150    5.9860  -12.0450 C.2    68  HIS68       0.2264
     75  O        -25.9450    5.0690  -11.7460 O.2    68  HIS68      -0.2867
     76  CB       -25.6510    8.1790  -12.6940 C.3    68  HIS68       0.0745
     77  CG       -24.3220    7.8390  -12.0830 C.ar   68  HIS68       0.0817
     78  ND1      -23.2910    7.2940  -12.8210 N.ar   68  HIS68      -0.2268
     79  CD2      -23.8860    7.8800  -10.8000 C.ar   68  HIS68       0.1154
     80  CE1      -22.2680    7.0330  -12.0230 C.ar   68  HIS68       0.1986
     81  NE2      -22.6010    7.3900  -10.7950 N.ar   68  HIS68      -0.2212
     82  N        -26.7890    2.5640  -13.5090 N.3    71  THR71      -0.1203
     83  CA       -25.3760    2.1680  -13.6250 C.3    71  THR71       0.1994
     84  C        -24.7200    1.6740  -12.3120 C.2    71  THR71       0.2617
     85  O        -24.0960    0.6080  -12.2900 O.2    71  THR71      -0.2717
     86  CB       -24.5860    3.3290  -14.2000 C.3    71  THR71       0.1784
     87  OG1      -25.0600    3.5600  -15.5250 O.3    71  THR71      -0.2211
     88  CG2      -23.1000    3.0190  -14.2590 C.3    71  THR71       0.0376
     89  N        -24.8810    2.4410  -11.2390 N.am   72  VAL72      -0.1979
     90  CA       -24.3340    2.0830   -9.9290 C.3    72  VAL72       0.1595
     91  C        -24.8690    0.7500   -9.4260 C.2    72  VAL72       0.2287
     92  O        -24.1060   -0.1560   -9.0930 O.2    72  VAL72      -0.2864
     93  CB       -24.6330    3.2010   -8.9160 C.3    72  VAL72       0.0276
     94  CG1      -24.2390    2.8140   -7.5020 C.3    72  VAL72       0.0022
     95  CG2      -23.9030    4.4860   -9.2940 C.3    72  VAL72       0.0022
     96  N        -23.8430   -2.3510  -11.5130 N.3    75  ALA75      -0.1231
     97  CA       -22.4670   -2.7170  -11.1250 C.3    75  ALA75       0.1694
     98  C        -22.4390   -3.4130   -9.7500 C.2    75  ALA75       0.2591
     99  O        -21.8160   -4.4750   -9.5760 O.2    75  ALA75      -0.2718
    100  CB       -21.5850   -1.4950  -11.1310 C.3    75  ALA75       0.0304
    101  N        -23.1610   -2.8600   -8.7770 N.am   76  LEU76      -0.1980
    102  CA       -23.1660   -3.4500   -7.4420 C.3    76  LEU76       0.1596
    103  C        -23.8330   -4.8040   -7.4440 C.2    76  LEU76       0.2287
    104  O        -23.3580   -5.7410   -6.8180 O.2    76  LEU76      -0.2864
    105  CB       -23.8700   -2.5490   -6.4310 C.3    76  LEU76       0.0297
    106  CG       -23.9000   -3.0930   -4.9970 C.3    76  LEU76       0.0022
    107  CD1      -22.4990   -3.4100   -4.4640 C.3    76  LEU76       0.0001
    108  CD2      -24.5940   -2.0800   -4.0880 C.3    76  LEU76       0.0001
    109  N        -12.1070   -3.0770  -12.1630 N.3    92  PRO92      -0.2102
    110  CA       -12.2860   -1.8030  -12.8890 C.3    92  PRO92       0.1504
    111  C        -12.9220   -0.6990  -12.0020 C.2    92  PRO92       0.2575
    112  O        -12.6400    0.5060  -12.1200 O.2    92  PRO92      -0.2718
    113  CB       -13.2010   -2.1870  -14.0500 C.3    92  PRO92       0.0282
    114  CG       -13.8870   -3.4440  -13.6200 C.3    92  PRO92       0.0208
    115  CD       -12.9220   -4.1680  -12.7220 C.3    92  PRO92       0.0893
    116  N        -13.7400   -1.1400  -11.0630 N.am   93  LEU93      -0.1980
    117  CA       -14.3760   -0.2160  -10.1450 C.3    93  LEU93       0.1596
    118  C        -13.3570    0.4570   -9.1990 C.2    93  LEU93       0.2287
    119  O        -13.4090    1.6670   -8.9870 O.2    93  LEU93      -0.2864
    120  CB       -15.4840   -0.9340   -9.3520 C.3    93  LEU93       0.0297
    121  CG       -16.4150    0.0320   -8.6100 C.3    93  LEU93       0.0022
    122  CD1      -17.2970    0.8820   -9.5700 C.3    93  LEU93       0.0001
    123  CD2      -17.2870   -0.7470   -7.6330 C.3    93  LEU93       0.0001
    124  N        -11.1420    3.1240  -11.2350 N.3    96  SER96      -0.1202
    125  CA       -11.7260    4.4430  -11.5210 C.3    96  SER96       0.2020
    126  C        -12.0280    5.2380  -10.2400 C.2    96  SER96       0.2618
    127  O        -11.7990    6.4570  -10.1570 O.2    96  SER96      -0.2717
    128  CB       -13.0200    4.2780  -12.3420 C.3    96  SER96       0.2103
    129  OG       -13.9950    3.5890  -11.5870 O.3    96  SER96      -0.2182
    130  N        -12.5460    4.5530   -9.2260 N.am   97  HIS97      -0.1975
    131  CA       -12.9300    5.2600   -8.0020 C.3    97  HIS97       0.1656
    132  C        -11.7170    5.6910   -7.1520 C.2    97  HIS97       0.2291
    133  O        -11.7500    6.7290   -6.4720 O.2    97  HIS97      -0.2864
    134  CB       -13.9850    4.4560   -7.2520 C.3    97  HIS97       0.0771
    135  CG       -15.3320    4.5210   -7.9200 C.ar   97  HIS97       0.0820
    136  ND1      -15.5860    3.9370   -9.1450 N.ar   97  HIS97      -0.2267
    137  CD2      -16.4770    5.1610   -7.5660 C.ar   97  HIS97       0.1154
    138  CE1      -16.8390    4.1870   -9.4990 C.ar   97  HIS97       0.1986
    139  NE2      -17.4000    4.9330   -8.5610 N.ar   97  HIS97      -0.2212
    140  N         -9.4440    8.0190  -10.6720 N.3   100  LYS100     -0.1231
    141  CA       -10.1260    9.0780  -11.4370 C.3   100  LYS100      0.1693
    142  C        -11.0850    9.8960  -10.5580 C.2   100  LYS100      0.2592
    143  O        -10.9180   11.1080  -10.3950 O.2   100  LYS100     -0.2718
    144  CB       -10.8610    8.4860  -12.6510 C.3   100  LYS100      0.0285
    145  CG       -11.4470    9.5270  -13.5850 C.3   100  LYS100      0.0035
    146  CD       -11.9850    8.9060  -14.8700 C.3   100  LYS100      0.0206
    147  CE       -12.3980    9.9710  -15.8910 C.3   100  LYS100      0.1093
    148  NZ       -13.4720   10.8770  -15.4150 N.3   100  LYS100     -0.1314
    149  N        -12.0890    9.2390   -9.9920 N.am  101  HIS101     -0.1976
    150  CA       -13.1110    9.9640   -9.2430 C.3   101  HIS101      0.1656
    151  C        -12.5950   10.2930   -7.8570 C.2   101  HIS101      0.2291
    152  O        -13.0290   11.2590   -7.2560 O.2   101  HIS101     -0.2864
    153  CB       -14.4030    9.1460   -9.1500 C.3   101  HIS101      0.0771
    154  CG       -14.8150    8.5370  -10.4490 C.ar  101  HIS101      0.0820
    155  ND1      -14.8890    9.2650  -11.6190 N.ar  101  HIS101     -0.2267
    156  CD2      -15.1570    7.2680  -10.7730 C.ar  101  HIS101      0.1154
    157  CE1      -15.2460    8.4660  -12.6060 C.ar  101  HIS101      0.1986
    158  NE2      -15.4290    7.2540  -12.1170 N.ar  101  HIS101     -0.2212
    159  N        -12.7830    8.5800   -4.6870 N.3   103  ILE103     -0.1245
    160  CA       -13.8860    8.5040   -3.7360 C.3   103  ILE103      0.1561
    161  C        -13.4340    7.8620   -2.4400 C.2   103  ILE103      0.2260
    162  O        -13.1580    6.6660   -2.4140 O.2   103  ILE103     -0.2867
    163  CB       -15.0220    7.6350   -4.3090 C.3   103  ILE103      0.0252
    164  CG1      -15.5020    8.2340   -5.6480 C.3   103  ILE103      0.0019
    165  CG2      -16.1540    7.4230   -3.2730 C.3   103  ILE103      0.0019
    166  CD1      -15.9370    9.6710   -5.5810 C.3   103  ILE103      0.0001
    167  N        -17.0910    7.8500    1.9310 N.3   107  TYR107     -0.1227
    168  CA       -18.2110    8.0740    1.0210 C.3   107  TYR107      0.1736
    169  C        -18.8120    6.7450    0.6080 C.2   107  TYR107      0.2595
    170  O        -20.0350    6.6310    0.3680 O.2   107  TYR107     -0.2718
    171  CB       -17.7840    8.8460   -0.2230 C.3   107  TYR107      0.0548
    172  CG       -17.4550   10.3160   -0.0300 C.ar  107  TYR107     -0.0200
    173  CD1      -17.3390   10.8880    1.2290 C.ar  107  TYR107     -0.0009
    174  CD2      -17.2690   11.1360   -1.1340 C.ar  107  TYR107     -0.0009
    175  CE1      -17.0180   12.2670    1.3760 C.ar  107  TYR107      0.0417
    176  CE2      -16.9430   12.4930   -0.9990 C.ar  107  TYR107      0.0417
    177  CZ       -16.8330   13.0510    0.2480 C.ar  107  TYR107      0.1957
    178  OH       -16.5180   14.4050    0.3400 O.3   107  TYR107     -0.2866
    179  N        -17.9800    5.7230    0.4930 N.am  108  LEU108     -0.1980
    180  CA       -18.5150    4.3920    0.1970 C.3   108  LEU108      0.1596
    181  C        -19.3350    3.8830    1.3960 C.2   108  LEU108      0.2287
    182  O        -20.3520    3.1820    1.2390 O.2   108  LEU108     -0.2864
    183  CB       -17.3920    3.4100   -0.1750 C.3   108  LEU108      0.0297
    184  CG       -16.5300    3.7670   -1.3980 C.3   108  LEU108      0.0022
    185  CD1      -15.4660    2.6930   -1.6320 C.3   108  LEU108      0.0001
    186  CD2      -17.3590    3.9480   -2.6370 C.3   108  LEU108      0.0001
    187  N        -22.8110    5.6240    1.0530 N.3   111  ILE111     -0.1231
    188  CA       -23.7490    5.1070    0.0460 C.3   111  ILE111      0.1692
    189  C        -24.1940    3.7010    0.4360 C.2   111  ILE111      0.2592
    190  O        -25.2950    3.2720    0.0870 O.2   111  ILE111     -0.2718
    191  CB       -23.1550    5.1180   -1.3720 C.3   111  ILE111      0.0266
    192  CG1      -24.2470    4.9560   -2.4390 C.3   111  ILE111      0.0019
    193  CG2      -22.0880    4.0410   -1.5060 C.3   111  ILE111      0.0020
    194  CD1      -23.7160    5.1620   -3.8730 C.3   111  ILE111      0.0001
    195  N        -23.3440    2.9850    1.1690 N.am  112  SER112     -0.1952
    196  CA       -23.7720    1.7180    1.7760 C.3   112  SER112      0.1924
    197  C        -25.0100    1.9560    2.6580 C.2   112  SER112      0.2314
    198  O        -26.0110    1.2670    2.5310 O.2   112  SER112     -0.2863
    199  CB       -22.6260    1.0760    2.5790 C.3   112  SER112      0.2116
    200  OG       -21.5910    0.5540    1.7200 O.3   112  SER112     -0.2180
    201  N        -28.0430    2.7530    0.6410 N.3   115  ILE115     -0.1245
    202  CA       -28.6230    1.5280    0.0880 C.3   115  ILE115      0.1561
    203  C        -29.5230    0.8260    1.1160 C.2   115  ILE115      0.2260
    204  O        -30.6340    0.3670    0.7980 O.2   115  ILE115     -0.2867
    205  CB       -27.5080    0.5520   -0.4120 C.3   115  ILE115      0.0252
    206  CG1      -26.8690    1.1030   -1.6800 C.3   115  ILE115      0.0019
    207  CG2      -28.0750   -0.8240   -0.7660 C.3   115  ILE115      0.0019
    208  CD1      -25.5600    0.4370   -2.0750 C.3   115  ILE115      0.0001
    209  N        -22.0530   -5.5730    1.9540 N.3   139  LEU139     -0.1245
    210  CA       -21.5030   -4.2640    1.6310 C.3   139  LEU139      0.1561
    211  C        -20.1630   -4.0050    2.3760 C.2   139  LEU139      0.2260
    212  O        -19.2780   -3.3570    1.8440 O.2   139  LEU139     -0.2867
    213  CB       -22.5130   -3.1730    1.9830 C.3   139  LEU139      0.0270
    214  CG       -23.8120   -3.1960    1.1270 C.3   139  LEU139      0.0019
    215  CD1      -24.7080   -2.0940    1.5610 C.3   139  LEU139      0.0001
    216  CD2      -23.5040   -3.0660   -0.3390 C.3   139  LEU139      0.0001
    217  N        -17.5080   -5.8540    0.4070 N.3   142  PHE142     -0.1241
    218  CA       -17.2370   -5.0460   -0.7600 C.3   142  PHE142      0.1605
    219  C        -16.3150   -3.8630   -0.4280 C.2   142  PHE142      0.2264
    220  O        -15.3190   -3.6330   -1.1130 O.2   142  PHE142     -0.2867
    221  CB       -18.5830   -4.5380   -1.3260 C.3   142  PHE142      0.0534
    222  CG       -18.4620   -3.3340   -2.2040 C.ar  142  PHE142     -0.0203
    223  CD1      -18.0090   -3.4490   -3.5070 C.ar  142  PHE142     -0.0042
    224  CD2      -18.8820   -2.0870   -1.7510 C.ar  142  PHE142     -0.0042
    225  CE1      -17.9300   -2.3360   -4.3270 C.ar  142  PHE142     -0.0003
    226  CE2      -18.8040   -0.9790   -2.5710 C.ar  142  PHE142     -0.0003
    227  CZ       -18.3160   -1.1040   -3.8530 C.ar  142  PHE142     -0.0000
@<TRIPOS>BOND
     1    60    59    1
     2    59    58    1
     3    58    57    1
     4    57    56    1
     5   147   148    1
     6   147   146    1
     7    87    86    1
     8   146   145    1
     9    56    53    1
    10    50    49   ar
    11    88    86    1
    12    86    83    1
    13    53    52    1
    14    53    54    1
    15   113   114    1
    16   113   110    1
    17    72    73    1
    18    55    54    2
    19    83    82    1
    20    83    84    1
    21   114   115    1
    22   145   144    1
    23    52    46   am
    24    49    48    1
    25    49    51   ar
    26    69    71   ar
    27    69    67   ar
    28    73    76    1
    29    73    74    1
    30    54    61   am
    31    47    46    2
    32    71    70   ar
    33    48    45    1
    34    46    45    1
    35   110   109    1
    36   110   111    1
    37    78    77   ar
    38    78    80   ar
    39   115   109    1
    40    76    77    1
    41   144   141    1
    42   157   158   ar
    43   157   155   ar
    44    67    66   ar
    45   128   129    1
    46   128   125    1
    47    84    85    2
    48    84    89   am
    49   112   111    2
    50   158   156   ar
    51    45    44    1
    52    77    79   ar
    53    74    75    2
    54    80    81   ar
    55   111   116   am
    56    61    62    1
    57    70    68   ar
    58   155   154   ar
    59   125   124    1
    60   125   126    1
    61    96    97    1
    62   141   140    1
    63   141   142    1
    64    44    35   am
    65    66    68   ar
    66    66    65    1
    67    89    90    1
    68   100    97    1
    69    97    98    1
    70   116   117    1
    71    62    65    1
    72    62    63    1
    73    79    81   ar
    74   156   154   ar
    75   142   143    2
    76   142   149   am
    77    35    36    2
    78    35    34    1
    79   154   153    1
    80   126   127    2
    81   126   130   am
    82   117   120    1
    83   117   118    1
    84   149   150    1
    85    90    91    1
    86    90    93    1
    87    63    64    2
    88    34    37    1
    89    34    33    1
    90    98    99    2
    91    98   101   am
    92    39    41   ar
    93    39    38   ar
    94   122   121    1
    95    37    38    1
    96   138   136   ar
    97   138   139   ar
    98    91    92    2
    99   120   121    1
   100    95    93    1
   101    27    26    2
   102   150   153    1
   103   150   151    1
   104   130   131    1
   105   118   119    2
   106    41    43   ar
   107   136   135   ar
   108    38    40   ar
   109    93    94    1
   110   101   102    1
   111   121   123    1
   112   139   137   ar
   113     7     6    1
   114    33    26   am
   115    26    25    1
   116   131   134    1
   117   131   132    1
   118   135   137   ar
   119   135   134    1
   120   151   152    2
   121    43    42   ar
   122    40    42   ar
   123   103   102    1
   124   103   104    2
   125   102   105    1
   126   132   133    2
   127     6     8    1
   128     6     5    1
   129    25    28    1
   130    25    24    1
   131   105   106    1
   132     5     2    1
   133    28    29    1
   134   164   166    1
   135   164   163    1
   136    30    29    1
   137    30    31    1
   138   106   107    1
   139   106   108    1
   140     2     1    1
   141     2     3    1
   142   159   160    1
   143    20    19    2
   144   225   227   ar
   145   225   223   ar
   146   163   160    1
   147   163   165    1
   148    32    31    1
   149     3     4    2
   150   194   192    1
   151   227   226   ar
   152   160   161    1
   153   223   222   ar
   154    19    18    1
   155    16    14    1
   156   186   184    1
   157   226   224   ar
   158   161   162    2
   159   192   191    1
   160   222   224   ar
   161   222   221    1
   162   208   206    1
   163    18    21    1
   164    18    17    1
   165   206   205    1
   166   185   184    1
   167    21    22    1
   168    21    23    1
   169   193   191    1
   170    14    13    1
   171    14    15    1
   172    13    10    1
   173   184   183    1
   174   191   188    1
   175   221   218    1
   176   174   176   ar
   177   174   172   ar
   178   220   219    2
   179   176   177   ar
   180   207   205    1
   181   218   219    1
   182   218   217    1
   183     9    10    1
   184   205   202    1
   185    11    10    1
   186    11    12    2
   187   216   214    1
   188   171   172    1
   189   171   168    1
   190   183   180    1
   191   172   173   ar
   192   188   189    1
   193   188   187    1
   194   190   189    2
   195   202   201    1
   196   202   203    1
   197   180   179    1
   198   180   181    1
   199   177   178    1
   200   177   175   ar
   201   170   169    2
   202   189   195   am
   203   179   169   am
   204   169   168    1
   205   204   203    2
   206   168   167    1
   207   214   215    1
   208   214   213    1
   209   195   196    1
   210   173   175   ar
   211   182   181    2
   212   210   209    1
   213   210   213    1
   214   210   211    1
   215   200   199    1
   216   196   199    1
   217   196   197    1
   218   212   211    2
   219   198   197    2
