@<TRIPOS>MOLECULE
tmp/5yckA00.pdb
 135 131 0 0 0
SMALL
GASTEIGER

@<TRIPOS>ATOM
      1  N         61.6030    7.1440  101.7880 N.3   379  GLY379     -0.1210
      2  CA        62.3940    8.3620  101.8310 C.3   379  GLY379      0.1956
      3  C         61.8460    9.4620  102.7190 C.2   379  GLY379      0.2611
      4  O         62.4560   10.5390  102.7750 O.2   379  GLY379     -0.2717
      5  N         60.7350    9.2670  103.4200 N.am  380  TRP380     -0.1976
      6  CA        60.2080   10.2980  104.3170 C.3   380  TRP380      0.1640
      7  C         60.5430    9.9950  105.7720 C.2   380  TRP380      0.2290
      8  O         59.6860   10.0560  106.6530 O.2   380  TRP380     -0.2864
      9  CB        58.7030   10.4620  104.1250 C.3   380  TRP380      0.0576
     10  CG        57.9330    9.1870  103.9520 C.ar  380  TRP380      0.0006
     11  CD1       57.7570    8.4870  102.7950 C.ar  380  TRP380      0.0946
     12  CD2       57.2080    8.4740  104.9650 C.ar  380  TRP380      0.0152
     13  NE1       56.9790    7.3790  103.0250 N.ar  380  TRP380     -0.2442
     14  CE2       56.6310    7.3470  104.3490 C.ar  380  TRP380      0.0810
     15  CE3       56.9970    8.6760  106.3320 C.ar  380  TRP380      0.0012
     16  CZ2       55.8590    6.4240  105.0530 C.ar  380  TRP380      0.0191
     17  CZ3       56.2300    7.7590  107.0290 C.ar  380  TRP380      0.0001
     18  CH2       55.6690    6.6480  106.3870 C.ar  380  TRP380      0.0015
     19  N         62.0960   11.9290  107.5830 N.3   382  HIS382     -0.1226
     20  CA        61.9120   13.1780  108.3150 C.3   382  HIS382      0.1752
     21  C         60.5540   13.2140  109.0030 C.2   382  HIS382      0.2595
     22  O         60.4260   13.7440  110.1120 O.2   382  HIS382     -0.2718
     23  CB        62.0770   14.3730  107.3750 C.3   382  HIS382      0.0759
     24  CG        61.2770   14.2680  106.1140 C.ar  382  HIS382      0.0818
     25  ND1       59.9220   14.5160  106.0700 N.ar  382  HIS382     -0.2268
     26  CD2       61.6420   13.9500  104.8490 C.ar  382  HIS382      0.1154
     27  CE1       59.4860   14.3500  104.8340 C.ar  382  HIS382      0.1986
     28  NE2       60.5100   14.0080  104.0730 N.ar  382  HIS382     -0.2212
     29  N         59.5270   12.6510  108.3600 N.am  383  ILE383     -0.1980
     30  CA        58.2240   12.5280  109.0080 C.3   383  ILE383      0.1595
     31  C         58.3370   11.6530  110.2480 C.2   383  ILE383      0.2287
     32  O         57.7630   11.9610  111.3000 O.2   383  ILE383     -0.2864
     33  CB        57.1800   11.9790  108.0180 C.3   383  ILE383      0.0276
     34  CG1       56.9750   12.9520  106.8550 C.3   383  ILE383      0.0022
     35  CG2       55.8590   11.7030  108.7240 C.3   383  ILE383      0.0022
     36  CD1       55.8700   12.5430  105.9100 C.3   383  ILE383      0.0001
     37  N         60.1330   13.7560  113.1540 N.3   386  TRP386     -0.1227
     38  CA        59.1890   14.6860  113.7650 C.3   386  TRP386      0.1737
     39  C         58.0560   13.9490  114.4650 C.2   386  TRP386      0.2595
     40  O         57.5460   14.4210  115.4870 O.2   386  TRP386     -0.2718
     41  CB        58.6310   15.6420  112.7090 C.3   386  TRP386      0.0564
     42  CG        59.6520   16.5960  112.1660 C.ar  386  TRP386      0.0003
     43  CD1       60.0690   16.7000  110.8710 C.ar  386  TRP386      0.0946
     44  CD2       60.3870   17.5810  112.9040 C.ar  386  TRP386      0.0152
     45  NE1       61.0180   17.6870  110.7560 N.ar  386  TRP386     -0.2442
     46  CE2       61.2310   18.2430  111.9900 C.ar  386  TRP386      0.0810
     47  CE3       60.4140   17.9660  114.2480 C.ar  386  TRP386      0.0012
     48  CZ2       62.0910   19.2690  112.3770 C.ar  386  TRP386      0.0191
     49  CZ3       61.2690   18.9850  114.6290 C.ar  386  TRP386      0.0001
     50  CH2       62.0950   19.6240  113.6970 C.ar  386  TRP386      0.0015
     51  N         57.6480   12.7940  113.9330 N.am  387  ASN387     -0.1974
     52  CA        56.6370   11.9920  114.6120 C.3   387  ASN387      0.1688
     53  C         57.1680   11.4170  115.9180 C.2   387  ASN387      0.2292
     54  O         56.4070   11.2670  116.8790 O.2   387  ASN387     -0.2864
     55  CB        56.1470   10.8730  113.6930 C.3   387  ASN387      0.1181
     56  CG        54.9890   10.0970  114.2820 C.2   387  ASN387      0.2629
     57  OD1       54.1650   10.6480  115.0110 O.2   387  ASN387     -0.2716
     58  ND2       54.9150    8.8110  113.9630 N.am  387  ASN387     -0.0877
     59  N         57.0060   14.3900  118.4020 N.3   390  PHE390     -0.1241
     60  CA        55.6300   14.7020  118.7660 C.3   390  PHE390      0.1605
     61  C         55.0140   13.5980  119.6160 C.2   390  PHE390      0.2264
     62  O         54.3140   13.8780  120.5960 O.2   390  PHE390     -0.2867
     63  CB        54.8040   14.9420  117.5010 C.3   390  PHE390      0.0534
     64  CG        53.3290   14.7160  117.6810 C.ar  390  PHE390     -0.0203
     65  CD1       52.5690   15.5740  118.4590 C.ar  390  PHE390     -0.0042
     66  CD2       52.7000   13.6490  117.0620 C.ar  390  PHE390     -0.0042
     67  CE1       51.2110   15.3670  118.6200 C.ar  390  PHE390     -0.0003
     68  CE2       51.3440   13.4380  117.2180 C.ar  390  PHE390     -0.0003
     69  CZ        50.5980   14.2970  117.9990 C.ar  390  PHE390     -0.0000
     70  N         49.7050    8.3970  113.5930 N.3   428  VAL428     -0.1245
     71  CA        50.3120    9.2710  112.5920 C.3   428  VAL428      0.1561
     72  C         50.9010    8.4440  111.4570 C.2   428  VAL428      0.2260
     73  O         50.7000    8.7450  110.2740 O.2   428  VAL428     -0.2867
     74  CB        51.3740   10.1760  113.2430 C.3   428  VAL428      0.0252
     75  CG1       52.2620   10.8060  112.1810 C.3   428  VAL428      0.0019
     76  CG2       50.7090   11.2460  114.0920 C.3   428  VAL428      0.0019
     77  N         49.7400    8.6580  107.4910 N.3   432  VAL432     -0.1245
     78  CA        50.6530    9.0790  106.4340 C.3   432  VAL432      0.1561
     79  C         50.8750    7.9600  105.4210 C.2   432  VAL432      0.2260
     80  O         51.0580    8.2290  104.2290 O.2   432  VAL432     -0.2867
     81  CB        51.9860    9.5840  107.0250 C.3   432  VAL432      0.0252
     82  CG1       51.7400   10.7450  107.9790 C.3   432  VAL432      0.0019
     83  CG2       52.7420    8.4630  107.7200 C.3   432  VAL432      0.0019
     84  N         47.5880    7.6190  103.1930 N.3   435  SER435     -0.1202
     85  CA        47.4040    8.7490  102.2940 C.3   435  SER435      0.2020
     86  C         48.5660    8.9250  101.3260 C.2   435  SER435      0.2618
     87  O         48.6150    9.9320  100.6130 O.2   435  SER435     -0.2717
     88  CB        47.2020   10.0340  103.1000 C.3   435  SER435      0.2103
     89  OG        48.4150   10.4520  103.7010 O.3   435  SER435     -0.2182
     90  N         49.4970    7.9750  101.2880 N.am  436  MET436     -0.1979
     91  CA        50.6420    8.0840  100.3980 C.3   436  MET436      0.1605
     92  C         50.2250    7.8890   98.9480 C.2   436  MET436      0.2287
     93  O         49.4100    7.0190   98.6260 O.2   436  MET436     -0.2864
     94  CB        51.7120    7.0560  100.7640 C.3   436  MET436      0.0413
     95  CG        52.8010    7.5800  101.6800 C.3   436  MET436      0.0598
     96  SD        53.7580    6.2340  102.3980 S.3   436  MET436     -0.1393
     97  CE        54.6840    5.6690  100.9730 C.3   436  MET436      0.0692
     98  N         53.7800    8.5860   92.7900 N.3   440  GLU440     -0.1231
     99  CA        54.7280    9.6870   92.9270 C.3   440  GLU440      0.1699
    100  C         55.9700    9.2490   93.6930 C.2   440  GLU440      0.2592
    101  O         57.0950    9.6050   93.3220 O.2   440  GLU440     -0.2718
    102  CB        54.0560   10.8740   93.6210 C.3   440  GLU440      0.0402
    103  CG        55.0140   11.9430   94.1220 C.3   440  GLU440      0.1161
    104  CD        54.4630   12.7010   95.3130 C.2   440  GLU440      0.3649
    105  OE1       53.8660   13.7800   95.1070 O.co2 440  GLU440     -0.2457
    106  OE2       54.6190   12.2180   96.4550 O.co2 440  GLU440     -0.2457
    107  N         55.7840    8.4620   94.7560 N.am  441  GLN441     -0.1979
    108  CA        56.9260    7.9520   95.5040 C.3   441  GLN441      0.1601
    109  C         57.8240    7.0870   94.6290 C.2   441  GLN441      0.2287
    110  O         59.0470    7.0870   94.8040 O.2   441  GLN441     -0.2864
    111  CB        56.4420    7.1720   96.7260 C.3   441  GLN441      0.0394
    112  CG        57.3260    7.3440   97.9470 C.3   441  GLN441      0.0908
    113  CD        57.2410    8.7440   98.5320 C.2   441  GLN441      0.2608
    114  OE1       56.1810    9.1750   98.9890 O.2   441  GLN441     -0.2717
    115  NE2       58.3560    9.4630   98.5110 N.am  441  GLN441     -0.0878
    116  N         59.4770    9.7420   92.5330 N.3   444  LYS444     -0.1245
    117  CA        60.5210   10.3750   93.3290 C.3   444  LYS444      0.1561
    118  C         61.7130    9.4490   93.5220 C.2   444  LYS444      0.2260
    119  O         62.8520    9.9190   93.6160 O.2   444  LYS444     -0.2867
    120  CB        59.9630   10.8150   94.6810 C.3   444  LYS444      0.0271
    121  CG        58.8630   11.8560   94.5810 C.3   444  LYS444      0.0035
    122  CD        58.5970   12.5090   95.9230 C.3   444  LYS444      0.0206
    123  CE        59.7130   13.4720   96.2910 C.3   444  LYS444      0.1093
    124  NZ        59.5800   13.9700   97.6860 N.3   444  LYS444     -0.1314
    125  N         65.4080   10.2100   92.5080 N.3   448  ARG448     -0.1245
    126  CA        66.3460   10.2400   93.6290 C.3   448  ARG448      0.1563
    127  C         67.6450    9.5140   93.2990 C.2   448  ARG448      0.2260
    128  O         68.7280    9.9490   93.7100 O.2   448  ARG448     -0.2867
    129  CB        65.6960    9.6320   94.8720 C.3   448  ARG448      0.0307
    130  CG        66.5510    9.7050   96.1250 C.3   448  ARG448      0.0489
    131  CD        65.7330    9.4100   97.3760 C.3   448  ARG448      0.2205
    132  NE        64.5110    8.6680   97.0780 N.pl3 448  ARG448     -0.0865
    133  CZ        63.2820    9.1590   97.2130 C.cat 448  ARG448      0.5346
    134  NH1       63.1010   10.4000   97.6440 N.pl3 448  ARG448      0.1354
    135  NH2       62.2330    8.4060   96.9150 N.pl3 448  ARG448      0.1354
@<TRIPOS>BOND
     1   125   126    1
     2   116   117    1
     3    98    99    1
     4    99   102    1
     5    99   100    1
     6   127   126    1
     7   127   128    2
     8   101   100    2
     9   117   118    1
    10   117   120    1
    11   118   119    2
    12   102   103    1
    13   126   129    1
    14   100   107   am
    15   103   104    1
    16   121   120    1
    17   121   122    1
    18   109   110    2
    19   109   108    1
    20   107   108    1
    21   129   130    1
    22   105   104   ar
    23   104   106   ar
    24   108   111    1
    25   122   123    1
    26   130   131    1
    27   123   124    1
    28   111   112    1
    29   135   133    1
    30   132   133    2
    31   132   131    1
    32   133   134    1
    33   112   113    1
    34   115   113   am
    35   113   114    2
    36    93    92    2
    37    92    91    1
    38    91    94    1
    39    91    90    1
    40    87    86    2
    41    94    95    1
    42    97    96    1
    43    90    86   am
    44    86    85    1
    45    95    96    1
    46     1     2    1
    47     2     3    1
    48    85    88    1
    49    85    84    1
    50     3     4    2
    51     3     5   am
    52    11    13   ar
    53    11    10   ar
    54    13    14   ar
    55    88    89    1
    56     5     6    1
    57    10     9    1
    58    10    12   ar
    59    28    27   ar
    60    28    26   ar
    61     9     6    1
    62    80    79    2
    63     6     7    1
    64    14    12   ar
    65    14    16   ar
    66    27    25   ar
    67    26    24   ar
    68    12    15   ar
    69    16    18   ar
    70    79    78    1
    71     7     8    2
    72    36    34    1
    73    25    24   ar
    74    24    23    1
    75    15    17   ar
    76    18    17   ar
    77    78    81    1
    78    78    77    1
    79    34    33    1
    80    81    83    1
    81    81    82    1
    82    23    20    1
    83    19    20    1
    84    33    35    1
    85    33    30    1
    86    20    21    1
    87    29    21   am
    88    29    30    1
    89    21    22    2
    90    30    31    1
    91    31    32    2
    92    73    72    2
    93    45    43   ar
    94    45    46   ar
    95    43    42   ar
    96    72    71    1
    97    46    48   ar
    98    46    44   ar
    99    42    41    1
   100    42    44   ar
   101    75    74    1
   102    48    50   ar
   103    71    74    1
   104    71    70    1
   105    41    38    1
   106    44    47   ar
   107    37    38    1
   108    74    76    1
   109    55    56    1
   110    55    52    1
   111    50    49   ar
   112    38    39    1
   113    51    39   am
   114    51    52    1
   115    58    56   am
   116    47    49   ar
   117    56    57    2
   118    39    40    2
   119    52    53    1
   120    53    54    2
   121    66    68   ar
   122    66    64   ar
   123    68    69   ar
   124    63    64    1
   125    63    60    1
   126    64    65   ar
   127    69    67   ar
   128    59    60    1
   129    65    67   ar
   130    60    61    1
   131    61    62    2
