@<TRIPOS>MOLECULE
tmp/5yckA02.pdb
 150 145 0 0 0
SMALL
GASTEIGER

@<TRIPOS>ATOM
      1  N         77.9820    0.7650  133.2250 N.3    49  ALA49      -0.1231
      2  CA        76.6390    1.1220  132.7810 C.3    49  ALA49       0.1694
      3  C         76.5750    2.5770  132.3330 C.2    49  ALA49       0.2591
      4  O         75.8890    2.9030  131.3570 O.2    49  ALA49      -0.2718
      5  CB        75.6290    0.8590  133.8980 C.3    49  ALA49       0.0304
      6  N         77.2830    3.4660  133.0330 N.am   50  LEU50      -0.1980
      7  CA        77.3090    4.8670  132.6240 C.3    50  LEU50       0.1596
      8  C         78.0390    5.0390  131.2990 C.2    50  LEU50       0.2287
      9  O         77.6390    5.8610  130.4660 O.2    50  LEU50      -0.2864
     10  CB        77.9590    5.7230  133.7100 C.3    50  LEU50       0.0297
     11  CG        76.9970    6.3650  134.7090 C.3    50  LEU50       0.0022
     12  CD1       77.7540    7.1800  135.7400 C.3    50  LEU50       0.0001
     13  CD2       75.9910    7.2290  133.9830 C.3    50  LEU50       0.0001
     14  N         75.5010    3.8210  128.6070 N.3    53  SER53      -0.1202
     15  CA        74.4420    4.7920  128.3480 C.3    53  SER53       0.2020
     16  C         74.9790    6.0070  127.6030 C.2    53  SER53       0.2618
     17  O         74.3430    6.5000  126.6650 O.2    53  SER53      -0.2717
     18  CB        73.7860    5.2200  129.6600 C.3    53  SER53       0.2103
     19  OG        73.1390    4.1280  130.2880 O.3    53  SER53      -0.2182
     20  N         76.1530    6.5000  128.0030 N.am   54  PHE54      -0.1975
     21  CA        76.7200    7.6840  127.3660 C.3    54  PHE54       0.1639
     22  C         77.0750    7.4090  125.9080 C.2    54  PHE54       0.2290
     23  O         76.7070    8.1790  125.0130 O.2    54  PHE54      -0.2864
     24  CB        77.9500    8.1550  128.1440 C.3    54  PHE54       0.0560
     25  CG        78.2610    9.6150  127.9660 C.ar   54  PHE54      -0.0200
     26  CD1       78.6530   10.1110  126.7320 C.ar   54  PHE54      -0.0042
     27  CD2       78.1700   10.4920  129.0340 C.ar   54  PHE54      -0.0042
     28  CE1       78.9420   11.4510  126.5660 C.ar   54  PHE54      -0.0003
     29  CE2       78.4580   11.8340  128.8740 C.ar   54  PHE54      -0.0003
     30  CZ        78.8450   12.3140  127.6380 C.ar   54  PHE54      -0.0000
     31  N         73.9830    6.9860  123.7180 N.3    57  VAL57      -0.1245
     32  CA        73.2120    8.2080  123.5020 C.3    57  VAL57       0.1561
     33  C         73.9180    9.1200  122.5000 C.2    57  VAL57       0.2260
     34  O         73.3000    9.6360  121.5620 O.2    57  VAL57      -0.2867
     35  CB        72.9610    8.9230  124.8460 C.3    57  VAL57       0.0252
     36  CG1       72.6960   10.4180  124.6480 C.3    57  VAL57       0.0019
     37  CG2       71.8030    8.2660  125.6020 C.3    57  VAL57       0.0019
     38  N         70.4800   12.1890  108.2970 N.3   238  VAL238     -0.1231
     39  CA        70.2260   13.0410  109.4610 C.3   238  VAL238      0.1678
     40  C         68.8820   12.7290  110.1100 C.2   238  VAL238      0.2434
     41  O         68.8450   12.5360  111.3370 O.2   238  VAL238     -0.2733
     42  CB        70.3740   14.5240  109.0760 C.3   238  VAL238      0.0265
     43  CG1       69.7730   15.4150  110.1530 C.3   238  VAL238      0.0020
     44  CG2       71.8350   14.8690  108.8480 C.3   238  VAL238      0.0020
     45  N         67.7600   12.6570  109.3800 N.am  239  PRO239     -0.2729
     46  CA        66.5140   12.2530  110.0500 C.3   239  PRO239      0.1401
     47  C         66.5160   10.7960  110.4740 C.2   239  PRO239      0.2269
     48  O         65.9760   10.4670  111.5370 O.2   239  PRO239     -0.2865
     49  CB        65.4380   12.5420  108.9940 C.3   239  PRO239      0.0296
     50  CG        66.1550   12.4600  107.7000 C.3   239  PRO239      0.0237
     51  CD        67.5230   13.0080  107.9660 C.3   239  PRO239      0.0939
     52  N         68.1370   10.7350  113.6490 N.3   242  ALA242     -0.1245
     53  CA        67.3020   11.3530  114.6740 C.3   242  ALA242      0.1562
     54  C         66.2490   10.3810  115.1930 C.2   242  ALA242      0.2260
     55  O         65.9950   10.3200  116.4010 O.2   242  ALA242     -0.2867
     56  CB        66.6430   12.6160  114.1230 C.3   242  ALA242      0.0290
     57  N         66.3250    9.4940  119.4050 N.3   246  LEU246     -0.1245
     58  CA        65.0270    9.7430  120.0220 C.3   246  LEU246      0.1561
     59  C         64.4540    8.4820  120.6530 C.2   246  LEU246      0.2260
     60  O         63.8990    8.5410  121.7560 O.2   246  LEU246     -0.2867
     61  CB        64.0610   10.3170  118.9870 C.3   246  LEU246      0.0270
     62  CG        64.4580   11.6880  118.4350 C.3   246  LEU246      0.0019
     63  CD1       63.8440   11.9180  117.0650 C.3   246  LEU246      0.0001
     64  CD2       64.0570   12.7890  119.4030 C.3   246  LEU246      0.0001
     65  N         67.3120    7.5630  123.3340 N.3   249  TRP249     -0.1241
     66  CA        67.3130    8.5590  124.4000 C.3   249  TRP249      0.1605
     67  C         66.1340    8.3520  125.3430 C.2   249  TRP249      0.2264
     68  O         66.2850    8.4130  126.5690 O.2   249  TRP249     -0.2867
     69  CB        67.2760    9.9640  123.8010 C.3   249  TRP249      0.0550
     70  CG        68.4910   10.3290  123.0030 C.ar  249  TRP249      0.0003
     71  CD1       69.6590    9.6290  122.9120 C.ar  249  TRP249      0.0946
     72  CD2       68.6530   11.4890  122.1810 C.ar  249  TRP249      0.0152
     73  NE1       70.5380   10.2830  122.0820 N.ar  249  TRP249     -0.2442
     74  CE2       69.9440   11.4280  121.6210 C.ar  249  TRP249      0.0810
     75  CE3       67.8300   12.5740  121.8630 C.ar  249  TRP249      0.0012
     76  CZ2       70.4310   12.4110  120.7620 C.ar  249  TRP249      0.0191
     77  CZ3       68.3140   13.5480  121.0120 C.ar  249  TRP249      0.0001
     78  CH2       69.6020   13.4600  120.4710 C.ar  249  TRP249      0.0015
     79  N         66.7240    5.6160  127.7780 N.3   252  GLU252     -0.1231
     80  CA        67.5760    6.0830  128.8660 C.3   252  GLU252      0.1699
     81  C         66.8080    7.0000  129.8120 C.2   252  GLU252      0.2592
     82  O         66.9110    6.8750  131.0380 O.2   252  GLU252     -0.2718
     83  CB        68.8000    6.7990  128.2900 C.3   252  GLU252      0.0402
     84  CG        70.1230    6.3730  128.9020 C.3   252  GLU252      0.1161
     85  CD        70.2500    4.8710  129.0290 C.2   252  GLU252      0.3649
     86  OE1       70.3060    4.1860  127.9860 O.co2 252  GLU252     -0.2457
     87  OE2       70.2860    4.3750  130.1730 O.co2 252  GLU252     -0.2457
     88  N         66.0200    7.9250  129.2550 N.am  253  LEU253     -0.1980
     89  CA        65.2560    8.8540  130.0830 C.3   253  LEU253      0.1596
     90  C         64.2670    8.1190  130.9810 C.2   253  LEU253      0.2287
     91  O         64.0360    8.5280  132.1260 O.2   253  LEU253     -0.2864
     92  CB        64.5260    9.8620  129.1960 C.3   253  LEU253      0.0297
     93  CG        65.3950   10.9110  128.5010 C.3   253  LEU253      0.0022
     94  CD1       64.5820   11.6680  127.4620 C.3   253  LEU253      0.0001
     95  CD2       65.9990   11.8670  129.5170 C.3   253  LEU253      0.0001
     96  N         64.6090    5.0890  132.3800 N.3   255  ILE255     -0.1231
     97  CA        65.3620    4.5800  133.5240 C.3   255  ILE255      0.1692
     98  C         65.7540    5.7210  134.4520 C.2   255  ILE255      0.2591
     99  O         65.6460    5.6080  135.6810 O.2   255  ILE255     -0.2718
    100  CB        66.5960    3.7900  133.0450 C.3   255  ILE255      0.0266
    101  CG1       66.1870    2.4130  132.5210 C.3   255  ILE255      0.0019
    102  CG2       67.6230    3.6460  134.1660 C.3   255  ILE255      0.0020
    103  CD1       65.5270    1.5360  133.5630 C.3   255  ILE255      0.0001
    104  N         66.2100    6.8380  133.8800 N.am  256  LEU256     -0.1980
    105  CA        66.5870    7.9950  134.6880 C.3   256  LEU256      0.1596
    106  C         65.4120    8.4880  135.5240 C.2   256  LEU256      0.2287
    107  O         65.5500    8.7300  136.7290 O.2   256  LEU256     -0.2864
    108  CB        67.1140    9.1150  133.7890 C.3   256  LEU256      0.0297
    109  CG        67.8120   10.3010  134.4640 C.3   256  LEU256      0.0022
    110  CD1       68.9560   10.8070  133.6030 C.3   256  LEU256      0.0001
    111  CD2       66.8370   11.4350  134.7620 C.3   256  LEU256      0.0001
    112  N         61.0120   11.2080  112.1330 N.3   385  ALA385     -0.1231
    113  CA        61.7360   11.9140  113.1870 C.3   385  ALA385      0.1694
    114  C         60.8280   12.9020  113.9100 C.2   385  ALA385      0.2592
    115  O         60.7580   12.9070  115.1450 O.2   385  ALA385     -0.2718
    116  CB        62.9540   12.6300  112.6050 C.3   385  ALA385      0.0304
    117  N         60.1330   13.7560  113.1540 N.am  386  TRP386     -0.1976
    118  CA        59.1890   14.6860  113.7650 C.3   386  TRP386      0.1640
    119  C         58.0560   13.9490  114.4650 C.2   386  TRP386      0.2290
    120  O         57.5460   14.4210  115.4870 O.2   386  TRP386     -0.2864
    121  CB        58.6310   15.6420  112.7090 C.3   386  TRP386      0.0576
    122  CG        59.6520   16.5960  112.1660 C.ar  386  TRP386      0.0006
    123  CD1       60.0690   16.7000  110.8710 C.ar  386  TRP386      0.0946
    124  CD2       60.3870   17.5810  112.9040 C.ar  386  TRP386      0.0152
    125  NE1       61.0180   17.6870  110.7560 N.ar  386  TRP386     -0.2442
    126  CE2       61.2310   18.2430  111.9900 C.ar  386  TRP386      0.0810
    127  CE3       60.4140   17.9660  114.2480 C.ar  386  TRP386      0.0012
    128  CZ2       62.0910   19.2690  112.3770 C.ar  386  TRP386      0.0191
    129  CZ3       61.2690   18.9850  114.6290 C.ar  386  TRP386      0.0001
    130  CH2       62.0950   19.6240  113.6970 C.ar  386  TRP386      0.0015
    131  N         59.3900   12.9220  117.9040 N.3   389  ILE389     -0.1245
    132  CA        59.3690   14.0380  118.8460 C.3   389  ILE389      0.1561
    133  C         57.9510   14.2880  119.3370 C.2   389  ILE389      0.2260
    134  O         57.6980   14.3970  120.5420 O.2   389  ILE389     -0.2867
    135  CB        59.9580   15.3000  118.1940 C.3   389  ILE389      0.0252
    136  CG1       61.4520   15.1340  117.9590 C.3   389  ILE389      0.0019
    137  CG2       59.6970   16.5270  119.0530 C.3   389  ILE389      0.0019
    138  CD1       62.0760   16.3630  117.3800 C.3   389  ILE389      0.0001
    139  N         57.9250   12.8230  123.0500 N.3   393  TYR393     -0.1241
    140  CA        58.4540   13.9190  123.8520 C.3   393  TYR393      0.1605
    141  C         57.4540   15.0420  124.0780 C.2   393  TYR393      0.2264
    142  O         57.5130   15.7050  125.1180 O.2   393  TYR393     -0.2867
    143  CB        59.7220   14.4840  123.2010 C.3   393  TYR393      0.0534
    144  CG        60.8940   13.5280  123.2610 C.ar  393  TYR393     -0.0201
    145  CD1       61.0130   12.4880  122.3480 C.ar  393  TYR393     -0.0009
    146  CD2       61.8710   13.6550  124.2400 C.ar  393  TYR393     -0.0009
    147  CE1       62.0760   11.6070  122.4030 C.ar  393  TYR393      0.0417
    148  CE2       62.9380   12.7790  124.3030 C.ar  393  TYR393      0.0417
    149  CZ        63.0360   11.7570  123.3820 C.ar  393  TYR393      0.1957
    150  OH        64.0960   10.8810  123.4400 O.3   393  TYR393     -0.2866
@<TRIPOS>BOND
     1    50    51    1
     2    50    49    1
     3    51    45    1
     4    38    39    1
     5    44    42    1
     6    49    46    1
     7    42    39    1
     8    42    43    1
     9    45    46    1
    10    45    40   am
    11    39    40    1
    12    46    47    1
    13    40    41    2
    14    47    48    2
    15   125   123   ar
    16   125   126   ar
    17   123   122   ar
    18   126   128   ar
    19   126   124   ar
    20   112   113    1
    21   122   121    1
    22   122   124   ar
    23   128   130   ar
    24   116   113    1
    25   121   118    1
    26   124   127   ar
    27   117   118    1
    28   117   114   am
    29   113   114    1
    30    52    53    1
    31   130   129   ar
    32   118   119    1
    33   114   115    2
    34    56    53    1
    35   127   129   ar
    36   119   120    2
    37    53    54    1
    38    54    55    2
    39    63    62    1
    40   138   136    1
    41   131   132    1
    42   136   135    1
    43   135   132    1
    44   135   137    1
    45    62    61    1
    46    62    64    1
    47   132   133    1
    48    61    58    1
    49   133   134    2
    50    57    58    1
    51    58    59    1
    52    78    76   ar
    53    78    77   ar
    54    59    60    2
    55    76    74   ar
    56    77    75   ar
    57    34    33    2
    58    74    73   ar
    59    74    72   ar
    60    75    72   ar
    61    73    71   ar
    62    72    70   ar
    63   145   147   ar
    64   145   144   ar
    65   147   149   ar
    66    33    32    1
    67    71    70   ar
    68    70    69    1
    69   139   140    1
    70   143   144    1
    71   143   140    1
    72   144   146   ar
    73    65    66    1
    74   149   150    1
    75   149   148   ar
    76    32    31    1
    77    32    35    1
    78    69    66    1
    79   140   141    1
    80   141   142    2
    81   146   148   ar
    82    66    67    1
    83    36    35    1
    84    35    37    1
    85    23    22    2
    86    67    68    2
    87    22    21    1
    88    28    26   ar
    89    28    30   ar
    90    17    16    2
    91    26    25   ar
    92    21    20    1
    93    21    24    1
    94    94    93    1
    95    16    20   am
    96    16    15    1
    97    30    29   ar
    98    79    80    1
    99    25    24    1
   100    25    27   ar
   101    86    85   ar
   102    83    80    1
   103    83    84    1
   104    15    14    1
   105    15    18    1
   106    93    92    1
   107    93    95    1
   108    80    81    1
   109    29    27   ar
   110    84    85    1
   111    85    87   ar
   112    92    89    1
   113    88    81   am
   114    88    89    1
   115    18    19    1
   116    81    82    2
   117    89    90    1
   118     9     8    2
   119    90    91    2
   120     8     7    1
   121     4     3    2
   122     3     2    1
   123     3     6   am
   124    96    97    1
   125   101   100    1
   126   101   103    1
   127     7     6    1
   128     7    10    1
   129     2     1    1
   130     2     5    1
   131   100    97    1
   132   100   102    1
   133    97    98    1
   134   110   109    1
   135    10    11    1
   136   108   109    1
   137   108   105    1
   138   104    98   am
   139   104   105    1
   140    13    11    1
   141    98    99    2
   142   109   111    1
   143   105   106    1
   144    11    12    1
   145   106   107    2
