@<TRIPOS>MOLECULE
tmp/5yckA01.pdb
 154 144 0 0 0
SMALL
GASTEIGER

@<TRIPOS>ATOM
      1  N         77.2830    3.4660  133.0330 N.3    50  LEU50      -0.1245
      2  CA        77.3090    4.8670  132.6240 C.3    50  LEU50       0.1561
      3  C         78.0390    5.0390  131.2990 C.2    50  LEU50       0.2260
      4  O         77.6390    5.8610  130.4660 O.2    50  LEU50      -0.2867
      5  CB        77.9590    5.7230  133.7100 C.3    50  LEU50       0.0270
      6  CG        76.9970    6.3650  134.7090 C.3    50  LEU50       0.0019
      7  CD1       77.7540    7.1800  135.7400 C.3    50  LEU50       0.0001
      8  CD2       75.9910    7.2290  133.9830 C.3    50  LEU50       0.0001
      9  N         75.5010    3.8210  128.6070 N.3    53  SER53      -0.1202
     10  CA        74.4420    4.7920  128.3480 C.3    53  SER53       0.2020
     11  C         74.9790    6.0070  127.6030 C.2    53  SER53       0.2618
     12  O         74.3430    6.5000  126.6650 O.2    53  SER53      -0.2717
     13  CB        73.7860    5.2200  129.6600 C.3    53  SER53       0.2103
     14  OG        73.1390    4.1280  130.2880 O.3    53  SER53      -0.2182
     15  N         76.1530    6.5000  128.0030 N.am   54  PHE54      -0.1975
     16  CA        76.7200    7.6840  127.3660 C.3    54  PHE54       0.1639
     17  C         77.0750    7.4090  125.9080 C.2    54  PHE54       0.2290
     18  O         76.7070    8.1790  125.0130 O.2    54  PHE54      -0.2864
     19  CB        77.9500    8.1550  128.1440 C.3    54  PHE54       0.0560
     20  CG        78.2610    9.6150  127.9660 C.ar   54  PHE54      -0.0200
     21  CD1       78.6530   10.1110  126.7320 C.ar   54  PHE54      -0.0042
     22  CD2       78.1700   10.4920  129.0340 C.ar   54  PHE54      -0.0042
     23  CE1       78.9420   11.4510  126.5660 C.ar   54  PHE54      -0.0003
     24  CE2       78.4580   11.8340  128.8740 C.ar   54  PHE54      -0.0003
     25  CZ        78.8450   12.3140  127.6380 C.ar   54  PHE54      -0.0000
     26  N         73.9830    6.9860  123.7180 N.3    57  VAL57      -0.1231
     27  CA        73.2120    8.2080  123.5020 C.3    57  VAL57       0.1692
     28  C         73.9180    9.1200  122.5000 C.2    57  VAL57       0.2592
     29  O         73.3000    9.6360  121.5620 O.2    57  VAL57      -0.2718
     30  CB        72.9610    8.9230  124.8460 C.3    57  VAL57       0.0266
     31  CG1       72.6960   10.4180  124.6480 C.3    57  VAL57       0.0020
     32  CG2       71.8030    8.2660  125.6020 C.3    57  VAL57       0.0020
     33  N         75.2270    9.3180  122.6720 N.am   58  THR58      -0.1953
     34  CA        75.9680   10.3040  121.8970 C.3    58  THR58       0.1897
     35  C         76.6590    9.7310  120.6650 C.2    58  THR58       0.2313
     36  O         77.1230   10.5080  119.8230 O.2    58  THR58      -0.2863
     37  CB        77.0150   10.9950  122.7850 C.3    58  THR58       0.1794
     38  OG1       78.0240   10.0520  123.1700 O.3    58  THR58      -0.2208
     39  CG2       76.3590   11.5690  124.0350 C.3    58  THR58       0.0378
     40  N         73.6150    7.2810  116.6610 N.3    62  ILE62      -0.1245
     41  CA        73.8440    7.9910  115.4040 C.3    62  ILE62       0.1561
     42  C         74.4320    7.0470  114.3590 C.2    62  ILE62       0.2260
     43  O         73.9950    7.0300  113.2010 O.2    62  ILE62      -0.2867
     44  CB        74.7510    9.2160  115.6390 C.3    62  ILE62       0.0252
     45  CG1       73.9390   10.4030  116.1820 C.3    62  ILE62       0.0019
     46  CG2       75.4920    9.6070  114.3570 C.3    62  ILE62       0.0019
     47  CD1       74.7090   11.3020  117.1620 C.3    62  ILE62       0.0001
     48  N         82.3640   11.8780  111.4200 N.3   100  ILE100     -0.1245
     49  CA        81.4110   11.7390  112.5170 C.3   100  ILE100      0.1561
     50  C         82.0120   10.8950  113.6330 C.2   100  ILE100      0.2260
     51  O         81.8510   11.2040  114.8200 O.2   100  ILE100     -0.2867
     52  CB        80.0850   11.1510  112.0010 C.3   100  ILE100      0.0252
     53  CG1       79.3600   12.1780  111.1300 C.3   100  ILE100      0.0019
     54  CG2       79.1980   10.7050  113.1620 C.3   100  ILE100      0.0019
     55  CD1       78.2490   11.5940  110.2940 C.3   100  ILE100      0.0001
     56  N         84.2680   13.1480  115.5810 N.3   103  ILE103     -0.1231
     57  CA        83.5360   14.0470  116.4700 C.3   103  ILE103      0.1692
     58  C         83.0810   13.3010  117.7180 C.2   103  ILE103      0.2591
     59  O         83.2550   13.7750  118.8470 O.2   103  ILE103     -0.2718
     60  CB        82.3440   14.6820  115.7320 C.3   103  ILE103      0.0266
     61  CG1       82.8280   15.5040  114.5380 C.3   103  ILE103      0.0019
     62  CG2       81.5300   15.5430  116.6840 C.3   103  ILE103      0.0020
     63  CD1       81.7080   16.0580  113.6870 C.3   103  ILE103      0.0001
     64  N         82.4880   12.1200  117.5290 N.am  104  ILE104     -0.1980
     65  CA        82.0210   11.3290  118.6640 C.3   104  ILE104      0.1595
     66  C         83.1900   10.9330  119.5560 C.2   104  ILE104      0.2287
     67  O         83.0730   10.9140  120.7880 O.2   104  ILE104     -0.2864
     68  CB        81.2420   10.0970  118.1670 C.3   104  ILE104      0.0276
     69  CG1       80.0320   10.5270  117.3370 C.3   104  ILE104      0.0022
     70  CG2       80.8000    9.2420  119.3350 C.3   104  ILE104      0.0022
     71  CD1       79.3750    9.3860  116.5910 C.3   104  ILE104      0.0001
     72  N         84.0740   13.7590  121.8140 N.3   107  ILE107     -0.1245
     73  CA        83.1060   13.8500  122.9040 C.3   107  ILE107      0.1561
     74  C         83.3880   12.7850  123.9560 C.2   107  ILE107      0.2260
     75  O         83.3450   13.0560  125.1630 O.2   107  ILE107     -0.2867
     76  CB        81.6720   13.7400  122.3520 C.3   107  ILE107      0.0252
     77  CG1       81.3790   14.8980  121.3950 C.3   107  ILE107      0.0019
     78  CG2       80.6590   13.7120  123.4880 C.3   107  ILE107      0.0019
     79  CD1       80.0050   14.8370  120.7580 C.3   107  ILE107      0.0001
     80  N         82.6400   15.3330  131.9190 N.3   114  ILE114     -0.1231
     81  CA        81.2200   15.6570  131.8130 C.3   114  ILE114      0.1692
     82  C         80.4390   15.0100  132.9490 C.2   114  ILE114      0.2591
     83  O         79.5830   15.6460  133.5760 O.2   114  ILE114     -0.2718
     84  CB        80.6760   15.2310  130.4360 C.3   114  ILE114      0.0266
     85  CG1       81.2170   16.1540  129.3430 C.3   114  ILE114      0.0019
     86  CG2       79.1530   15.2350  130.4340 C.3   114  ILE114      0.0020
     87  CD1       81.0190   15.6210  127.9420 C.3   114  ILE114      0.0001
     88  N         80.7320   13.7410  133.2440 N.am  115  LEU115     -0.1980
     89  CA        80.0120   13.0440  134.3040 C.3   115  LEU115      0.1596
     90  C         80.3390   13.6260  135.6740 C.2   115  LEU115      0.2287
     91  O         79.4730   13.6770  136.5550 O.2   115  LEU115     -0.2864
     92  CB        80.3300   11.5500  134.2610 C.3   115  LEU115      0.0297
     93  CG        79.6820   10.7570  133.1240 C.3   115  LEU115      0.0022
     94  CD1       80.2490    9.3490  133.0590 C.3   115  LEU115      0.0001
     95  CD2       78.1740   10.7220  133.2940 C.3   115  LEU115      0.0001
     96  N         78.3870   16.6540  136.0600 N.3   118  LEU118     -0.1245
     97  CA        76.9990   16.2670  136.2750 C.3   118  LEU118      0.1561
     98  C         76.7530   15.7070  137.6720 C.2   118  LEU118      0.2260
     99  O         75.6660   15.1770  137.9270 O.2   118  LEU118     -0.2867
    100  CB        76.5670   15.2480  135.2180 C.3   118  LEU118      0.0270
    101  CG        76.3960   15.8030  133.8020 C.3   118  LEU118      0.0019
    102  CD1       75.9110   14.7240  132.8500 C.3   118  LEU118      0.0001
    103  CD2       75.4450   16.9890  133.8020 C.3   118  LEU118      0.0001
    104  N         78.4410   13.2050  139.4220 N.3   120  GLN120     -0.1245
    105  CA        78.6450   11.7770  139.6140 C.3   120  GLN120      0.1566
    106  C         79.9520   11.5180  140.3520 C.2   120  GLN120      0.2260
    107  O         80.8530   12.3610  140.3900 O.2   120  GLN120     -0.2867
    108  CB        78.6440   11.0410  138.2710 C.3   120  GLN120      0.0367
    109  CG        77.3510   11.1860  137.4870 C.3   120  GLN120      0.0905
    110  CD        76.1990   10.4270  138.1170 C.2   120  GLN120      0.2608
    111  OE1       76.1660    9.1960  138.0990 O.2   120  GLN120     -0.2717
    112  NE2       75.2470   11.1600  138.6840 N.am  120  GLN120     -0.0878
    113  N         73.6380   12.4080  103.8020 N.3   234  PHE234     -0.1241
    114  CA        73.2600   13.2810  104.9090 C.3   234  PHE234      0.1605
    115  C         71.7920   13.6800  104.8210 C.2   234  PHE234      0.2264
    116  O         71.1120   13.7880  105.8480 O.2   234  PHE234     -0.2867
    117  CB        74.1470   14.5260  104.9290 C.3   234  PHE234      0.0534
    118  CG        75.5240   14.2790  105.4670 C.ar  234  PHE234     -0.0203
    119  CD1       75.7520   14.2300  106.8320 C.ar  234  PHE234     -0.0042
    120  CD2       76.5930   14.0960  104.6070 C.ar  234  PHE234     -0.0042
    121  CE1       77.0200   14.0000  107.3300 C.ar  234  PHE234     -0.0003
    122  CE2       77.8640   13.8660  105.0970 C.ar  234  PHE234     -0.0003
    123  CZ        78.0780   13.8180  106.4610 C.ar  234  PHE234     -0.0000
    124  N         67.3120    7.5630  123.3340 N.3   249  TRP249     -0.1241
    125  CA        67.3130    8.5590  124.4000 C.3   249  TRP249      0.1605
    126  C         66.1340    8.3520  125.3430 C.2   249  TRP249      0.2264
    127  O         66.2850    8.4130  126.5690 O.2   249  TRP249     -0.2867
    128  CB        67.2760    9.9640  123.8010 C.3   249  TRP249      0.0550
    129  CG        68.4910   10.3290  123.0030 C.ar  249  TRP249      0.0003
    130  CD1       69.6590    9.6290  122.9120 C.ar  249  TRP249      0.0946
    131  CD2       68.6530   11.4890  122.1810 C.ar  249  TRP249      0.0152
    132  NE1       70.5380   10.2830  122.0820 N.ar  249  TRP249     -0.2442
    133  CE2       69.9440   11.4280  121.6210 C.ar  249  TRP249      0.0810
    134  CE3       67.8300   12.5740  121.8630 C.ar  249  TRP249      0.0012
    135  CZ2       70.4310   12.4110  120.7620 C.ar  249  TRP249      0.0191
    136  CZ3       68.3140   13.5480  121.0120 C.ar  249  TRP249      0.0001
    137  CH2       69.6020   13.4600  120.4710 C.ar  249  TRP249      0.0015
    138  N         66.7240    5.6160  127.7780 N.3   252  GLU252     -0.1245
    139  CA        67.5760    6.0830  128.8660 C.3   252  GLU252      0.1567
    140  C         66.8080    7.0000  129.8120 C.2   252  GLU252      0.2260
    141  O         66.9110    6.8750  131.0380 O.2   252  GLU252     -0.2867
    142  CB        68.8000    6.7990  128.2900 C.3   252  GLU252      0.0388
    143  CG        70.1230    6.3730  128.9020 C.3   252  GLU252      0.1160
    144  CD        70.2500    4.8710  129.0290 C.2   252  GLU252      0.3649
    145  OE1       70.3060    4.1860  127.9860 O.co2 252  GLU252     -0.2457
    146  OE2       70.2860    4.3750  130.1730 O.co2 252  GLU252     -0.2457
    147  N         66.2100    6.8380  133.8800 N.3   256  LEU256     -0.1245
    148  CA        66.5870    7.9950  134.6880 C.3   256  LEU256      0.1561
    149  C         65.4120    8.4880  135.5240 C.2   256  LEU256      0.2260
    150  O         65.5500    8.7300  136.7290 O.2   256  LEU256     -0.2867
    151  CB        67.1140    9.1150  133.7890 C.3   256  LEU256      0.0270
    152  CG        67.8120   10.3010  134.4640 C.3   256  LEU256      0.0019
    153  CD1       68.9560   10.8070  133.6030 C.3   256  LEU256      0.0001
    154  CD2       66.8370   11.4350  134.7620 C.3   256  LEU256      0.0001
@<TRIPOS>BOND
     1   113   114    1
     2   120   122   ar
     3   120   118   ar
     4   115   114    1
     5   115   116    2
     6   114   117    1
     7   117   118    1
     8   122   123   ar
     9   118   119   ar
    10   123   121   ar
    11   119   121   ar
    12    55    53    1
    13    53    52    1
    14    48    49    1
    15    52    49    1
    16    52    54    1
    17    49    50    1
    18    43    42    2
    19    50    51    2
    20    63    61    1
    21    46    44    1
    22    42    41    1
    23    61    60    1
    24    41    44    1
    25    41    40    1
    26    56    57    1
    27    44    45    1
    28    60    57    1
    29    60    62    1
    30    45    47    1
    31    57    58    1
    32    71    69    1
    33    69    68    1
    34    64    58   am
    35    64    65    1
    36    58    59    2
    37    68    65    1
    38    68    70    1
    39    65    66    1
    40    66    67    2
    41    36    35    2
    42   137   135   ar
    43   137   136   ar
    44    35    34    1
    45    79    77    1
    46   135   133   ar
    47   136   134   ar
    48    77    76    1
    49    29    28    2
    50   133   132   ar
    51   133   131   ar
    52    72    73    1
    53   134   131   ar
    54    34    33    1
    55    34    37    1
    56   132   130   ar
    57   131   129   ar
    58    76    73    1
    59    76    78    1
    60    28    33   am
    61    28    27    1
    62    37    38    1
    63    37    39    1
    64    73    74    1
    65   130   129   ar
    66   129   128    1
    67   124   125    1
    68    27    26    1
    69    27    30    1
    70   128   125    1
    71    74    75    2
    72   125   126    1
    73    31    30    1
    74    30    32    1
    75    18    17    2
    76   126   127    2
    77    17    16    1
    78    23    21   ar
    79    23    25   ar
    80    12    11    2
    81    21    20   ar
    82    16    15    1
    83    16    19    1
    84    11    15   am
    85    11    10    1
    86    25    24   ar
    87   138   139    1
    88    87    85    1
    89    20    19    1
    90    20    22   ar
    91   145   144   ar
    92   142   139    1
    93   142   143    1
    94    10     9    1
    95    10    13    1
    96   139   140    1
    97    24    22   ar
    98   143   144    1
    99   144   146   ar
   100    85    84    1
   101    13    14    1
   102   140   141    2
   103    86    84    1
   104    84    81    1
   105     4     3    2
   106     3     2    1
   107    81    80    1
   108    81    82    1
   109     2     1    1
   110     2     5    1
   111   102   101    1
   112    82    88   am
   113    82    83    2
   114    94    93    1
   115    93    95    1
   116    93    92    1
   117    88    89    1
   118   153   152    1
   119     5     6    1
   120   151   152    1
   121   151   148    1
   122   101   103    1
   123   101   100    1
   124   147   148    1
   125     8     6    1
   126    92    89    1
   127    89    90    1
   128   152   154    1
   129   148   149    1
   130     6     7    1
   131   100    97    1
   132   149   150    2
   133    90    91    2
   134    96    97    1
   135    97    98    1
   136   109   110    1
   137   109   108    1
   138    98    99    2
   139   111   110    2
   140   110   112   am
   141   108   105    1
   142   104   105    1
   143   105   106    1
   144   106   107    2
