@<TRIPOS>MOLECULE
tmp/5ycsD01.pdb
 150 141 0 0 0
SMALL
GASTEIGER

@<TRIPOS>ATOM
      1  N        -53.4130   47.4850   19.7340 N.3    93  CYS93      -0.1235
      2  CA       -54.3490   48.6140   19.6980 C.3    93  CYS93       0.1677
      3  C        -54.2780   49.3770   21.0020 C.2    93  CYS93       0.2270
      4  O        -55.2800   49.4860   21.7120 O.2    93  CYS93      -0.2867
      5  CB       -55.7910   48.1450   19.4660 C.3    93  CYS93       0.0956
      6  SG       -55.9760   46.9810   18.0960 S.3    93  CYS93      -0.0801
      7  N        -52.6180   52.7540   23.3310 N.3    95  ALA95      -0.1231
      8  CA       -51.9670   54.0460   23.4400 C.3    95  ALA95       0.1694
      9  C        -52.3990   54.7150   24.7240 C.2    95  ALA95       0.2592
     10  O        -53.4810   54.4340   25.2410 O.2    95  ALA95      -0.2718
     11  CB       -52.3010   54.9420   22.2450 C.3    95  ALA95       0.0304
     12  N        -51.5610   55.6120   25.2250 N.am   96  PHE96      -0.1962
     13  CA       -51.9370   56.4420   26.3580 C.3    96  PHE96       0.1771
     14  C        -51.0400   57.6670   26.4330 C.2    96  PHE96       0.2619
     15  O        -49.8670   57.6060   26.0840 O.2    96  PHE96      -0.2715
     16  CB       -51.8470   55.6520   27.6720 C.3    96  PHE96       0.0574
     17  CG       -52.2750   56.4450   28.8800 C.ar   96  PHE96      -0.0200
     18  CD1      -53.6180   56.5990   29.1780 C.ar   96  PHE96      -0.0042
     19  CD2      -51.3350   57.0510   29.7020 C.ar   96  PHE96      -0.0042
     20  CE1      -54.0220   57.3390   30.2890 C.ar   96  PHE96      -0.0003
     21  CE2      -51.7270   57.7910   30.8170 C.ar   96  PHE96      -0.0003
     22  CZ       -53.0720   57.9350   31.1100 C.ar   96  PHE96      -0.0000
     23  N        -51.6090   58.7800   26.8700 N.am   97  ALA97      -0.1977
     24  CA       -50.8230   59.9410   27.2710 C.3    97  ALA97       0.1597
     25  C        -51.6080   60.6710   28.3460 C.2    97  ALA97       0.2287
     26  O        -52.8340   60.5470   28.3880 O.2    97  ALA97      -0.2864
     27  CB       -50.5410   60.8580   26.0830 C.3    97  ALA97       0.0319
     28  N        -53.6350   63.5130   30.1470 N.3    99  ARG99      -0.1245
     29  CA       -54.5590   64.4380   29.5000 C.3    99  ARG99       0.1563
     30  C        -54.1190   65.9030   29.6060 C.2    99  ARG99       0.2260
     31  O        -54.5240   66.7270   28.7970 O.2    99  ARG99      -0.2867
     32  CB       -55.9820   64.2630   30.0490 C.3    99  ARG99       0.0307
     33  CG       -56.8590   63.4180   29.1120 C.3    99  ARG99       0.0489
     34  CD       -58.2520   63.1470   29.6650 C.3    99  ARG99       0.2205
     35  NE       -58.2400   62.0760   30.6570 N.pl3  99  ARG99      -0.0865
     36  CZ       -58.8440   62.1480   31.8390 C.cat  99  ARG99       0.5346
     37  NH1      -59.5180   63.2440   32.1750 N.pl3  99  ARG99       0.1354
     38  NH2      -58.7740   61.1280   32.6870 N.pl3  99  ARG99       0.1354
     39  N        -52.1350   66.6570   26.5090 N.3   102  LEU102     -0.1245
     40  CA       -52.9510   66.8130   25.3200 C.3   102  LEU102      0.1561
     41  C        -53.6040   68.1980   25.2780 C.2   102  LEU102      0.2260
     42  O        -53.9600   68.6900   24.2120 O.2   102  LEU102     -0.2867
     43  CB       -54.0050   65.7060   25.2580 C.3   102  LEU102      0.0270
     44  CG       -53.4170   64.2970   25.1510 C.3   102  LEU102      0.0019
     45  CD1      -54.5060   63.2430   25.2510 C.3   102  LEU102      0.0001
     46  CD2      -52.6360   64.1450   23.8490 C.3   102  LEU102      0.0001
     47  N        -52.3760   57.3680   13.6720 N.3   147  TYR147     -0.1241
     48  CA       -53.2550   58.4800   13.3560 C.3   147  TYR147      0.1605
     49  C        -52.5020   59.5250   12.5380 C.2   147  TYR147      0.2264
     50  O        -51.2930   59.6550   12.6670 O.2   147  TYR147     -0.2867
     51  CB       -53.7920   59.1070   14.6440 C.3   147  TYR147      0.0534
     52  CG       -54.7690   60.2340   14.4220 C.ar  147  TYR147     -0.0201
     53  CD1      -55.9490   60.0230   13.7140 C.ar  147  TYR147     -0.0009
     54  CD2      -54.5330   61.5070   14.9530 C.ar  147  TYR147     -0.0009
     55  CE1      -56.8560   61.0490   13.5180 C.ar  147  TYR147      0.0417
     56  CE2      -55.4440   62.5430   14.7700 C.ar  147  TYR147      0.0417
     57  CZ       -56.6030   62.3040   14.0470 C.ar  147  TYR147      0.1957
     58  OH       -57.5190   63.3150   13.8590 O.3   147  TYR147     -0.2866
     59  N        -53.5070   67.1460   19.5400 N.3   157  TYR157     -0.1241
     60  CA       -52.9110   65.8110   19.6080 C.3   157  TYR157      0.1605
     61  C        -51.5090   65.8210   20.2250 C.2   157  TYR157      0.2264
     62  O        -51.1340   64.8790   20.9170 O.2   157  TYR157     -0.2867
     63  CB       -52.8770   65.2010   18.2210 C.3   157  TYR157      0.0534
     64  CG       -52.9310   63.6950   18.1720 C.ar  157  TYR157     -0.0201
     65  CD1      -53.9740   62.9820   18.7620 C.ar  157  TYR157     -0.0009
     66  CD2      -51.9550   62.9900   17.5010 C.ar  157  TYR157     -0.0009
     67  CE1      -54.0160   61.5870   18.6890 C.ar  157  TYR157      0.0417
     68  CE2      -51.9870   61.6140   17.4180 C.ar  157  TYR157      0.0417
     69  CZ       -53.0140   60.9150   18.0020 C.ar  157  TYR157      0.1957
     70  OH       -53.0050   59.5430   17.8920 O.3   157  TYR157     -0.2866
     71  N        -49.0900   62.9610   21.6960 N.3   160  MET160     -0.1245
     72  CA       -49.4770   61.6960   21.0710 C.3   160  MET160      0.1570
     73  C        -49.0580   61.6870   19.6000 C.2   160  MET160      0.2261
     74  O        -48.7790   60.6380   19.0350 O.2   160  MET160     -0.2867
     75  CB       -50.9850   61.4530   21.1840 C.3   160  MET160      0.0387
     76  CG       -51.4020   60.0380   20.7310 C.3   160  MET160      0.0595
     77  SD       -50.6110   58.7350   21.7180 S.3   160  MET160     -0.1393
     78  CE       -51.6490   58.7930   23.1750 C.3   160  MET160      0.0692
     79  N        -46.9270   58.7790   17.9550 N.3   164  LYS164     -0.1245
     80  CA       -47.3430   58.0550   16.7420 C.3   164  LYS164      0.1561
     81  C        -46.2570   58.1260   15.6600 C.2   164  LYS164      0.2260
     82  O        -46.1030   57.1970   14.8750 O.2   164  LYS164     -0.2867
     83  CB       -48.6720   58.5940   16.1910 C.3   164  LYS164      0.0271
     84  CG       -49.8820   58.3110   17.0930 C.3   164  LYS164      0.0035
     85  CD       -50.0590   56.8100   17.3570 C.3   164  LYS164      0.0206
     86  CE       -51.3720   56.5600   18.1430 C.3   164  LYS164      0.1093
     87  NZ       -51.6300   55.1090   18.4140 N.3   164  LYS164     -0.1314
     88  N        -60.7340   59.7450   12.7720 N.3   192  PRO192     -0.2102
     89  CA       -61.3290   59.9290   14.1040 C.3   192  PRO192      0.1504
     90  C        -62.5610   59.0610   14.3020 C.2   192  PRO192      0.2575
     91  O        -63.4260   59.0050   13.4170 O.2   192  PRO192     -0.2718
     92  CB       -61.7130   61.4140   14.1330 C.3   192  PRO192      0.0282
     93  CG       -60.8990   62.0550   13.0670 C.3   192  PRO192      0.0208
     94  CD       -60.6510   61.0080   12.0170 C.3   192  PRO192      0.0893
     95  N        -62.6100   58.3830   15.4500 N.am  193  ILE193     -0.1980
     96  CA       -63.7200   57.5260   15.8460 C.3   193  ILE193      0.1595
     97  C        -64.0210   57.7790   17.3280 C.2   193  ILE193      0.2287
     98  O        -63.1090   57.8450   18.1510 O.2   193  ILE193     -0.2864
     99  CB       -63.3930   56.0410   15.6400 C.3   193  ILE193      0.0276
    100  CG1      -63.1260   55.7450   14.1630 C.3   193  ILE193      0.0022
    101  CG2      -64.5240   55.1450   16.1890 C.3   193  ILE193      0.0022
    102  CD1      -62.5500   54.3660   13.9210 C.3   193  ILE193      0.0001
    103  N        -64.3430   56.9110   20.7000 N.3   195  THR195     -0.1218
    104  CA       -63.9990   55.7910   21.5720 C.3   195  THR195      0.1862
    105  C        -63.8100   56.3190   22.9850 C.2   195  THR195      0.2287
    106  O        -63.9370   57.5190   23.2060 O.2   195  THR195     -0.2866
    107  CB       -62.7140   55.0920   21.1250 C.3   195  THR195      0.1770
    108  OG1      -61.6210   56.0130   21.2490 O.3   195  THR195     -0.2211
    109  CG2      -62.8340   54.6150   19.6670 C.3   195  THR195      0.0375
    110  N        -61.0130   56.6230   24.5130 N.3   197  SER197     -0.1202
    111  CA       -59.8220   57.4570   24.5450 C.3   197  SER197      0.2020
    112  C        -60.0100   58.7730   23.7980 C.2   197  SER197      0.2618
    113  O        -59.1900   59.6760   23.9200 O.2   197  SER197     -0.2717
    114  CB       -58.6420   56.6890   23.9710 C.3   197  SER197      0.2103
    115  OG       -58.2400   55.6690   24.8670 O.3   197  SER197     -0.2182
    116  N        -61.0880   58.8870   23.0330 N.am  198  ALA198     -0.1979
    117  CA       -61.3280   60.0920   22.2450 C.3   198  ALA198      0.1597
    118  C        -61.7760   61.2410   23.1400 C.2   198  ALA198      0.2287
    119  O        -61.7460   62.4040   22.7340 O.2   198  ALA198     -0.2864
    120  CB       -62.3590   59.8260   21.1490 C.3   198  ALA198      0.0319
    121  N        -60.1460   62.2400   25.5540 N.3   200  GLY200     -0.1210
    122  CA       -58.9130   62.9690   25.7970 C.3   200  GLY200      0.1956
    123  C        -58.5910   64.0530   24.7780 C.2   200  GLY200      0.2611
    124  O        -57.7970   64.9520   25.0580 O.2   200  GLY200     -0.2717
    125  N        -59.1990   63.9720   23.5970 N.am  201  VAL201     -0.1979
    126  CA       -58.9770   64.9650   22.5410 C.3   201  VAL201      0.1595
    127  C        -60.1030   66.0150   22.5140 C.2   201  VAL201      0.2287
    128  O        -61.2880   65.6670   22.4970 O.2   201  VAL201     -0.2864
    129  CB       -58.8610   64.2870   21.1490 C.3   201  VAL201      0.0276
    130  CG1      -58.5680   65.3200   20.0730 C.3   201  VAL201      0.0022
    131  CG2      -57.7820   63.2060   21.1620 C.3   201  VAL201      0.0022
    132  N        -64.2530   67.1170   20.0560 N.3   204  PHE204     -0.1241
    133  CA       -64.2690   65.9600   19.1740 C.3   204  PHE204      0.1605
    134  C        -65.4240   66.0050   18.1750 C.2   204  PHE204      0.2264
    135  O        -65.2820   65.5380   17.0460 O.2   204  PHE204     -0.2867
    136  CB       -64.3210   64.6620   19.9810 C.3   204  PHE204      0.0534
    137  CG       -63.7920   63.4740   19.2340 C.ar  204  PHE204     -0.0203
    138  CD1      -62.4320   63.3280   19.0250 C.ar  204  PHE204     -0.0042
    139  CD2      -64.6510   62.5170   18.7310 C.ar  204  PHE204     -0.0042
    140  CE1      -61.9320   62.2430   18.3280 C.ar  204  PHE204     -0.0003
    141  CE2      -64.1630   61.4290   18.0340 C.ar  204  PHE204     -0.0003
    142  CZ       -62.7970   61.2880   17.8350 C.ar  204  PHE204     -0.0000
    143  N        -64.3310   67.9650   15.2510 N.3   207  ILE207     -0.1245
    144  CA       -63.4280   67.1900   14.4100 C.3   207  ILE207      0.1561
    145  C        -64.2000   66.2460   13.4840 C.2   207  ILE207      0.2260
    146  O        -63.9220   66.1760   12.2790 O.2   207  ILE207     -0.2867
    147  CB       -62.4390   66.3870   15.2640 C.3   207  ILE207      0.0252
    148  CG1      -61.5220   67.3370   16.0390 C.3   207  ILE207      0.0019
    149  CG2      -61.6170   65.4390   14.4010 C.3   207  ILE207      0.0019
    150  CD1      -60.7680   66.6710   17.1740 C.3   207  ILE207      0.0001
@<TRIPOS>BOND
     1    94    88    1
     2    94    93    1
     3   146   145    2
     4    49    50    2
     5    49    48    1
     6    88    89    1
     7    93    92    1
     8    48    47    1
     9    48    51    1
    10    91    90    2
    11   145   144    1
    12    55    53   ar
    13    55    57   ar
    14    53    52   ar
    15    58    57    1
    16   102   100    1
    17    57    56   ar
    18    89    92    1
    19    89    90    1
    20   100    99    1
    21    90    95   am
    22   149   147    1
    23   144   143    1
    24   144   147    1
    25    52    51    1
    26    52    54   ar
    27    56    54   ar
    28    82    81    2
    29   147   148    1
    30    95    96    1
    31    99    96    1
    32    99   101    1
    33    81    80    1
    34    96    97    1
    35   148   150    1
    36    83    80    1
    37    83    84    1
    38    80    79    1
    39   135   134    2
    40    84    85    1
    41    97    98    2
    42    85    86    1
    43    68    66   ar
    44    68    69   ar
    45    66    64   ar
    46   142   141   ar
    47   142   140   ar
    48    70    69    1
    49    69    67   ar
    50   141   139   ar
    51     6     5    1
    52    86    87    1
    53    64    63    1
    54    64    65   ar
    55   134   133    1
    56    63    60    1
    57   140   138   ar
    58    67    65   ar
    59   139   137   ar
    60   138   137   ar
    61    74    73    2
    62   133   136    1
    63   133   132    1
    64   137   136    1
    65     5     2    1
    66    59    60    1
    67    73    72    1
    68    60    61    1
    69   109   107    1
    70     2     1    1
    71     2     3    1
    72   130   129    1
    73    61    62    2
    74   103   104    1
    75    76    75    1
    76    76    77    1
    77     3     4    2
    78    72    75    1
    79    72    71    1
    80   107   108    1
    81   107   104    1
    82   129   131    1
    83   129   126    1
    84   120   117    1
    85   104   105    1
    86    77    78    1
    87   117   116    1
    88   117   118    1
    89    11     8    1
    90   128   127    2
    91   127   126    1
    92   126   125    1
    93   119   118    2
    94   105   106    2
    95   116   112   am
    96     7     8    1
    97     8     9    1
    98   125   123   am
    99   112   113    2
   100   112   111    1
   101    46    44    1
   102   114   111    1
   103   114   115    1
   104    42    41    2
   105   110   111    1
   106     9    12   am
   107     9    10    2
   108   123   124    2
   109   123   122    1
   110    44    45    1
   111    44    43    1
   112    12    13    1
   113    43    40    1
   114    41    40    1
   115    40    39    1
   116   121   122    1
   117    27    24    1
   118    15    14    2
   119    13    14    1
   120    13    16    1
   121    14    23   am
   122    23    24    1
   123    24    25    1
   124    16    17    1
   125    25    26    2
   126    31    30    2
   127    17    18   ar
   128    17    19   ar
   129    33    34    1
   130    33    32    1
   131    18    20   ar
   132    29    30    1
   133    29    32    1
   134    29    28    1
   135    34    35    1
   136    19    21   ar
   137    20    22   ar
   138    35    36    2
   139    21    22   ar
   140    36    37    1
   141    36    38    1
