@<TRIPOS>MOLECULE
tmp/5yd2A00.pdb
 104 97 0 0 0
SMALL
GASTEIGER

@<TRIPOS>ATOM
      1  N        -33.7830   25.7720  111.0560 N.3    67  GLY67      -0.1210
      2  CA       -32.6060   26.4850  111.4170 C.3    67  GLY67       0.1956
      3  C        -31.4250   26.0360  110.5990 C.2    67  GLY67       0.2612
      4  O        -31.5560   25.2650  109.6490 O.2    67  GLY67      -0.2717
      5  N        -30.2700   26.5630  110.9690 N.am   68  ALA68      -0.1965
      6  CA       -29.0610   26.2380  110.2980 C.3    68  ALA68       0.1728
      7  C        -28.8110   24.7580  110.3270 C.2    68  ALA68       0.2616
      8  O        -28.1850   24.2660  109.4090 O.2    68  ALA68      -0.2715
      9  CB       -27.8910   27.0010  110.9240 C.3    68  ALA68       0.0334
     10  N        -29.2860   24.0450  111.3530 N.am   69  SER69      -0.1950
     11  CA       -29.0420   22.5950  111.4290 C.3    69  SER69       0.1924
     12  C        -29.6940   21.8300  110.3180 C.2    69  SER69       0.2314
     13  O        -29.1460   20.8440  109.8390 O.2    69  SER69      -0.2863
     14  CB       -29.4770   22.0100  112.7530 C.3    69  SER69       0.2116
     15  OG       -29.0000   22.8450  113.8060 O.3    69  SER69      -0.2180
     16  N        -27.1640   22.0310  107.6400 N.3    72  PHE72      -0.1241
     17  CA       -26.0630   21.1180  107.7350 C.3    72  PHE72       0.1605
     18  C        -26.3560   19.9130  106.8320 C.2    72  PHE72       0.2264
     19  O        -25.5070   19.4670  106.0690 O.2    72  PHE72      -0.2867
     20  CB       -25.8820   20.6570  109.1650 C.3    72  PHE72       0.0534
     21  CG       -25.5200   21.7390  110.1150 C.ar   72  PHE72      -0.0203
     22  CD1      -25.0160   22.9570  109.6800 C.ar   72  PHE72      -0.0042
     23  CD2      -25.6100   21.5120  111.4800 C.ar   72  PHE72      -0.0042
     24  CE1      -24.6570   23.9540  110.5780 C.ar   72  PHE72      -0.0003
     25  CE2      -25.2290   22.4860  112.3850 C.ar   72  PHE72      -0.0003
     26  CZ       -24.7280   23.7040  111.9310 C.ar   72  PHE72      -0.0000
     27  N        -20.3780   24.7570  116.2260 N.3    92  TRP92      -0.1241
     28  CA       -21.2580   24.7590  115.0540 C.3    92  TRP92       0.1605
     29  C        -20.5670   24.1200  113.8840 C.2    92  TRP92       0.2264
     30  O        -21.1480   23.2740  113.2090 O.2    92  TRP92      -0.2867
     31  CB       -21.7880   26.1650  114.7430 C.3    92  TRP92       0.0550
     32  CG       -22.5590   26.6280  115.8900 C.ar   92  TRP92       0.0003
     33  CD1      -22.2610   27.6470  116.6870 C.ar   92  TRP92       0.0946
     34  CD2      -23.7130   26.0150  116.4220 C.ar   92  TRP92       0.0152
     35  NE1      -23.1640   27.7360  117.7080 N.ar   92  TRP92      -0.2442
     36  CE2      -24.0710   26.7350  117.5680 C.ar   92  TRP92       0.0810
     37  CE3      -24.5130   24.9310  116.0200 C.ar   92  TRP92       0.0012
     38  CZ2      -25.1910   26.4290  118.3330 C.ar   92  TRP92       0.0191
     39  CZ3      -25.6290   24.6110  116.7960 C.ar   92  TRP92       0.0001
     40  CH2      -25.9400   25.3520  117.9560 C.ar   92  TRP92       0.0015
     41  N        -17.2660   27.8280  108.8410 N.3   135  THR135     -0.1218
     42  CA       -18.1270   28.5370  109.7480 C.3   135  THR135      0.1862
     43  C        -17.4390   29.8570  109.9990 C.2   135  THR135      0.2287
     44  O        -16.3630   29.8910  110.6130 O.2   135  THR135     -0.2866
     45  CB       -18.2620   27.7040  111.0120 C.3   135  THR135      0.1770
     46  OG1      -18.7400   26.3950  110.6480 O.3   135  THR135     -0.2211
     47  CG2      -19.2170   28.3410  111.9730 C.3   135  THR135      0.0375
     48  N        -18.0770   32.7940  111.6490 N.3   137  ASN137     -0.1240
     49  CA       -18.0250   33.3220  112.9840 C.3   137  ASN137      0.1653
     50  C        -18.3910   32.1700  113.9160 C.2   137  ASN137      0.2266
     51  O        -19.4480   31.5360  113.7630 O.2   137  ASN137     -0.2867
     52  CB       -18.9710   34.5020  113.1030 C.3   137  ASN137      0.1155
     53  CG       -18.7560   35.2850  114.3830 C.2   137  ASN137      0.2627
     54  OD1      -19.4120   35.0300  115.3820 O.2   137  ASN137     -0.2716
     55  ND2      -17.8390   36.2450  114.3540 N.am  137  ASN137     -0.0877
     56  N        -19.5890   31.1010  117.0910 N.3   139  THR139     -0.1218
     57  CA       -20.3900   31.8400  118.0690 C.3   139  THR139      0.1862
     58  C        -20.0190   31.5570  119.5080 C.2   139  THR139      0.2287
     59  O        -20.1450   32.4240  120.3700 O.2   139  THR139     -0.2866
     60  CB       -21.8800   31.4400  117.8800 C.3   139  THR139      0.1770
     61  OG1      -22.1450   31.2420  116.4670 O.3   139  THR139     -0.2211
     62  CG2      -22.7980   32.4720  118.4680 C.3   139  THR139      0.0375
     63  N        -21.3770   28.8000  106.7480 N.3   158  ASP158     -0.1239
     64  CA       -22.4150   29.0320  107.7550 C.3   158  ASP158      0.1674
     65  C        -22.2180   30.3940  108.4160 C.2   158  ASP158      0.2266
     66  O        -21.3320   30.5790  109.2320 O.2   158  ASP158     -0.2867
     67  CB       -22.3520   27.9210  108.8010 C.3   158  ASP158      0.1410
     68  CG       -23.2860   28.1290  109.9550 C.2   158  ASP158      0.3668
     69  OD1      -24.0250   29.1540  109.9810 O.co2 158  ASP158     -0.2456
     70  OD2      -23.2340   27.2750  110.8850 O.co2 158  ASP158     -0.2456
     71  N        -24.4290   32.0190  110.2190 N.3   160  SER160     -0.1202
     72  CA       -25.5240   32.2520  111.1710 C.3   160  SER160      0.2020
     73  C        -25.2530   33.3930  112.1370 C.2   160  SER160      0.2619
     74  O        -26.1330   34.2100  112.3770 O.2   160  SER160     -0.2717
     75  CB       -25.8590   30.9650  111.9110 C.3   160  SER160      0.2103
     76  OG       -26.3420   29.9880  111.0020 O.3   160  SER160     -0.2182
     77  N        -24.0230   33.5000  112.6390 N.am  161  SER161     -0.1951
     78  CA       -23.7120   34.5400  113.6340 C.3   161  SER161      0.1924
     79  C        -23.0920   35.8080  113.0530 C.2   161  SER161      0.2314
     80  O        -22.8910   36.7240  113.7800 O.2   161  SER161     -0.2863
     81  CB       -22.9160   33.9990  114.8350 C.3   161  SER161      0.2116
     82  OG       -21.7730   33.2370  114.5030 O.3   161  SER161     -0.2180
     83  N        -29.1770   30.6770  109.9110 N.3   179  GLY179     -0.1225
     84  CA       -30.2700   30.7130  110.8600 C.3   179  GLY179      0.1811
     85  C        -30.3390   32.1840  111.2100 C.2   179  GLY179      0.2280
     86  O        -29.3320   32.8680  111.1430 O.2   179  GLY179     -0.2866
     87  N        -31.8060   34.1970  113.7550 N.3   181  GLN181     -0.1231
     88  CA       -32.0560   34.7690  115.0880 C.3   181  GLN181      0.1698
     89  C        -30.8530   35.5510  115.6980 C.2   181  GLN181      0.2592
     90  O        -30.6520   35.5420  116.9320 O.2   181  GLN181     -0.2718
     91  CB       -32.5230   33.6490  116.0440 C.3   181  GLN181      0.0381
     92  CG       -31.4320   32.8690  116.7910 C.3   181  GLN181      0.0905
     93  CD       -30.6870   31.8750  115.9130 C.2   181  GLN181      0.2608
     94  OE1      -30.4220   32.1380  114.7290 O.2   181  GLN181     -0.2717
     95  NE2      -30.3350   30.7210  116.4950 N.am  181  GLN181     -0.0878
     96  N        -30.0600   36.2100  114.8550 N.am  182  LYS182     -0.1980
     97  CA       -28.8870   36.9600  115.3180 C.3   182  LYS182      0.1596
     98  C        -28.4560   38.0270  114.3040 C.2   182  LYS182      0.2287
     99  O        -27.4150   37.8770  113.6480 O.2   182  LYS182     -0.2864
    100  CB       -27.7080   36.0060  115.5440 C.3   182  LYS182      0.0298
    101  CG       -27.9300   34.9500  116.6100 C.3   182  LYS182      0.0038
    102  CD       -26.7140   34.0630  116.7570 C.3   182  LYS182      0.0206
    103  CE       -26.6980   32.9800  115.7390 C.3   182  LYS182      0.1093
    104  NZ       -27.3920   31.8120  116.3020 N.3   182  LYS182     -0.1314
@<TRIPOS>BOND
     1    19    18    2
     2    63    64    1
     3    18    17    1
     4    16    17    1
     5    17    20    1
     6    64    65    1
     7    64    67    1
     8    65    66    2
     9    67    68    1
    10    41    42    1
    11    20    21    1
    12     8     7    2
    13     4     3    2
    14    22    21   ar
    15    22    24   ar
    16    42    43    1
    17    42    45    1
    18    13    12    2
    19    83    84    1
    20    68    69   ar
    21    68    70   ar
    22    43    44    2
    23    21    23   ar
    24    71    72    1
    25     6     7    1
    26     6     9    1
    27     6     5    1
    28    12    11    1
    29     7    10   am
    30    24    26   ar
    31     3     5   am
    32     3     2    1
    33    46    45    1
    34    84    85    1
    35    76    75    1
    36    45    47    1
    37     1     2    1
    38    86    85    2
    39    72    75    1
    40    72    73    1
    41    10    11    1
    42    11    14    1
    43    23    25   ar
    44    48    49    1
    45    26    25   ar
    46    73    74    2
    47    73    77   am
    48    77    78    1
    49    14    15    1
    50    49    52    1
    51    49    50    1
    52    79    78    1
    53    79    80    2
    54    52    53    1
    55    30    29    2
    56    78    81    1
    57    99    98    2
    58    87    88    1
    59    51    50    2
    60    29    28    1
    61    98    97    1
    62    55    53   am
    63    53    54    2
    64    82    81    1
    65    94    93    2
    66    31    28    1
    67    31    32    1
    68    96    97    1
    69    96    89   am
    70    28    27    1
    71    88    89    1
    72    88    91    1
    73    97   100    1
    74   100   101    1
    75    89    90    2
    76   103   104    1
    77   103   102    1
    78    32    34   ar
    79    32    33   ar
    80    93    95   am
    81    93    92    1
    82    37    34   ar
    83    37    39   ar
    84    91    92    1
    85    34    36   ar
    86    61    60    1
    87   101   102    1
    88    33    35   ar
    89    39    40   ar
    90    56    57    1
    91    36    35   ar
    92    36    38   ar
    93    60    57    1
    94    60    62    1
    95    40    38   ar
    96    57    58    1
    97    58    59    2
