@<TRIPOS>MOLECULE
tmp/5ydbD00.pdb
 111 105 0 0 0
SMALL
GASTEIGER

@<TRIPOS>ATOM
      1  N          0.6040   25.6210  -72.0940 N.3     9  PRO9       -0.2102
      2  CA         1.7380   25.4290  -72.9070 C.3     9  PRO9        0.1504
      3  C          1.5670   24.5530  -74.1540 C.2     9  PRO9        0.2576
      4  O          0.7380   23.6630  -74.1810 O.2     9  PRO9       -0.2718
      5  CB         2.6890   24.6850  -71.9840 C.3     9  PRO9        0.0282
      6  CG         2.2620   25.0230  -70.6190 C.3     9  PRO9        0.0208
      7  CD         0.8460   25.3460  -70.6480 C.3     9  PRO9        0.0893
      8  N          2.3090   24.8640  -75.2090 N.am   10  ASN10      -0.1961
      9  CA         2.3770   24.1160  -76.4480 C.3    10  ASN10       0.1819
     10  C          1.2120   24.3780  -77.3770 C.2    10  ASN10       0.2621
     11  O          1.3030   24.0590  -78.5330 O.2    10  ASN10      -0.2715
     12  CB         2.6660   22.6270  -76.2060 C.3    10  ASN10       0.1195
     13  CG         4.0130   22.4420  -75.5630 C.2    10  ASN10       0.2630
     14  OD1        5.0550   22.8560  -76.1450 O.2    10  ASN10      -0.2716
     15  ND2        4.0520   21.8310  -74.3770 N.am   10  ASN10      -0.0877
     16  N          0.1690   25.0280  -76.9000 N.am   11  LEU11      -0.1977
     17  CA        -1.0640   25.1420  -77.6370 C.3    11  LEU11       0.1596
     18  C         -0.8610   26.1860  -78.7550 C.2    11  LEU11       0.2287
     19  O         -1.6440   26.2220  -79.6880 O.2    11  LEU11      -0.2864
     20  CB        -2.2120   25.5000  -76.7460 C.3    11  LEU11       0.0297
     21  CG        -2.8460   24.2790  -76.0010 C.3    11  LEU11       0.0022
     22  CD1       -3.9730   24.6510  -75.0900 C.3    11  LEU11       0.0001
     23  CD2       -3.3700   23.2130  -76.9630 C.3    11  LEU11       0.0001
     24  N         -4.3060   14.4910  -83.0730 N.3    21  VAL21      -0.1245
     25  CA        -4.7370   14.6210  -81.6890 C.3    21  VAL21       0.1561
     26  C         -5.6580   15.8440  -81.4890 C.2    21  VAL21       0.2260
     27  O         -5.9620   16.2110  -80.3230 O.2    21  VAL21      -0.2867
     28  CB        -3.4970   14.7130  -80.7400 C.3    21  VAL21       0.0252
     29  CG1       -3.9060   14.6430  -79.2550 C.3    21  VAL21       0.0019
     30  CG2       -2.5070   13.5820  -81.0370 C.3    21  VAL21       0.0019
     31  N         -7.8450   25.6580  -70.9340 N.3    74  ASN74      -0.1240
     32  CA        -7.1470   24.5130  -71.3520 C.3    74  ASN74       0.1653
     33  C         -5.7610   24.5160  -70.8170 C.2    74  ASN74       0.2266
     34  O         -4.8920   25.0950  -71.4380 O.2    74  ASN74      -0.2867
     35  CB        -7.1410   24.3890  -72.8760 C.3    74  ASN74       0.1155
     36  CG        -6.4590   23.1020  -73.3220 C.2    74  ASN74       0.2627
     37  OD1       -5.7770   22.3990  -72.5290 O.2    74  ASN74      -0.2716
     38  ND2       -6.6320   22.7740  -74.5690 N.am   74  ASN74      -0.0877
     39  N         -3.5380   22.2980  -70.7620 N.3    76  ALA76      -0.1231
     40  CA        -2.5700   21.5000  -71.5530 C.3    76  ALA76       0.1694
     41  C         -1.7020   20.7000  -70.5540 C.2    76  ALA76       0.2591
     42  O         -2.1800   20.2050  -69.6030 O.2    76  ALA76      -0.2718
     43  CB        -1.7310   22.4350  -72.4170 C.3    76  ALA76       0.0304
     44  N         -0.4220   20.5840  -70.7380 N.am   77  ALA77      -0.1980
     45  CA         0.4090   19.8090  -69.8080 C.3    77  ALA77       0.1597
     46  C          0.2870   20.1920  -68.3410 C.2    77  ALA77       0.2287
     47  O          0.4550   19.3110  -67.4830 O.2    77  ALA77      -0.2864
     48  CB         1.8610   19.9550  -70.2230 C.3    77  ALA77       0.0319
     49  N         -1.7190   18.1810  -65.4840 N.3    80  HIS80      -0.1241
     50  CA        -1.1900   17.0210  -64.7440 C.3    80  HIS80       0.1621
     51  C         -0.1380   17.3620  -63.7180 C.2    80  HIS80       0.2264
     52  O          0.2500   16.4800  -62.9820 O.2    80  HIS80      -0.2867
     53  CB        -0.6270   16.0410  -65.7500 C.3    80  HIS80       0.0745
     54  CG        -1.4700   15.9150  -66.9660 C.ar   80  HIS80       0.0817
     55  ND1       -2.7730   15.4230  -66.9310 N.ar   80  HIS80      -0.2268
     56  CD2       -1.2390   16.2790  -68.2470 C.ar   80  HIS80       0.1154
     57  CE1       -3.3020   15.5060  -68.1440 C.ar   80  HIS80       0.1986
     58  NE2       -2.3940   16.0230  -68.9610 N.ar   80  HIS80      -0.2212
     59  N        -10.0820   20.0280  -72.7680 N.3   100  HIS100     -0.1226
     60  CA        -9.0240   19.4600  -73.5250 C.3   100  HIS100      0.1752
     61  C         -9.4700   19.0870  -74.8960 C.2   100  HIS100      0.2596
     62  O        -10.4560   18.4790  -75.0630 O.2   100  HIS100     -0.2718
     63  CB        -8.5400   18.1960  -72.9020 C.3   100  HIS100      0.0759
     64  CG        -8.1170   18.3990  -71.5160 C.ar  100  HIS100      0.0818
     65  ND1       -6.9050   18.9750  -71.2020 N.ar  100  HIS100     -0.2268
     66  CD2       -8.7870   18.2500  -70.3560 C.ar  100  HIS100      0.1154
     67  CE1       -6.8290   19.1170  -69.8850 C.ar  100  HIS100      0.1986
     68  NE2       -7.9720   18.7280  -69.3620 N.ar  100  HIS100     -0.2212
     69  N         -8.6310   19.3160  -75.8720 N.am  101  LEU101     -0.1966
     70  CA        -8.9170   19.0090  -77.2590 C.3   101  LEU101      0.1728
     71  C         -8.9550   17.5070  -77.5030 C.2   101  LEU101      0.2616
     72  O         -9.8290   17.0090  -78.2410 O.2   101  LEU101     -0.2715
     73  CB        -7.7500   19.5780  -78.1150 C.3   101  LEU101      0.0311
     74  CG        -7.6130   21.0850  -78.1410 C.3   101  LEU101      0.0022
     75  CD1       -6.3730   21.4400  -78.9000 C.3   101  LEU101      0.0001
     76  CD2       -8.8130   21.5900  -78.8740 C.3   101  LEU101      0.0001
     77  N         -7.9900   16.7890  -76.8860 N.am  102  SER102     -0.1950
     78  CA        -7.9420   15.3030  -77.0470 C.3   102  SER102      0.1924
     79  C         -8.5980   14.5170  -75.8910 C.2   102  SER102      0.2314
     80  O         -8.7680   15.0310  -74.8120 O.2   102  SER102     -0.2863
     81  CB        -6.5070   14.8440  -77.2470 C.3   102  SER102      0.2116
     82  OG        -5.7930   14.8510  -76.0580 O.3   102  SER102     -0.2180
     83  N         -8.1320   12.5720  -73.1770 N.3   104  VAL104     -0.1245
     84  CA        -7.0110   12.2260  -72.2900 C.3   104  VAL104      0.1561
     85  C         -7.0800   10.8360  -71.7020 C.2   104  VAL104      0.2260
     86  O         -6.0620   10.2100  -71.4320 O.2   104  VAL104     -0.2867
     87  CB        -6.8330   13.2720  -71.1630 C.3   104  VAL104      0.0252
     88  CG1       -6.2640   14.5390  -71.7690 C.3   104  VAL104      0.0019
     89  CG2       -8.1490   13.5650  -70.4220 C.3   104  VAL104      0.0019
     90  N         -5.2340    8.1860  -73.6520 N.3   107  ARG107     -0.1245
     91  CA        -3.7750    8.4310  -73.8660 C.3   107  ARG107      0.1563
     92  C         -2.9740    7.8110  -72.7180 C.2   107  ARG107      0.2260
     93  O         -3.4870    6.9800  -71.9780 O.2   107  ARG107     -0.2867
     94  CB        -3.5780    9.9520  -74.0170 C.3   107  ARG107      0.0307
     95  CG        -4.3670   10.4640  -75.1870 C.3   107  ARG107      0.0489
     96  CD        -4.1680   11.9680  -75.4920 C.3   107  ARG107      0.2205
     97  NE        -2.7710   12.2250  -75.8280 N.pl3 107  ARG107     -0.0865
     98  CZ        -2.1910   13.4430  -75.9290 C.cat 107  ARG107      0.5346
     99  NH1       -2.8580   14.5720  -75.7650 N.pl3 107  ARG107      0.1354
    100  NH2       -0.9100   13.5160  -76.2270 N.pl3 107  ARG107      0.1354
    101  N         -1.7380   11.2340  -68.0680 N.3   111  ARG111     -0.1245
    102  CA        -2.6260   12.2380  -68.5640 C.3   111  ARG111      0.1563
    103  C         -4.0680   12.0460  -67.9540 C.2   111  ARG111      0.2260
    104  O         -4.8760   12.8880  -68.1740 O.2   111  ARG111     -0.2867
    105  CB        -2.6490   12.1320  -70.0630 C.3   111  ARG111      0.0307
    106  CG        -1.2740   12.3710  -70.7010 C.3   111  ARG111      0.0489
    107  CD        -1.4170   12.6180  -72.1550 C.3   111  ARG111      0.2205
    108  NE        -0.1790   12.8510  -72.8470 N.pl3 111  ARG111     -0.0865
    109  CZ         0.4500   14.0220  -72.9940 C.cat 111  ARG111      0.5346
    110  NH1        0.0390   15.1100  -72.4040 N.pl3 111  ARG111      0.1354
    111  NH2        1.5060   14.0540  -73.7370 N.pl3 111  ARG111      0.1354
@<TRIPOS>BOND
     1    24    25    1
     2    25    26    1
     3    25    28    1
     4    26    27    2
     5    30    28    1
     6    28    29    1
     7    19    18    2
     8    75    74    1
     9    76    74    1
    10    18    17    1
    11    11    10    2
    12    72    71    2
    13    74    73    1
    14    73    70    1
    15    17    16    1
    16    17    20    1
    17    71    70    1
    18    71    77   am
    19    10    16   am
    20    10     9    1
    21    70    69    1
    22    81    78    1
    23    81    82    1
    24    78    77    1
    25    78    79    1
    26    23    21    1
    27    20    21    1
    28     9    12    1
    29     9     8    1
    30   100    98    1
    31    12    13    1
    32    14    13    2
    33    21    22    1
    34    98    97    2
    35    98    99    1
    36    79    80    2
    37    69    61   am
    38    97    96    1
    39    13    15   am
    40    96    95    1
    41     8     3   am
    42    95    94    1
    43    62    61    2
    44    61    60    1
    45    38    36   am
    46     4     3    2
    47     3     2    1
    48    94    91    1
    49    91    90    1
    50    91    92    1
    51   111   109    1
    52    60    63    1
    53    60    59    1
    54    36    35    1
    55    36    37    2
    56    83    84    1
    57   109   108    2
    58   109   110    1
    59     2     1    1
    60     2     5    1
    61    63    64    1
    62    35    32    1
    63   108   107    1
    64    92    93    2
    65    43    40    1
    66    84    85    1
    67    84    87    1
    68   107   106    1
    69     1     7    1
    70     5     6    1
    71    88    87    1
    72    85    86    2
    73    40    39    1
    74    40    41    1
    75    64    65   ar
    76    64    66   ar
    77    34    33    2
    78    32    31    1
    79    32    33    1
    80    65    67   ar
    81    87    89    1
    82    44    41   am
    83    44    45    1
    84   106   105    1
    85     7     6    1
    86    41    42    2
    87    66    68   ar
    88    48    45    1
    89   105   102    1
    90    67    68   ar
    91    45    46    1
    92    58    56   ar
    93    58    57   ar
    94   102   101    1
    95   102   103    1
    96    46    47    2
    97    56    54   ar
    98   104   103    2
    99    57    55   ar
   100    54    55   ar
   101    54    53    1
   102    53    50    1
   103    49    50    1
   104    50    51    1
   105    51    52    2
