@<TRIPOS>MOLECULE
tmp/5ydhA00.pdb
 115 114 0 0 0
SMALL
GASTEIGER

@<TRIPOS>ATOM
      1  N         51.3570  -55.4160   16.3330 N.3    70  ILE70      -0.1245
      2  CA        52.7250  -55.2200   16.8190 C.3    70  ILE70       0.1561
      3  C         53.0120  -53.7320   16.9950 C.2    70  ILE70       0.2260
      4  O         52.5200  -52.9000   16.2280 O.2    70  ILE70      -0.2867
      5  CB        53.7730  -55.7940   15.8320 C.3    70  ILE70       0.0252
      6  CG1       53.3350  -57.1530   15.2690 C.3    70  ILE70       0.0019
      7  CG2       55.1520  -55.8790   16.4800 C.3    70  ILE70       0.0019
      8  CD1       53.3320  -58.2800   16.2780 C.3    70  ILE70       0.0001
      9  N         56.1490  -50.8380   17.1670 N.3    72  ASP72      -0.1239
     10  CA        57.5130  -50.6520   16.6850 C.3    72  ASP72       0.1674
     11  C         58.4090  -50.0490   17.7640 C.2    72  ASP72       0.2266
     12  O         58.3390  -48.8510   18.0520 O.2    72  ASP72      -0.2867
     13  CB        57.5270  -49.7900   15.4180 C.3    72  ASP72       0.1410
     14  CG        58.9130  -49.6680   14.8060 C.2    72  ASP72       0.3668
     15  OD1       59.6770  -50.6580   14.8340 O.co2  72  ASP72      -0.2456
     16  OD2       59.2350  -48.5780   14.2900 O.co2  72  ASP72      -0.2456
     17  N         61.8190  -50.8410   17.6630 N.3    74  VAL74      -0.1245
     18  CA        63.1500  -50.9650   17.0500 C.3    74  VAL74       0.1561
     19  C         64.0270  -49.7300   17.2790 C.2    74  VAL74       0.2260
     20  O         65.1850  -49.8570   17.6720 O.2    74  VAL74      -0.2867
     21  CB        63.0500  -51.2950   15.5400 C.3    74  VAL74       0.0252
     22  CG1       64.4180  -51.2620   14.8730 C.3    74  VAL74       0.0019
     23  CG2       62.4010  -52.6570   15.3330 C.3    74  VAL74       0.0019
     24  N         49.6640  -55.5390    8.5640 N.3   121  TYR121     -0.1241
     25  CA        50.0190  -56.0340    9.8920 C.3   121  TYR121      0.1605
     26  C         49.8170  -54.9770   10.9770 C.2   121  TYR121      0.2264
     27  O         49.8010  -55.2970   12.1700 O.2   121  TYR121     -0.2867
     28  CB        51.4540  -56.5930    9.9160 C.3   121  TYR121      0.0534
     29  CG        52.5610  -55.5730    9.7010 C.ar  121  TYR121     -0.0201
     30  CD1       52.9760  -54.7330   10.7370 C.ar  121  TYR121     -0.0009
     31  CD2       53.2130  -55.4710    8.4690 C.ar  121  TYR121     -0.0009
     32  CE1       53.9870  -53.8060   10.5470 C.ar  121  TYR121      0.0417
     33  CE2       54.2300  -54.5480    8.2720 C.ar  121  TYR121      0.0417
     34  CZ        54.6110  -53.7200    9.3140 C.ar  121  TYR121      0.1957
     35  OH        55.6170  -52.8030    9.1280 O.3   121  TYR121     -0.2866
     36  N         52.2040  -61.4800   17.7370 N.3   277  ASN277     -0.1240
     37  CA        53.6420  -61.4070   18.0000 C.3   277  ASN277      0.1653
     38  C         54.4450  -62.6340   17.5680 C.2   277  ASN277      0.2266
     39  O         55.6610  -62.6740   17.7510 O.2   277  ASN277     -0.2867
     40  CB        53.9040  -61.0840   19.4740 C.3   277  ASN277      0.1155
     41  CG        53.7300  -59.6080   19.7870 C.2   277  ASN277      0.2627
     42  OD1       54.5120  -58.7690   19.3370 O.2   277  ASN277     -0.2716
     43  ND2       52.7090  -59.2860   20.5720 N.am  277  ASN277     -0.0877
     44  N         55.8700  -63.4970   12.6930 N.3   280  TRP280     -0.1241
     45  CA        57.0950  -63.1250   11.9990 C.3   280  TRP280      0.1605
     46  C         58.1830  -64.1910   12.0880 C.2   280  TRP280      0.2264
     47  O         58.9010  -64.2870   13.0870 O.2   280  TRP280     -0.2867
     48  CB        57.5850  -61.7670   12.5040 C.3   280  TRP280      0.0550
     49  CG        56.5870  -60.6890   12.2350 C.ar  280  TRP280      0.0003
     50  CD1       55.5750  -60.2860   13.0560 C.ar  280  TRP280      0.0946
     51  CD2       56.4800  -59.8980   11.0470 C.ar  280  TRP280      0.0152
     52  NE1       54.8500  -59.2840   12.4590 N.ar  280  TRP280     -0.2442
     53  CE2       55.3850  -59.0240   11.2250 C.ar  280  TRP280      0.0810
     54  CE3       57.2080  -59.8350    9.8510 C.ar  280  TRP280      0.0012
     55  CZ2       55.0000  -58.0960   10.2510 C.ar  280  TRP280      0.0191
     56  CZ3       56.8250  -58.9120    8.8830 C.ar  280  TRP280      0.0001
     57  CH2       55.7310  -58.0550    9.0910 C.ar  280  TRP280      0.0015
     58  N         55.0320  -59.6910    3.8720 N.3   288  PHE288     -0.1241
     59  CA        54.2950  -59.6560    5.1280 C.3   288  PHE288      0.1605
     60  C         53.4780  -60.9350    5.3130 C.2   288  PHE288      0.2264
     61  O         52.9090  -61.4470    4.3460 O.2   288  PHE288     -0.2867
     62  CB        53.4090  -58.4100    5.1710 C.3   288  PHE288      0.0534
     63  CG        54.1120  -57.1550    4.7260 C.ar  288  PHE288     -0.0203
     64  CD1       55.2590  -56.7130    5.3790 C.ar  288  PHE288     -0.0042
     65  CD2       53.6290  -56.4160    3.6540 C.ar  288  PHE288     -0.0042
     66  CE1       55.9100  -55.5600    4.9700 C.ar  288  PHE288     -0.0003
     67  CE2       54.2740  -55.2590    3.2430 C.ar  288  PHE288     -0.0003
     68  CZ        55.4160  -54.8310    3.9010 C.ar  288  PHE288     -0.0000
     69  N         62.9280  -47.2410    3.3590 N.3   328  TYR328     -0.1227
     70  CA        62.1900  -47.4980    4.5950 C.3   328  TYR328      0.1736
     71  C         62.2750  -48.9600    5.0240 C.2   328  TYR328      0.2595
     72  O         62.5670  -49.2580    6.1810 O.2   328  TYR328     -0.2718
     73  CB        60.7230  -47.0760    4.4470 C.3   328  TYR328      0.0548
     74  CG        59.9210  -47.2240    5.7230 C.ar  328  TYR328     -0.0200
     75  CD1       59.8470  -46.1790    6.6440 C.ar  328  TYR328     -0.0009
     76  CD2       59.2420  -48.4110    6.0150 C.ar  328  TYR328     -0.0009
     77  CE1       59.1200  -46.3110    7.8180 C.ar  328  TYR328      0.0417
     78  CE2       58.5150  -48.5500    7.1880 C.ar  328  TYR328      0.0417
     79  CZ        58.4570  -47.4970    8.0820 C.ar  328  TYR328      0.1957
     80  OH        57.7380  -47.6260    9.2430 O.3   328  TYR328     -0.2866
     81  N         62.0290  -49.8600    4.0770 N.am  329  PHE329     -0.1976
     82  CA        61.9800  -51.2920    4.3500 C.3   329  PHE329      0.1639
     83  C         63.3700  -51.8980    4.4690 C.2   329  PHE329      0.2290
     84  O         63.5650  -52.8490    5.2250 O.2   329  PHE329     -0.2864
     85  CB        61.1410  -52.0130    3.2880 C.3   329  PHE329      0.0560
     86  CG        59.7270  -51.5100    3.2030 C.ar  329  PHE329     -0.0200
     87  CD1       59.4150  -50.3950    2.4300 C.ar  329  PHE329     -0.0042
     88  CD2       58.7110  -52.1300    3.9200 C.ar  329  PHE329     -0.0042
     89  CE1       58.1180  -49.9140    2.3670 C.ar  329  PHE329     -0.0003
     90  CE2       57.4090  -51.6570    3.8570 C.ar  329  PHE329     -0.0003
     91  CZ        57.1120  -50.5480    3.0790 C.ar  329  PHE329     -0.0000
     92  N         64.6280  -51.2960    8.1620 N.3   332  TYR332     -0.1227
     93  CA        64.1370  -52.2190    9.1910 C.3   332  TYR332      0.1736
     94  C         64.6270  -53.6460    8.9740 C.2   332  TYR332      0.2595
     95  O         65.0860  -54.2970    9.9130 O.2   332  TYR332     -0.2718
     96  CB        62.6140  -52.1660    9.2890 C.3   332  TYR332      0.0548
     97  CG        62.0990  -50.9740   10.0610 C.ar  332  TYR332     -0.0200
     98  CD1       61.9110  -49.7430    9.4340 C.ar  332  TYR332     -0.0009
     99  CD2       61.8030  -51.0750   11.4200 C.ar  332  TYR332     -0.0009
    100  CE1       61.4420  -48.6450   10.1380 C.ar  332  TYR332      0.0417
    101  CE2       61.3320  -49.9840   12.1340 C.ar  332  TYR332      0.0417
    102  CZ        61.1540  -48.7730   11.4880 C.ar  332  TYR332      0.1957
    103  OH        60.6870  -47.6830   12.1850 O.3   332  TYR332     -0.2866
    104  N         64.5170  -54.1300    7.7380 N.am  333  TYR333     -0.1976
    105  CA        65.2390  -55.3210    7.2920 C.3   333  TYR333      0.1639
    106  C         66.6960  -54.8890    7.1850 C.2   333  TYR333      0.2290
    107  O         66.9830  -53.7010    7.3190 O.2   333  TYR333     -0.2864
    108  CB        64.7170  -55.7580    5.9180 C.3   333  TYR333      0.0560
    109  CG        65.0230  -57.1870    5.5340 C.ar  333  TYR333     -0.0198
    110  CD1       64.2240  -58.2330    5.9840 C.ar  333  TYR333     -0.0009
    111  CD2       66.0970  -57.4920    4.7020 C.ar  333  TYR333     -0.0009
    112  CE1       64.4960  -59.5450    5.6340 C.ar  333  TYR333      0.0417
    113  CE2       66.3760  -58.8020    4.3440 C.ar  333  TYR333      0.0417
    114  CZ        65.5700  -59.8230    4.8130 C.ar  333  TYR333      0.1957
    115  OH        65.8340  -61.1260    4.4640 O.3   333  TYR333     -0.2866
@<TRIPOS>BOND
     1    89    87   ar
     2    89    91   ar
     3    87    86   ar
     4    91    90   ar
     5    86    85    1
     6    86    88   ar
     7    67    65   ar
     8    67    68   ar
     9    85    82    1
    10    69    70    1
    11    65    63   ar
    12    90    88   ar
    13    58    59    1
    14    68    66   ar
    15    81    82    1
    16    81    71   am
    17   113   111   ar
    18   113   114   ar
    19    61    60    2
    20    82    83    1
    21    73    70    1
    22    73    74    1
    23   115   114    1
    24    83    84    2
    25    70    71    1
    26   111   109   ar
    27    63    62    1
    28    63    64   ar
    29   114   112   ar
    30    66    64   ar
    31    71    72    2
    32    59    62    1
    33    59    60    1
    34   109   108    1
    35   109   110   ar
    36   112   110   ar
    37    74    76   ar
    38    74    75   ar
    39   108   105    1
    40    76    78   ar
    41    75    77   ar
    42   106   105    1
    43   106   107    2
    44    78    79   ar
    45   105   104    1
    46   104    94   am
    47    77    79   ar
    48    79    80    1
    49    92    93    1
    50    33    31   ar
    51    33    34   ar
    52    31    29   ar
    53    24    25    1
    54    56    57   ar
    55    56    54   ar
    56    94    93    1
    57    94    95    2
    58    57    55   ar
    59    35    34    1
    60    93    96    1
    61    96    97    1
    62    34    32   ar
    63    98    97   ar
    64    98   100   ar
    65    29    28    1
    66    29    30   ar
    67    54    51   ar
    68    25    28    1
    69    25    26    1
    70    97    99   ar
    71   100   102   ar
    72    55    53   ar
    73    32    30   ar
    74    26    27    2
    75    51    53   ar
    76    51    49   ar
    77    53    52   ar
    78    99   101   ar
    79   102   101   ar
    80   102   103    1
    81    45    46    1
    82    45    48    1
    83    45    44    1
    84    46    47    2
    85    49    48    1
    86    49    50   ar
    87    52    50   ar
    88    16    14   ar
    89    14    15   ar
    90    14    13    1
    91    22    21    1
    92     6     5    1
    93     6     8    1
    94    23    21    1
    95    13    10    1
    96    21    18    1
    97     5     7    1
    98     5     2    1
    99     4     3    2
   100     1     2    1
   101    10     9    1
   102    10    11    1
   103     2     3    1
   104    18    19    1
   105    18    17    1
   106    19    20    2
   107    38    39    2
   108    38    37    1
   109    36    37    1
   110    11    12    2
   111    37    40    1
   112    42    41    2
   113    40    41    1
   114    41    43   am
