@<TRIPOS>MOLECULE
tmp/5ydlA00.pdb
 103 98 0 0 0
SMALL
GASTEIGER

@<TRIPOS>ATOM
      1  N        -15.7750   53.9740  -12.7240 N.3    97  GLY97      -0.1210
      2  CA       -15.0730   53.6010  -13.9340 C.3    97  GLY97       0.1956
      3  C        -14.6110   52.1590  -13.9110 C.2    97  GLY97       0.2612
      4  O        -15.0180   51.3540  -13.0740 O.2    97  GLY97      -0.2717
      5  N        -13.7490   51.8270  -14.8680 N.am   98  GLY98      -0.1956
      6  CA       -13.2600   50.4680  -14.9730 C.3    98  GLY98       0.1869
      7  C        -12.4500   50.0690  -13.7560 C.2    98  GLY98       0.2309
      8  O        -11.7960   50.8900  -13.1190 O.2    98  GLY98      -0.2863
      9  N        -16.1580   45.3480  -20.0800 N.3   151  PHE151     -0.1241
     10  CA       -16.4300   46.7370  -19.7510 C.3   151  PHE151      0.1605
     11  C        -17.8720   47.1170  -20.0740 C.2   151  PHE151      0.2264
     12  O        -18.4930   47.8720  -19.3190 O.2   151  PHE151     -0.2867
     13  CB       -15.4330   47.6520  -20.4650 C.3   151  PHE151      0.0534
     14  CG       -14.0370   47.6050  -19.8810 C.ar  151  PHE151     -0.0203
     15  CD1      -13.7840   48.1030  -18.6080 C.ar  151  PHE151     -0.0042
     16  CD2      -12.9800   47.0490  -20.6000 C.ar  151  PHE151     -0.0042
     17  CE1      -12.4890   48.0520  -18.0600 C.ar  151  PHE151     -0.0003
     18  CE2      -11.7000   47.0010  -20.0680 C.ar  151  PHE151     -0.0003
     19  CZ       -11.4500   47.5060  -18.7930 C.ar  151  PHE151     -0.0000
     20  N        -16.9840   58.5170  -13.1500 N.3   178  HIS178     -0.1226
     21  CA       -15.5320   58.4550  -13.2260 C.3   178  HIS178      0.1752
     22  C        -15.1930   57.7310  -14.5140 C.2   178  HIS178      0.2597
     23  O        -15.5670   56.5670  -14.6790 O.2   178  HIS178     -0.2718
     24  CB       -14.9290   57.7350  -12.0160 C.3   178  HIS178      0.0759
     25  CG       -13.4380   57.8440  -11.9340 C.ar  178  HIS178      0.0818
     26  ND1      -12.5950   57.3120  -12.8870 N.ar  178  HIS178     -0.2268
     27  CD2      -12.6380   58.4520  -11.0230 C.ar  178  HIS178      0.1154
     28  CE1      -11.3420   57.5640  -12.5560 C.ar  178  HIS178      0.1986
     29  NE2      -11.3400   58.2580  -11.4320 N.ar  178  HIS178     -0.2212
     30  N        -14.5170   58.4250  -15.4280 N.am  179  SER179     -0.1938
     31  CA       -14.0440   57.7970  -16.6530 C.3   179  SER179      0.2055
     32  C        -15.2240   57.2400  -17.4500 C.2   179  SER179      0.2642
     33  O        -16.0710   58.0050  -17.9310 O.2   179  SER179     -0.2714
     34  CB       -13.0190   56.7100  -16.2920 C.3   179  SER179      0.2130
     35  OG       -12.4560   56.0570  -17.4120 O.3   179  SER179     -0.2179
     36  N        -15.3120   55.9090  -17.5480 N.am  180  LEU180     -0.1977
     37  CA       -16.4270   55.2720  -18.2510 C.3   180  LEU180      0.1596
     38  C        -17.7820   55.6150  -17.6440 C.2   180  LEU180      0.2287
     39  O        -18.7850   55.6650  -18.3670 O.2   180  LEU180     -0.2864
     40  CB       -16.2390   53.7550  -18.2550 C.3   180  LEU180      0.0297
     41  CG       -17.3200   52.8380  -18.8290 C.3   180  LEU180      0.0022
     42  CD1      -17.5980   53.1140  -20.3110 C.3   180  LEU180      0.0001
     43  CD2      -16.9440   51.3670  -18.6040 C.3   180  LEU180      0.0001
     44  N        -15.6260   52.4160  -28.7380 N.3   204  ARG204     -0.1231
     45  CA       -14.6630   53.2180  -28.0000 C.3   204  ARG204      0.1694
     46  C        -13.7260   52.3390  -27.1750 C.2   204  ARG204      0.2591
     47  O        -12.5080   52.5360  -27.1820 O.2   204  ARG204     -0.2718
     48  CB       -15.4280   54.1890  -27.1030 C.3   204  ARG204      0.0321
     49  CG       -14.5810   55.0210  -26.2150 C.3   204  ARG204      0.0489
     50  CD       -15.4490   55.9410  -25.3760 C.3   204  ARG204      0.2205
     51  NE       -14.6110   56.7470  -24.5070 N.pl3 204  ARG204     -0.0865
     52  CZ       -14.2000   56.3490  -23.3030 C.cat 204  ARG204      0.5346
     53  NH1      -14.5880   55.1730  -22.8220 N.pl3 204  ARG204      0.1354
     54  NH2      -13.4050   57.1310  -22.5840 N.pl3 204  ARG204      0.1354
     55  N        -14.2870   51.3720  -26.4410 N.am  205  ILE205     -0.1980
     56  CA       -13.4780   50.4490  -25.6430 C.3   205  ILE205      0.1595
     57  C        -12.4750   49.7100  -26.5240 C.2   205  ILE205      0.2287
     58  O        -11.2890   49.6130  -26.1880 O.2   205  ILE205     -0.2864
     59  CB       -14.3810   49.4710  -24.8720 C.3   205  ILE205      0.0276
     60  CG1      -15.2470   50.2130  -23.8390 C.3   205  ILE205      0.0022
     61  CG2      -13.5600   48.3970  -24.2100 C.3   205  ILE205      0.0022
     62  CD1      -14.4470   50.9960  -22.8120 C.3   205  ILE205      0.0001
     63  N         -9.6510   52.0470  -27.4950 N.3   208  ILE208     -0.1231
     64  CA        -8.7430   52.2900  -26.3830 C.3   208  ILE208      0.1692
     65  C         -7.8740   51.0580  -26.1370 C.2   208  ILE208      0.2591
     66  O         -6.6490   51.1550  -26.0400 O.2   208  ILE208     -0.2718
     67  CB        -9.5260   52.7110  -25.1250 C.3   208  ILE208      0.0266
     68  CG1      -10.0880   54.1160  -25.3200 C.3   208  ILE208      0.0019
     69  CG2       -8.6230   52.6680  -23.8800 C.3   208  ILE208      0.0020
     70  CD1      -11.2160   54.4590  -24.3530 C.3   208  ILE208      0.0001
     71  N         -8.4940   49.8800  -26.0650 N.am  209  ALA209     -0.1980
     72  CA        -7.7330   48.6690  -25.7830 C.3   209  ALA209      0.1597
     73  C         -6.6670   48.4140  -26.8410 C.2   209  ALA209      0.2287
     74  O         -5.5560   47.9880  -26.5120 O.2   209  ALA209     -0.2864
     75  CB        -8.6690   47.4650  -25.6670 C.3   209  ALA209      0.0319
     76  N         -5.7210   46.0890  -16.5650 N.3   272  MET272     -0.1245
     77  CA        -5.9650   46.4240  -17.9620 C.3   272  MET272      0.1570
     78  C         -4.7190   47.0180  -18.6130 C.2   272  MET272      0.2261
     79  O         -4.2880   48.1120  -18.2340 O.2   272  MET272     -0.2867
     80  CB        -7.1320   47.4090  -18.0700 C.3   272  MET272      0.0387
     81  CG        -7.4710   47.8420  -19.4970 C.3   272  MET272      0.0595
     82  SD        -8.1500   46.4720  -20.4190 S.3   272  MET272     -0.1393
     83  CE        -8.3400   47.1690  -22.0500 C.3   272  MET272      0.0692
     84  N         -3.8990   49.0870  -20.8840 N.3   274  ALA274     -0.1245
     85  CA        -4.3130   50.2040  -21.7100 C.3   274  ALA274      0.1562
     86  C         -3.8390   51.4850  -21.0440 C.2   274  ALA274      0.2260
     87  O         -3.3740   51.4890  -19.9030 O.2   274  ALA274     -0.2867
     88  CB        -5.8280   50.2180  -21.9240 C.3   274  ALA274      0.0290
     89  N         -5.7790   54.6690  -21.2980 N.3   276  ALA276     -0.1231
     90  CA        -6.8180   55.6840  -21.3490 C.3   276  ALA276      0.1694
     91  C         -6.3600   56.9710  -20.6710 C.2   276  ALA276      0.2592
     92  O         -5.6430   56.9430  -19.6710 O.2   276  ALA276     -0.2718
     93  CB        -8.0860   55.1550  -20.6690 C.3   276  ALA276      0.0304
     94  N         -6.7740   58.1010  -21.2410 N.am  277  HIS277     -0.1976
     95  CA        -6.5330   59.4330  -20.6890 C.3   277  HIS277      0.1656
     96  C         -5.0590   59.8070  -20.7740 C.2   277  HIS277      0.2291
     97  O         -4.4980   60.4180  -19.8660 O.2   277  HIS277     -0.2864
     98  CB        -7.0840   59.5550  -19.2580 C.3   277  HIS277      0.0771
     99  CG        -8.5170   59.1330  -19.1700 C.ar  277  HIS277      0.0820
    100  ND1       -9.5470   59.8970  -19.6860 N.ar  277  HIS277     -0.2267
    101  CD2       -9.0820   57.9850  -18.7380 C.ar  277  HIS277      0.1154
    102  CE1      -10.6870   59.2480  -19.5410 C.ar  277  HIS277      0.1986
    103  NE2      -10.4330   58.0840  -18.9700 N.ar  277  HIS277     -0.2212
@<TRIPOS>BOND
     1    44    45    1
     2    45    46    1
     3    45    48    1
     4    63    64    1
     5    47    46    2
     6    46    55   am
     7    48    49    1
     8    73    74    2
     9    73    72    1
    10    57    58    2
    11    57    56    1
    12    55    56    1
    13    64    65    1
    14    64    67    1
    15    49    50    1
    16    65    71   am
    17    65    66    2
    18    71    72    1
    19    72    75    1
    20    56    59    1
    21    50    51    1
    22    68    67    1
    23    68    70    1
    24    67    69    1
    25    59    61    1
    26    59    60    1
    27    51    52    2
    28    60    62    1
    29    52    53    1
    30    52    54    1
    31    83    82    1
    32    88    85    1
    33    85    86    1
    34    85    84    1
    35    90    89    1
    36    90    91    1
    37    90    93    1
    38    94    95    1
    39    94    91   am
    40    86    87    2
    41    96    95    1
    42    96    97    2
    43    95    98    1
    44    91    92    2
    45    16    18   ar
    46    16    14   ar
    47    13    14    1
    48    13    10    1
    49    82    81    1
    50    42    41    1
    51     9    10    1
    52    11    10    1
    53    11    12    2
    54    18    19   ar
    55    14    15   ar
    56   100   102   ar
    57   100    99   ar
    58   102   103   ar
    59    81    80    1
    60    98    99    1
    61    99   101   ar
    62   103   101   ar
    63    41    43    1
    64    41    40    1
    65    19    17   ar
    66    78    79    2
    67    78    77    1
    68    15    17   ar
    69    39    38    2
    70    40    37    1
    71    37    38    1
    72    37    36    1
    73    80    77    1
    74    77    76    1
    75    33    32    2
    76    36    32   am
    77    32    31    1
    78    35    34    1
    79    31    34    1
    80    31    30    1
    81    30    22   am
    82     6     5    1
    83     6     7    1
    84     5     3   am
    85    23    22    2
    86    22    21    1
    87     2     3    1
    88     2     1    1
    89     3     4    2
    90     7     8    2
    91    21    20    1
    92    21    24    1
    93    26    28   ar
    94    26    25   ar
    95    28    29   ar
    96    24    25    1
    97    25    27   ar
    98    29    27   ar
