@<TRIPOS>MOLECULE
tmp/5ydmA00.pdb
 99 94 0 0 0
SMALL
GASTEIGER

@<TRIPOS>ATOM
      1  N        -13.8260   51.7500  -15.0060 N.3    98  GLY98      -0.1225
      2  CA       -13.3570   50.3760  -14.9900 C.3    98  GLY98       0.1811
      3  C        -12.5520   50.0620  -13.7410 C.2    98  GLY98       0.2280
      4  O        -11.9420   50.9350  -13.1130 O.2    98  GLY98      -0.2866
      5  N        -15.9580   45.3040  -20.1800 N.3   151  PHE151     -0.1241
      6  CA       -16.2230   46.7140  -19.9130 C.3   151  PHE151      0.1605
      7  C        -17.6720   47.0810  -20.2260 C.2   151  PHE151      0.2264
      8  O        -18.2800   47.8790  -19.5070 O.2   151  PHE151     -0.2867
      9  CB       -15.2600   47.5890  -20.7160 C.3   151  PHE151      0.0534
     10  CG       -13.8940   47.7080  -20.1030 C.ar  151  PHE151     -0.0203
     11  CD1      -13.6930   48.4870  -18.9790 C.ar  151  PHE151     -0.0042
     12  CD2      -12.8050   47.0410  -20.6530 C.ar  151  PHE151     -0.0042
     13  CE1      -12.4310   48.5950  -18.4120 C.ar  151  PHE151     -0.0003
     14  CE2      -11.5400   47.1540  -20.1000 C.ar  151  PHE151     -0.0003
     15  CZ       -11.3520   47.9290  -18.9780 C.ar  151  PHE151     -0.0000
     16  N        -16.9510   58.6330  -13.3860 N.3   178  HIS178     -0.1226
     17  CA       -15.4970   58.5590  -13.4570 C.3   178  HIS178      0.1752
     18  C        -15.1510   57.7890  -14.7160 C.2   178  HIS178      0.2597
     19  O        -15.5180   56.6130  -14.8390 O.2   178  HIS178     -0.2718
     20  CB       -14.8960   57.8680  -12.2290 C.3   178  HIS178      0.0759
     21  CG       -13.3980   57.9480  -12.1630 C.ar  178  HIS178      0.0818
     22  ND1      -12.5760   57.3860  -13.1220 N.ar  178  HIS178     -0.2268
     23  CD2      -12.5730   58.5150  -11.2450 C.ar  178  HIS178      0.1154
     24  CE1      -11.3130   57.6130  -12.8040 C.ar  178  HIS178      0.1986
     25  NE2      -11.2840   58.2920  -11.6700 N.ar  178  HIS178     -0.2212
     26  N        -14.4620   58.4490  -15.6520 N.am  179  SER179     -0.1938
     27  CA       -13.9740   57.7930  -16.8650 C.3   179  SER179      0.2055
     28  C        -15.1720   57.2250  -17.6130 C.2   179  SER179      0.2642
     29  O        -16.0000   58.0060  -18.1160 O.2   179  SER179     -0.2714
     30  CB       -12.9170   56.7620  -16.4580 C.3   179  SER179      0.2130
     31  OG       -12.3520   56.1110  -17.5970 O.3   179  SER179     -0.2179
     32  N        -15.3120   55.9050  -17.7030 N.am  180  LEU180     -0.1977
     33  CA       -16.4170   55.2960  -18.4240 C.3   180  LEU180      0.1596
     34  C        -17.7600   55.6380  -17.7960 C.2   180  LEU180      0.2287
     35  O        -18.7830   55.6780  -18.4970 O.2   180  LEU180     -0.2864
     36  CB       -16.2020   53.7890  -18.4430 C.3   180  LEU180      0.0297
     37  CG       -17.2530   52.8480  -18.9780 C.3   180  LEU180      0.0022
     38  CD1      -17.5250   53.1930  -20.4390 C.3   180  LEU180      0.0001
     39  CD2      -16.7120   51.4220  -18.8130 C.3   180  LEU180      0.0001
     40  N        -15.5430   52.5380  -28.8680 N.3   204  ARG204     -0.1231
     41  CA       -14.5760   53.3270  -28.1050 C.3   204  ARG204      0.1694
     42  C        -13.6120   52.4270  -27.3300 C.2   204  ARG204      0.2591
     43  O        -12.3850   52.5710  -27.4340 O.2   204  ARG204     -0.2718
     44  CB       -15.3120   54.2770  -27.1560 C.3   204  ARG204      0.0321
     45  CG       -14.4150   55.0950  -26.2500 C.3   204  ARG204      0.0489
     46  CD       -15.2200   56.0440  -25.3390 C.3   204  ARG204      0.2205
     47  NE       -14.3570   56.8080  -24.4300 N.pl3 204  ARG204     -0.0865
     48  CZ       -13.9260   56.3500  -23.2450 C.cat 204  ARG204      0.5346
     49  NH1      -13.1310   57.0880  -22.4700 N.pl3 204  ARG204      0.1354
     50  NH2      -14.3000   55.1500  -22.8170 N.pl3 204  ARG204      0.1354
     51  N        -14.1490   51.4580  -26.5810 N.am  205  ILE205     -0.1980
     52  CA       -13.2890   50.5770  -25.7850 C.3   205  ILE205      0.1595
     53  C        -12.3190   49.7880  -26.6690 C.2   205  ILE205      0.2287
     54  O        -11.1310   49.6860  -26.3430 O.2   205  ILE205     -0.2864
     55  CB       -14.1390   49.6580  -24.8910 C.3   205  ILE205      0.0276
     56  CG1      -14.7290   50.4700  -23.7200 C.3   205  ILE205      0.0022
     57  CG2      -13.3050   48.5310  -24.3860 C.3   205  ILE205      0.0022
     58  CD1      -16.1490   50.1050  -23.4130 C.3   205  ILE205      0.0001
     59  N         -9.4830   52.1770  -27.6410 N.3   208  ILE208     -0.1231
     60  CA        -8.5590   52.4130  -26.5320 C.3   208  ILE208      0.1692
     61  C         -7.7580   51.1500  -26.2260 C.2   208  ILE208      0.2591
     62  O         -6.5240   51.1870  -26.1480 O.2   208  ILE208     -0.2718
     63  CB        -9.3190   52.9240  -25.2920 C.3   208  ILE208      0.0266
     64  CG1       -9.9850   54.2670  -25.6040 C.3   208  ILE208      0.0019
     65  CG2       -8.3790   53.0410  -24.0850 C.3   208  ILE208      0.0020
     66  CD1      -11.1580   54.5870  -24.6910 C.3   208  ILE208      0.0001
     67  N         -8.4440   50.0070  -26.0830 N.am  209  ALA209     -0.1980
     68  CA        -7.7720   48.7710  -25.6710 C.3   209  ALA209      0.1597
     69  C         -6.6160   48.4130  -26.5970 C.2   209  ALA209      0.2287
     70  O         -5.5740   47.9200  -26.1420 O.2   209  ALA209     -0.2864
     71  CB        -8.7650   47.6110  -25.6060 C.3   209  ALA209      0.0319
     72  N         -5.3920   46.0720  -16.7220 N.3   272  MET272     -0.1245
     73  CA        -5.5660   46.4640  -18.1150 C.3   272  MET272      0.1570
     74  C         -4.2880   47.0430  -18.7180 C.2   272  MET272      0.2261
     75  O         -3.8520   48.1310  -18.3200 O.2   272  MET272     -0.2867
     76  CB        -6.6900   47.4880  -18.2260 C.3   272  MET272      0.0387
     77  CG        -6.9790   47.8940  -19.6600 C.3   272  MET272      0.0595
     78  SD        -7.7700   46.5480  -20.5310 S.3   272  MET272     -0.1393
     79  CE        -8.1480   47.2680  -22.1170 C.3   272  MET272      0.0692
     80  N         -3.6630   48.9990  -21.0780 N.3   274  ALA274     -0.1245
     81  CA        -4.0920   50.1370  -21.8710 C.3   274  ALA274      0.1562
     82  C         -3.5640   51.4030  -21.2070 C.2   274  ALA274      0.2260
     83  O         -3.0270   51.3650  -20.0950 O.2   274  ALA274     -0.2867
     84  CB        -5.6080   50.1890  -21.9930 C.3   274  ALA274      0.0290
     85  N         -5.5130   54.6720  -21.3010 N.3   276  ALA276     -0.1231
     86  CA        -6.5500   55.6880  -21.3910 C.3   276  ALA276      0.1694
     87  C         -6.0700   57.0190  -20.8140 C.2   276  ALA276      0.2592
     88  O         -5.2300   57.0690  -19.9120 O.2   276  ALA276     -0.2718
     89  CB        -7.8010   55.2080  -20.6430 C.3   276  ALA276      0.0304
     90  N         -6.5970   58.1070  -21.3670 N.am  277  HIS277     -0.1976
     91  CA        -6.3300   59.4630  -20.8720 C.3   277  HIS277      0.1656
     92  C         -4.8510   59.8230  -20.9800 C.2   277  HIS277      0.2291
     93  O         -4.3000   60.5210  -20.1290 O.2   277  HIS277     -0.2864
     94  CB        -6.8520   59.6200  -19.4380 C.3   277  HIS277      0.0771
     95  CG        -8.2670   59.1530  -19.2980 C.ar  277  HIS277      0.0820
     96  ND1       -9.3400   59.8900  -19.7750 N.ar  277  HIS277     -0.2267
     97  CD2       -8.7790   57.9790  -18.8560 C.ar  277  HIS277      0.1154
     98  CE1      -10.4540   59.2040  -19.5910 C.ar  277  HIS277      0.1986
     99  NE2      -10.1430   58.0420  -19.0330 N.ar  277  HIS277     -0.2212
@<TRIPOS>BOND
     1    40    41    1
     2    41    42    1
     3    41    44    1
     4    59    60    1
     5    43    42    2
     6    42    51   am
     7    44    45    1
     8    53    54    2
     9    53    52    1
    10    69    70    2
    11    69    68    1
    12    51    52    1
    13    60    61    1
    14    60    63    1
    15    45    46    1
    16    61    62    2
    17    61    67   am
    18    67    68    1
    19    52    55    1
    20    68    71    1
    21    64    63    1
    22    64    66    1
    23    46    47    1
    24    63    65    1
    25    55    57    1
    26    55    56    1
    27    47    48    2
    28    56    58    1
    29    48    50    1
    30    48    49    1
    31    79    78    1
    32    84    81    1
    33    81    82    1
    34    81    80    1
    35    86    85    1
    36    86    87    1
    37    86    89    1
    38    90    91    1
    39    90    87   am
    40    82    83    2
    41    92    91    1
    42    92    93    2
    43    91    94    1
    44    87    88    2
    45     9    10    1
    46     9     6    1
    47    12    10   ar
    48    12    14   ar
    49    78    77    1
    50    38    37    1
    51     7     6    1
    52     7     8    2
    53     5     6    1
    54    10    11   ar
    55    14    15   ar
    56    96    98   ar
    57    96    95   ar
    58    77    76    1
    59    98    99   ar
    60    94    95    1
    61    95    97   ar
    62    99    97   ar
    63    11    13   ar
    64    15    13   ar
    65    37    39    1
    66    37    36    1
    67    74    75    2
    68    74    73    1
    69    35    34    2
    70    36    33    1
    71    33    34    1
    72    33    32    1
    73    76    73    1
    74    29    28    2
    75    73    72    1
    76    32    28   am
    77    28    27    1
    78    31    30    1
    79    27    30    1
    80    27    26    1
    81    26    18   am
    82     1     2    1
    83     2     3    1
    84    19    18    2
    85    18    17    1
    86     3     4    2
    87    17    16    1
    88    17    20    1
    89    22    24   ar
    90    22    21   ar
    91    24    25   ar
    92    20    21    1
    93    21    23   ar
    94    25    23   ar
