@<TRIPOS>MOLECULE
tmp/5ye7B00.pdb
 165 159 0 0 0
SMALL
GASTEIGER

@<TRIPOS>ATOM
      1  N        -50.9880  -34.2430   25.6110 N.3    50  LEU50      -0.1245
      2  CA       -51.3940  -33.2330   24.6420 C.3    50  LEU50       0.1561
      3  C        -52.6240  -32.4730   25.1320 C.2    50  LEU50       0.2260
      4  O        -52.7140  -31.2530   24.9680 O.2    50  LEU50      -0.2867
      5  CB       -51.6570  -33.8730   23.2830 C.3    50  LEU50       0.0270
      6  CG       -50.4650  -34.0200   22.3350 C.3    50  LEU50       0.0019
      7  CD1      -50.8490  -34.9140   21.1660 C.3    50  LEU50       0.0001
      8  CD2      -49.9590  -32.6650   21.8340 C.3    50  LEU50       0.0001
      9  N        -51.5330  -29.9210   27.7400 N.3    53  PHE53      -0.1227
     10  CA       -50.8510  -28.8210   27.0480 C.3    53  PHE53       0.1736
     11  C        -51.8370  -27.8520   26.4030 C.2    53  PHE53       0.2595
     12  O        -51.6330  -26.6360   26.4430 O.2    53  PHE53      -0.2718
     13  CB       -49.9060  -29.3670   25.9780 C.3    53  PHE53       0.0547
     14  CG       -49.2960  -28.3020   25.0910 C.ar   53  PHE53      -0.0202
     15  CD1      -48.3910  -27.3800   25.6050 C.ar   53  PHE53      -0.0042
     16  CD2      -49.6010  -28.2450   23.7420 C.ar   53  PHE53      -0.0042
     17  CE1      -47.8020  -26.4140   24.7820 C.ar   53  PHE53      -0.0003
     18  CE2      -49.0210  -27.2890   22.9220 C.ar   53  PHE53      -0.0003
     19  CZ       -48.1210  -26.3700   23.4490 C.ar   53  PHE53      -0.0000
     20  N        -52.9020  -28.3790   25.7860 N.am   54  LEU54      -0.1980
     21  CA       -53.8840  -27.5650   25.0860 C.3    54  LEU54       0.1596
     22  C        -54.8410  -26.8400   26.0220 C.2    54  LEU54       0.2287
     23  O        -55.5140  -25.9050   25.5810 O.2    54  LEU54      -0.2864
     24  CB       -54.6880  -28.4380   24.1210 C.3    54  LEU54       0.0297
     25  CG       -53.8370  -28.9810   22.9790 C.3    54  LEU54       0.0022
     26  CD1      -54.5950  -29.9600   22.0780 C.3    54  LEU54       0.0001
     27  CD2      -53.2630  -27.8130   22.1980 C.3    54  LEU54       0.0001
     28  N        -58.9130  -37.1770   21.4920 N.3    64  LEU64      -0.1245
     29  CA       -57.7280  -37.1820   20.6390 C.3    64  LEU64       0.1561
     30  C        -57.2230  -38.6010   20.4120 C.2    64  LEU64       0.2260
     31  O        -56.7710  -38.9390   19.3100 O.2    64  LEU64      -0.2867
     32  CB       -56.6390  -36.3150   21.2600 C.3    64  LEU64       0.0270
     33  CG       -56.9390  -34.8260   21.2410 C.3    64  LEU64       0.0019
     34  CD1      -56.0840  -34.1300   22.2660 C.3    64  LEU64       0.0001
     35  CD2      -56.6940  -34.2610   19.8450 C.3    64  LEU64       0.0001
     36  N        -56.8440  -40.2490   16.5450 N.3    68  PHE68      -0.1241
     37  CA       -55.5270  -40.4240   15.9530 C.3    68  PHE68       0.1605
     38  C        -54.7700  -41.6270   16.4770 C.2    68  PHE68       0.2264
     39  O        -53.6560  -41.8840   16.0040 O.2    68  PHE68      -0.2867
     40  CB       -54.6780  -39.1720   16.1840 C.3    68  PHE68       0.0534
     41  CG       -55.3520  -37.8900   15.7670 C.ar   68  PHE68      -0.0203
     42  CD1      -55.4960  -37.5690   14.4170 C.ar   68  PHE68      -0.0042
     43  CD2      -55.8140  -36.9910   16.7220 C.ar   68  PHE68      -0.0042
     44  CE1      -56.1030  -36.3750   14.0270 C.ar   68  PHE68      -0.0003
     45  CE2      -56.4300  -35.7950   16.3440 C.ar   68  PHE68      -0.0003
     46  CZ       -56.5690  -35.4830   14.9980 C.ar   68  PHE68      -0.0000
     47  N        -40.5710  -29.1240   19.7150 N.3    95  GLY95      -0.1210
     48  CA       -41.0180  -27.9280   20.4070 C.3    95  GLY95       0.1956
     49  C        -41.6960  -28.1960   21.7580 C.2    95  GLY95       0.2612
     50  O        -41.8330  -29.3320   22.2220 O.2    95  GLY95      -0.2717
     51  N        -42.1330  -27.1060   22.3930 N.am   96  LEU96      -0.1965
     52  CA       -42.8460  -27.2160   23.6620 C.3    96  LEU96       0.1728
     53  C        -44.1810  -27.9150   23.4420 C.2    96  LEU96       0.2617
     54  O        -44.8920  -27.6380   22.4810 O.2    96  LEU96      -0.2715
     55  CB       -43.0640  -25.8320   24.2830 C.3    96  LEU96       0.0311
     56  CG       -43.8830  -25.7550   25.5750 C.3    96  LEU96       0.0022
     57  CD1      -43.0310  -26.2380   26.7430 C.3    96  LEU96       0.0001
     58  CD2      -44.4100  -24.3560   25.8320 C.3    96  LEU96       0.0001
     59  N        -44.5020  -28.8510   24.3220 N.am   97  GLY97      -0.1940
     60  CA       -45.7150  -29.6130   24.2070 C.3    97  GLY97       0.2014
     61  C        -45.6830  -30.7040   23.1660 C.2    97  GLY97       0.2638
     62  O        -46.6710  -31.4300   23.0300 O.2    97  GLY97      -0.2714
     63  N        -44.5950  -30.8520   22.4280 N.am   98  ALA98      -0.1977
     64  CA       -44.4690  -31.9130   21.4430 C.3    98  ALA98       0.1597
     65  C        -43.7500  -33.0950   22.0900 C.2    98  ALA98       0.2287
     66  O        -43.6740  -33.1840   23.3200 O.2    98  ALA98      -0.2864
     67  CB       -43.7500  -31.3910   20.1940 C.3    98  ALA98       0.0319
     68  N        -43.6400  -36.1680   16.5280 N.3   102  LEU102     -0.1231
     69  CA       -44.5330  -35.2030   15.8960 C.3   102  LEU102      0.1693
     70  C        -43.9140  -34.4740   14.7050 C.2   102  LEU102      0.2592
     71  O        -44.5350  -33.5360   14.1810 O.2   102  LEU102     -0.2718
     72  CB       -45.0280  -34.2070   16.9380 C.3   102  LEU102      0.0284
     73  CG       -45.9300  -34.8190   18.0210 C.3   102  LEU102      0.0019
     74  CD1      -46.5240  -33.7500   18.9510 C.3   102  LEU102      0.0001
     75  CD2      -47.0350  -35.6620   17.3780 C.3   102  LEU102      0.0001
     76  N        -42.7270  -34.8830   14.2530 N.am  103  TYR103     -0.1976
     77  CA       -42.0430  -34.2430   13.1300 C.3   103  TYR103      0.1639
     78  C        -41.5480  -35.2910   12.1500 C.2   103  TYR103      0.2290
     79  O        -40.4300  -35.2170   11.6290 O.2   103  TYR103     -0.2864
     80  CB       -40.8900  -33.3610   13.6100 C.3   103  TYR103      0.0560
     81  CG       -41.3060  -32.2310   14.5500 C.ar  103  TYR103     -0.0198
     82  CD1      -41.4110  -32.4390   15.9200 C.ar  103  TYR103     -0.0009
     83  CD2      -41.5810  -30.9580   14.0650 C.ar  103  TYR103     -0.0009
     84  CE1      -41.7840  -31.4000   16.7700 C.ar  103  TYR103      0.0417
     85  CE2      -41.9530  -29.9280   14.8940 C.ar  103  TYR103      0.0417
     86  CZ       -42.0510  -30.1540   16.2460 C.ar  103  TYR103      0.1957
     87  OH       -42.4180  -29.1370   17.0910 O.3   103  TYR103     -0.2866
     88  N        -37.4510  -27.2620   15.8640 N.3   215  HIS215     -0.1226
     89  CA       -38.6160  -26.4120   15.6680 C.3   215  HIS215      0.1752
     90  C        -39.0040  -25.7420   16.9780 C.2   215  HIS215      0.2596
     91  O        -39.1420  -26.4190   18.0050 O.2   215  HIS215     -0.2718
     92  CB       -39.8030  -27.2190   15.1260 C.3   215  HIS215      0.0759
     93  CG       -41.0850  -26.4470   15.0680 C.ar  215  HIS215      0.0818
     94  ND1      -42.1710  -26.7460   15.8620 N.ar  215  HIS215     -0.2268
     95  CD2      -41.4530  -25.3790   14.3200 C.ar  215  HIS215      0.1154
     96  CE1      -43.1550  -25.9030   15.6010 C.ar  215  HIS215      0.1986
     97  NE2      -42.7440  -25.0620   14.6700 N.ar  215  HIS215     -0.2212
     98  N        -39.2000  -24.4160   16.9280 N.am  216  SER216     -0.1952
     99  CA       -39.7620  -23.6380   18.0370 C.3   216  SER216      0.1924
    100  C        -38.8100  -23.6440   19.2310 C.2   216  SER216      0.2314
    101  O        -37.6870  -23.1320   19.1250 O.2   216  SER216     -0.2863
    102  CB       -41.1430  -24.1720   18.4250 C.3   216  SER216      0.2116
    103  OG       -41.9200  -23.2030   19.1040 O.3   216  SER216     -0.2180
    104  N        -46.0740  -16.6640   12.9370 N.3   265  PHE265     -0.1241
    105  CA       -45.5370  -16.8170   14.2840 C.3   265  PHE265      0.1605
    106  C        -44.6920  -15.6180   14.7160 C.2   265  PHE265      0.2264
    107  O        -44.7330  -15.2260   15.8840 O.2   265  PHE265     -0.2867
    108  CB       -44.6940  -18.0860   14.3730 C.3   265  PHE265      0.0534
    109  CG       -44.0990  -18.3340   15.7390 C.ar  265  PHE265     -0.0203
    110  CD1      -44.9060  -18.7060   16.8030 C.ar  265  PHE265     -0.0042
    111  CD2      -42.7360  -18.2400   15.9440 C.ar  265  PHE265     -0.0042
    112  CE1      -44.3640  -18.9510   18.0580 C.ar  265  PHE265     -0.0003
    113  CE2      -42.1750  -18.4920   17.1980 C.ar  265  PHE265     -0.0003
    114  CZ       -42.9890  -18.8480   18.2520 C.ar  265  PHE265     -0.0000
    115  N        -47.1660  -21.2470   12.6370 N.3   294  HIS294     -0.1226
    116  CA       -46.2380  -22.0010   13.4740 C.3   294  HIS294      0.1752
    117  C        -46.3190  -23.5000   13.2040 C.2   294  HIS294      0.2595
    118  O        -45.2880  -24.1650   13.0510 O.2   294  HIS294     -0.2718
    119  CB       -46.5150  -21.7210   14.9500 C.3   294  HIS294      0.0759
    120  CG       -45.3370  -21.9830   15.8380 C.ar  294  HIS294      0.0818
    121  ND1      -44.0480  -21.6480   15.4800 N.ar  294  HIS294     -0.2268
    122  CD2      -45.2500  -22.5470   17.0660 C.ar  294  HIS294      0.1154
    123  CE1      -43.2200  -21.9790   16.4540 C.ar  294  HIS294      0.1986
    124  NE2      -43.9240  -22.5280   17.4280 N.ar  294  HIS294     -0.2212
    125  N        -47.5400  -24.0380   13.1060 N.am  295  GLN295     -0.1979
    126  CA       -47.7990  -25.4720   13.0500 C.3   295  GLN295      0.1601
    127  C        -47.4940  -26.1010   11.6930 C.2   295  GLN295      0.2287
    128  O        -47.6110  -27.3230   11.5610 O.2   295  GLN295     -0.2864
    129  CB       -49.2600  -25.7420   13.4120 C.3   295  GLN295      0.0394
    130  CG       -49.5810  -25.5980   14.8850 C.3   295  GLN295      0.0908
    131  CD       -48.7910  -26.5730   15.7230 C.2   295  GLN295      0.2608
    132  OE1      -48.9080  -27.7950   15.5680 O.2   295  GLN295     -0.2717
    133  NE2      -47.9480  -26.0420   16.5950 N.am  295  GLN295     -0.0878
    134  N        -44.8400  -29.0150   12.0820 N.3   298  ALA298     -0.1245
    135  CA       -45.1580  -30.2460   12.7950 C.3   298  ALA298      0.1562
    136  C        -46.2450  -31.0380   12.0690 C.2   298  ALA298      0.2260
    137  O        -46.9740  -30.5210   11.2200 O.2   298  ALA298     -0.2867
    138  CB       -45.6080  -29.9450   14.2290 C.3   298  ALA298      0.0290
    139  N        -49.1480  -32.2220   12.8280 N.3   300  PHE300     -0.1241
    140  CA       -50.5830  -32.0190   12.9800 C.3   300  PHE300      0.1605
    141  C        -51.1810  -31.1280   11.8940 C.2   300  PHE300      0.2264
    142  O        -52.4120  -31.0650   11.7800 O.2   300  PHE300     -0.2867
    143  CB       -50.8850  -31.4580   14.3650 C.3   300  PHE300      0.0534
    144  CG       -51.2260  -32.5200   15.3730 C.ar  300  PHE300     -0.0203
    145  CD1      -52.4800  -33.0980   15.3850 C.ar  300  PHE300     -0.0042
    146  CD2      -50.2920  -32.9400   16.3010 C.ar  300  PHE300     -0.0042
    147  CE1      -52.8020  -34.0760   16.3030 C.ar  300  PHE300     -0.0003
    148  CE2      -50.6040  -33.9170   17.2300 C.ar  300  PHE300     -0.0003
    149  CZ       -51.8600  -34.4860   17.2350 C.ar  300  PHE300     -0.0000
    150  N        -58.3310  -24.4630   13.6950 N.3   312  LEU312     -0.1245
    151  CA       -57.5220  -24.7480   14.8770 C.3   312  LEU312      0.1561
    152  C        -56.1280  -24.1240   14.8220 C.2   312  LEU312      0.2260
    153  O        -55.3230  -24.3600   15.7310 O.2   312  LEU312     -0.2867
    154  CB       -57.3930  -26.2620   15.0660 C.3   312  LEU312      0.0270
    155  CG       -58.6480  -26.9350   15.6140 C.3   312  LEU312      0.0019
    156  CD1      -58.6010  -28.4390   15.3730 C.3   312  LEU312      0.0001
    157  CD2      -58.7800  -26.6290   17.0970 C.3   312  LEU312      0.0001
    158  N        -53.9020  -24.9890   12.7830 N.3   314  LEU314     -0.1245
    159  CA       -53.0000  -26.0210   12.2900 C.3   314  LEU314      0.1561
    160  C        -52.5640  -25.7890   10.8500 C.2   314  LEU314      0.2260
    161  O        -51.5270  -26.3210   10.4320 O.2   314  LEU314     -0.2867
    162  CB       -53.6710  -27.3940   12.3880 C.3   314  LEU314      0.0270
    163  CG       -54.0020  -27.8890   13.7970 C.3   314  LEU314      0.0019
    164  CD1      -54.6060  -29.2770   13.7350 C.3   314  LEU314      0.0001
    165  CD2      -52.7630  -27.8570   14.6740 C.3   314  LEU314      0.0001
@<TRIPOS>BOND
     1   161   160    2
     2   160   159    1
     3   137   136    2
     4   128   127    2
     5    79    78    2
     6   127   126    1
     7   142   141    2
     8   141   140    1
     9   136   135    1
    10   134   135    1
    11    78    77    1
    12   159   162    1
    13   159   158    1
    14   162   163    1
    15   115   116    1
    16   135   138    1
    17   139   140    1
    18   104   105    1
    19   140   143    1
    20   126   125    1
    21   126   129    1
    22   118   117    2
    23   125   117   am
    24    77    80    1
    25    77    76    1
    26   117   116    1
    27   129   130    1
    28   116   119    1
    29    80    81    1
    30   150   151    1
    31   164   163    1
    32   163   165    1
    33    44    42   ar
    34    44    46   ar
    35    83    81   ar
    36    83    85   ar
    37    71    70    2
    38    76    70   am
    39   105   108    1
    40   105   106    1
    41    95    97   ar
    42    95    93   ar
    43   143   144    1
    44   108   109    1
    45    42    41   ar
    46    81    82   ar
    47    97    96   ar
    48    70    69    1
    49   106   107    2
    50   152   151    1
    51   152   153    2
    52   151   154    1
    53   130   131    1
    54    85    86   ar
    55   119   120    1
    56    46    45   ar
    57   154   155    1
    58    93    92    1
    59    93    94   ar
    60    92    89    1
    61   144   145   ar
    62   144   146   ar
    63   156   155    1
    64   145   147   ar
    65   121   120   ar
    66   121   123   ar
    67   132   131    2
    68    96    94   ar
    69   155   157    1
    70    89    88    1
    71    89    90    1
    72   131   133   am
    73   109   111   ar
    74   109   110   ar
    75    41    40    1
    76    41    43   ar
    77   120   122   ar
    78    69    68    1
    79    69    72    1
    80    82    84   ar
    81   111   113   ar
    82    37    40    1
    83    37    38    1
    84    37    36    1
    85    39    38    2
    86    86    84   ar
    87    86    87    1
    88   146   148   ar
    89   147   149   ar
    90    45    43   ar
    91   123   124   ar
    92   110   112   ar
    93    98    90   am
    94    98    99    1
    95    72    73    1
    96    90    91    2
    97   122   124   ar
    98   113   114   ar
    99   148   149   ar
   100    75    73    1
   101    73    74    1
   102    99   102    1
   103    99   100    1
   104   112   114   ar
   105   102   103    1
   106   101   100    2
   107    31    30    2
   108    47    48    1
   109    35    33    1
   110    67    64    1
   111    48    49    1
   112    30    29    1
   113    29    32    1
   114    29    28    1
   115     7     6    1
   116    33    32    1
   117    33    34    1
   118    64    65    1
   119    64    63    1
   120    49    50    2
   121    49    51   am
   122     8     6    1
   123    26    25    1
   124    65    66    2
   125    27    25    1
   126     6     5    1
   127    51    52    1
   128    63    61   am
   129    54    53    2
   130    18    19   ar
   131    18    16   ar
   132    25    24    1
   133    62    61    2
   134    61    60    1
   135     5     2    1
   136    53    52    1
   137    53    59   am
   138    19    17   ar
   139    52    55    1
   140    16    14   ar
   141    24    21    1
   142    60    59    1
   143    55    56    1
   144     2     3    1
   145     2     1    1
   146    17    15   ar
   147     4     3    2
   148    21    20    1
   149    21    22    1
   150    14    15   ar
   151    14    13    1
   152    56    58    1
   153    56    57    1
   154    23    22    2
   155    20    11   am
   156    13    10    1
   157    11    12    2
   158    11    10    1
   159    10     9    1
