@<TRIPOS>MOLECULE
tmp/5ye8B00.pdb
 111 108 0 0 0
SMALL
GASTEIGER

@<TRIPOS>ATOM
      1  N        -51.0290  -32.2840   25.3590 N.3    50  LEU50      -0.1245
      2  CA       -51.4510  -31.2640   24.4020 C.3    50  LEU50       0.1561
      3  C        -52.6680  -30.4990   24.9220 C.2    50  LEU50       0.2260
      4  O        -52.7550  -29.2880   24.7720 O.2    50  LEU50      -0.2867
      5  CB       -51.7610  -31.8950   23.0320 C.3    50  LEU50       0.0270
      6  CG       -50.5680  -32.1970   22.1220 C.3    50  LEU50       0.0019
      7  CD1      -50.9610  -33.1180   20.9630 C.3    50  LEU50       0.0001
      8  CD2      -49.9580  -30.9030   21.5890 C.3    50  LEU50       0.0001
      9  N        -51.4580  -28.0620   27.5210 N.3    53  PHE53      -0.1241
     10  CA       -50.7840  -26.9700   26.8160 C.3    53  PHE53       0.1605
     11  C        -51.7920  -25.9680   26.2620 C.2    53  PHE53       0.2264
     12  O        -51.5880  -24.7560   26.3310 O.2    53  PHE53      -0.2867
     13  CB       -49.9120  -27.5280   25.6820 C.3    53  PHE53       0.0534
     14  CG       -49.3290  -26.4750   24.7670 C.ar   53  PHE53      -0.0203
     15  CD1      -48.3610  -25.5860   25.2230 C.ar   53  PHE53      -0.0042
     16  CD2      -49.7190  -26.4040   23.4360 C.ar   53  PHE53      -0.0042
     17  CE1      -47.8130  -24.6420   24.3760 C.ar   53  PHE53      -0.0003
     18  CE2      -49.1830  -25.4570   22.5900 C.ar   53  PHE53      -0.0003
     19  CZ       -48.2320  -24.5690   23.0570 C.ar   53  PHE53      -0.0000
     20  N        -40.6380  -27.3260   19.4170 N.3    93  GLY93      -0.1210
     21  CA       -41.0750  -26.1080   20.0890 C.3    93  GLY93       0.1956
     22  C        -41.7330  -26.3320   21.4420 C.2    93  GLY93       0.2612
     23  O        -41.8560  -27.4680   21.9000 O.2    93  GLY93      -0.2717
     24  N        -42.1460  -25.2360   22.0790 N.am   94  LEU94      -0.1965
     25  CA       -42.8410  -25.2940   23.3600 C.3    94  LEU94       0.1728
     26  C        -44.1720  -26.0020   23.1570 C.2    94  LEU94       0.2617
     27  O        -44.9290  -25.6520   22.2600 O.2    94  LEU94      -0.2715
     28  CB       -43.0580  -23.8860   23.9390 C.3    94  LEU94       0.0311
     29  CG       -43.7990  -23.7970   25.2840 C.3    94  LEU94       0.0022
     30  CD1      -42.9460  -24.3910   26.3930 C.3    94  LEU94       0.0001
     31  CD2      -44.2090  -22.3620   25.6180 C.3    94  LEU94       0.0001
     32  N        -44.4330  -27.0170   23.9710 N.am   95  GLY95      -0.1940
     33  CA       -45.6830  -27.7480   23.9110 C.3    95  GLY95       0.2014
     34  C        -45.6700  -28.8630   22.8930 C.2    95  GLY95       0.2638
     35  O        -46.6570  -29.5930   22.7510 O.2    95  GLY95      -0.2714
     36  N        -44.5640  -28.9980   22.1650 N.am   96  ALA96      -0.1977
     37  CA       -44.4360  -30.1010   21.2240 C.3    96  ALA96       0.1597
     38  C        -43.7430  -31.2850   21.8800 C.2    96  ALA96       0.2287
     39  O        -43.7030  -31.3990   23.1100 O.2    96  ALA96      -0.2864
     40  CB       -43.6660  -29.6580   19.9670 C.3    96  ALA96       0.0319
     41  N        -43.5820  -34.4630   16.1600 N.3   100  LEU100     -0.1231
     42  CA       -44.4790  -33.5020   15.5190 C.3   100  LEU100      0.1693
     43  C        -43.8360  -32.7590   14.3570 C.2   100  LEU100      0.2592
     44  O        -44.4600  -31.8900   13.7590 O.2   100  LEU100     -0.2718
     45  CB       -45.0000  -32.5020   16.5560 C.3   100  LEU100      0.0284
     46  CG       -45.9010  -33.1090   17.6430 C.3   100  LEU100      0.0019
     47  CD1      -46.4500  -32.0330   18.5750 C.3   100  LEU100      0.0001
     48  CD2      -47.0430  -33.9310   17.0480 C.3   100  LEU100      0.0001
     49  N        -42.5950  -33.0950   14.0210 N.am  101  TYR101     -0.1976
     50  CA       -41.9480  -32.4170   12.9110 C.3   101  TYR101      0.1639
     51  C        -41.4670  -33.4090   11.8590 C.2   101  TYR101      0.2290
     52  O        -40.3710  -33.2750   11.3120 O.2   101  TYR101     -0.2864
     53  CB       -40.7860  -31.5630   13.4190 C.3   101  TYR101      0.0560
     54  CG       -41.2360  -30.4310   14.3300 C.ar  101  TYR101     -0.0198
     55  CD1      -41.4760  -29.1530   13.8230 C.ar  101  TYR101     -0.0009
     56  CD2      -41.4130  -30.6420   15.6920 C.ar  101  TYR101     -0.0009
     57  CE1      -41.8820  -28.1110   14.6470 C.ar  101  TYR101      0.0417
     58  CE2      -41.8300  -29.6030   16.5300 C.ar  101  TYR101      0.0417
     59  CZ       -42.0430  -28.3440   15.9990 C.ar  101  TYR101      0.1957
     60  OH       -42.4340  -27.3290   16.8320 O.3   101  TYR101     -0.2866
     61  N        -37.5290  -25.4870   15.6590 N.3   213  HIS213     -0.1226
     62  CA       -38.6580  -24.5780   15.4640 C.3   213  HIS213      0.1752
     63  C        -39.0340  -23.9100   16.7700 C.2   213  HIS213      0.2596
     64  O        -39.1410  -24.5710   17.8160 O.2   213  HIS213     -0.2718
     65  CB       -39.8510  -25.3580   14.9060 C.3   213  HIS213      0.0759
     66  CG       -41.1190  -24.5690   14.8180 C.ar  213  HIS213      0.0818
     67  ND1      -42.2610  -24.9220   15.5050 N.ar  213  HIS213     -0.2268
     68  CD2      -41.4350  -23.4590   14.1040 C.ar  213  HIS213      0.1154
     69  CE1      -43.2200  -24.0570   15.2340 C.ar  213  HIS213      0.1986
     70  NE2      -42.7520  -23.1640   14.3810 N.ar  213  HIS213     -0.2212
     71  N        -39.2140  -22.5920   16.7170 N.am  214  SER214     -0.1952
     72  CA       -39.7770  -21.8320   17.8300 C.3   214  SER214      0.1924
     73  C        -38.8510  -21.8850   19.0540 C.2   214  SER214      0.2314
     74  O        -37.7460  -21.3160   18.9920 O.2   214  SER214     -0.2863
     75  CB       -41.1890  -22.3380   18.1560 C.3   214  SER214      0.2116
     76  OG       -41.9030  -21.3610   18.9020 O.3   214  SER214     -0.2180
     77  N        -47.0890  -19.5310   12.2990 N.3   292  HIS292     -0.1226
     78  CA       -46.1620  -20.2840   13.1460 C.3   292  HIS292      0.1752
     79  C        -46.2810  -21.7950   12.9610 C.2   292  HIS292      0.2595
     80  O        -45.2780  -22.5050   12.9100 O.2   292  HIS292     -0.2718
     81  CB       -46.4110  -19.9170   14.6100 C.3   292  HIS292      0.0759
     82  CG       -45.2620  -20.2200   15.5170 C.ar  292  HIS292      0.0818
     83  ND1      -43.9670  -19.8490   15.2250 N.ar  292  HIS292     -0.2268
     84  CD2      -45.2190  -20.8210   16.7330 C.ar  292  HIS292      0.1154
     85  CE1      -43.1720  -20.2230   16.2140 C.ar  292  HIS292      0.1986
     86  NE2      -43.9070  -20.8150   17.1400 N.ar  292  HIS292     -0.2212
     87  N        -47.5120  -22.2820   12.8330 N.am  293  GLN293     -0.1979
     88  CA       -47.7520  -23.7210   12.7490 C.3   293  GLN293      0.1601
     89  C        -47.4070  -24.3460   11.4000 C.2   293  GLN293      0.2287
     90  O        -47.4350  -25.5670   11.2710 O.2   293  GLN293     -0.2864
     91  CB       -49.2120  -24.0310   13.0760 C.3   293  GLN293      0.0394
     92  CG       -49.5290  -23.8620   14.5380 C.3   293  GLN293      0.0908
     93  CD       -48.6030  -24.6900   15.4020 C.2   293  GLN293      0.2608
     94  OE1      -48.5110  -25.9080   15.2440 O.2   293  GLN293     -0.2717
     95  NE2      -47.8940  -24.0300   16.3090 N.am  293  GLN293     -0.0878
     96  N        -44.8010  -27.2050   11.6460 N.3   296  ALA296     -0.1245
     97  CA       -45.0870  -28.4210   12.4070 C.3   296  ALA296      0.1562
     98  C        -46.1670  -29.2260   11.7080 C.2   296  ALA296      0.2260
     99  O        -46.8480  -28.7050   10.8230 O.2   296  ALA296     -0.2867
    100  CB       -45.5140  -28.0780   13.8440 C.3   296  ALA296      0.0290
    101  N        -49.1510  -30.4900   12.4920 N.3   298  PHE298     -0.1241
    102  CA       -50.6030  -30.2870   12.6100 C.3   298  PHE298      0.1605
    103  C        -51.1470  -29.4010   11.4810 C.2   298  PHE298      0.2264
    104  O        -52.3580  -29.3280   11.2730 O.2   298  PHE298     -0.2867
    105  CB       -50.9750  -29.6890   13.9700 C.3   298  PHE298      0.0534
    106  CG       -51.3160  -30.7210   15.0170 C.ar  298  PHE298     -0.0203
    107  CD1      -52.5670  -31.3320   15.0320 C.ar  298  PHE298     -0.0042
    108  CD2      -50.3940  -31.0720   15.9870 C.ar  298  PHE298     -0.0042
    109  CE1      -52.8840  -32.2770   15.9930 C.ar  298  PHE298     -0.0003
    110  CE2      -50.7040  -32.0100   16.9550 C.ar  298  PHE298     -0.0003
    111  CZ       -51.9560  -32.6180   16.9580 C.ar  298  PHE298     -0.0000
@<TRIPOS>BOND
     1    99    98    2
     2    90    89    2
     3   104   103    2
     4    52    51    2
     5    89    88    1
     6   103   102    1
     7    96    97    1
     8    98    97    1
     9    51    50    1
    10    77    78    1
    11    97   100    1
    12   101   102    1
    13   102   105    1
    14    88    87    1
    15    88    91    1
    16    87    79   am
    17    80    79    2
    18    50    53    1
    19    50    49    1
    20    79    78    1
    21    91    92    1
    22    78    81    1
    23    53    54    1
    24    44    43    2
    25    55    54   ar
    26    55    57   ar
    27   105   106    1
    28    49    43   am
    29    68    70   ar
    30    68    66   ar
    31    54    56   ar
    32    43    42    1
    33    70    69   ar
    34    92    93    1
    35    81    82    1
    36    57    59   ar
    37    66    65    1
    38    66    67   ar
    39    65    62    1
    40   106   107   ar
    41   106   108   ar
    42   107   109   ar
    43    83    82   ar
    44    83    85   ar
    45    69    67   ar
    46    94    93    2
    47    93    95   am
    48    62    61    1
    49    62    63    1
    50    82    84   ar
    51    42    41    1
    52    42    45    1
    53    56    58   ar
    54   108   110   ar
    55   109   111   ar
    56    59    58   ar
    57    59    60    1
    58    85    86   ar
    59    45    46    1
    60    71    63   am
    61    71    72    1
    62    84    86   ar
    63    63    64    2
    64   110   111   ar
    65    48    46    1
    66    46    47    1
    67    72    75    1
    68    72    73    1
    69    75    76    1
    70    74    73    2
    71    20    21    1
    72    40    37    1
    73    21    22    1
    74     7     6    1
    75    37    38    1
    76    37    36    1
    77    22    23    2
    78    22    24   am
    79     8     6    1
    80    38    39    2
    81    24    25    1
    82     6     5    1
    83    36    34   am
    84    27    26    2
    85    18    19   ar
    86    18    16   ar
    87    35    34    2
    88    34    33    1
    89     5     2    1
    90    19    17   ar
    91    26    25    1
    92    26    32   am
    93    25    28    1
    94    16    14   ar
    95    33    32    1
    96    28    29    1
    97    17    15   ar
    98     2     3    1
    99     2     1    1
   100    14    15   ar
   101    14    13    1
   102     4     3    2
   103    29    31    1
   104    29    30    1
   105    13    10    1
   106    11    12    2
   107    11    10    1
   108    10     9    1
