@<TRIPOS>MOLECULE
tmp/5yeaA00.pdb
 181 175 0 0 0
SMALL
GASTEIGER

@<TRIPOS>ATOM
      1  N         11.4330   -6.8270   37.4170 N.3    55  LEU55      -0.1245
      2  CA        12.3570   -7.0350   36.3050 C.3    55  LEU55       0.1561
      3  C         13.4260   -8.0600   36.6600 C.2    55  LEU55       0.2260
      4  O         13.8040   -8.8870   35.8240 O.2    55  LEU55      -0.2867
      5  CB        13.0070   -5.7120   35.8970 C.3    55  LEU55       0.0270
      6  CG        12.1290   -4.7490   35.0910 C.3    55  LEU55       0.0019
      7  CD1       12.7600   -3.3700   35.0630 C.3    55  LEU55       0.0001
      8  CD2       11.8930   -5.2500   33.6620 C.3    55  LEU55       0.0001
      9  N         11.8620  -11.4150   36.3770 N.3    58  PHE58      -0.1227
     10  CA        11.6880  -11.7630   34.9680 C.3    58  PHE58       0.1736
     11  C         13.0030  -12.2140   34.3440 C.2    58  PHE58       0.2595
     12  O         13.0200  -13.1190   33.5010 O.2    58  PHE58      -0.2718
     13  CB        11.1320  -10.5640   34.2020 C.3    58  PHE58       0.0547
     14  CG        11.1740  -10.7200   32.6980 C.ar   58  PHE58      -0.0202
     15  CD1       10.3250  -11.6120   32.0540 C.ar   58  PHE58      -0.0042
     16  CD2       12.0400   -9.9590   31.9280 C.ar   58  PHE58      -0.0042
     17  CE1       10.3500  -11.7460   30.6620 C.ar   58  PHE58      -0.0003
     18  CE2       12.0690  -10.1000   30.5390 C.ar   58  PHE58      -0.0003
     19  CZ        11.2200  -10.9940   29.9190 C.ar   58  PHE58      -0.0000
     20  N         14.1090  -11.5800   34.7310 N.am   59  LEU59      -0.1980
     21  CA        15.4210  -11.8930   34.1870 C.3    59  LEU59       0.1596
     22  C         16.0780  -13.0860   34.8630 C.2    59  LEU59       0.2287
     23  O         17.2180  -13.4090   34.5260 O.2    59  LEU59      -0.2864
     24  CB        16.3410  -10.6750   34.3030 C.3    59  LEU59       0.0297
     25  CG        15.8680   -9.4940   33.4640 C.3    59  LEU59       0.0022
     26  CD1       16.7330   -8.2860   33.7450 C.3    59  LEU59       0.0001
     27  CD2       15.8990   -9.8620   31.9900 C.3    59  LEU59       0.0001
     28  N         19.7060   -8.0360   42.6470 N.3    65  MET65      -0.1245
     29  CA        19.7970   -7.3840   41.3510 C.3    65  MET65       0.1570
     30  C         18.7300   -6.3100   41.2130 C.2    65  MET65       0.2261
     31  O         18.9910   -5.2460   40.6430 O.2    65  MET65      -0.2867
     32  CB        19.6880   -8.4150   40.2280 C.3    65  MET65       0.0387
     33  CG        19.9230   -7.8380   38.8260 C.3    65  MET65       0.0595
     34  SD        21.5720   -7.1340   38.5720 S.3    65  MET65      -0.1393
     35  CE        22.5960   -8.3210   39.4350 C.3    65  MET65       0.0692
     36  N         19.5100   -2.5300   39.9450 N.3    69  LEU69      -0.1245
     37  CA        18.7760   -1.7990   38.9120 C.3    69  LEU69       0.1561
     38  C         18.2070   -0.4920   39.4570 C.2    69  LEU69       0.2260
     39  O         18.3480    0.5720   38.8380 O.2    69  LEU69      -0.2867
     40  CB        17.6630   -2.6860   38.3440 C.3    69  LEU69       0.0270
     41  CG        18.1670   -3.9900   37.7180 C.3    69  LEU69       0.0019
     42  CD1       17.0100   -4.8570   37.2160 C.3    69  LEU69       0.0001
     43  CD2       19.1720   -3.7210   36.5890 C.3    69  LEU69       0.0001
     44  N         18.9690    3.0160   37.8450 N.3    73  PHE73      -0.1241
     45  CA        17.9380    3.5860   36.9860 C.3    73  PHE73       0.1605
     46  C         16.7740    4.2250   37.7320 C.2    73  PHE73       0.2264
     47  O         15.8930    4.8090   37.0870 O.2    73  PHE73      -0.2867
     48  CB        17.4130    2.4960   36.0430 C.3    73  PHE73       0.0534
     49  CG        18.5000    1.8120   35.2410 C.ar   73  PHE73      -0.0203
     50  CD1       19.1960    2.5060   34.2680 C.ar   73  PHE73      -0.0042
     51  CD2       18.8120    0.4800   35.4560 C.ar   73  PHE73      -0.0042
     52  CE1       20.1930    1.8840   33.5250 C.ar   73  PHE73      -0.0003
     53  CE2       19.7970   -0.1450   34.7190 C.ar   73  PHE73      -0.0003
     54  CZ        20.4950    0.5630   33.7540 C.ar   73  PHE73      -0.0000
     55  N          5.2830   -5.5810   25.9690 N.3   100  GLY100     -0.1210
     56  CA         5.6630   -6.9790   25.8460 C.3   100  GLY100      0.1956
     57  C          5.7180   -7.7300   27.1860 C.2   100  GLY100      0.2612
     58  O          5.4380   -7.2040   28.2560 O.2   100  GLY100     -0.2717
     59  N          6.1110   -8.9930   27.1010 N.am  101  LEU101     -0.1965
     60  CA         6.2500   -9.8260   28.2920 C.3   101  LEU101      0.1728
     61  C          7.3910   -9.3090   29.1570 C.2   101  LEU101      0.2617
     62  O          8.4730   -9.0220   28.6510 O.2   101  LEU101     -0.2715
     63  CB         6.5300  -11.2670   27.8890 C.3   101  LEU101      0.0311
     64  CG         6.6720  -12.2680   29.0350 C.3   101  LEU101      0.0022
     65  CD1        5.3030  -12.4490   29.6910 C.3   101  LEU101      0.0001
     66  CD2        7.1930  -13.5690   28.4650 C.3   101  LEU101      0.0001
     67  N          7.1500   -9.1960   30.4600 N.am  102  GLY102     -0.1940
     68  CA         8.1520   -8.6870   31.3670 C.3   102  GLY102      0.2014
     69  C          8.3380   -7.1830   31.3510 C.2   102  GLY102      0.2638
     70  O          9.1500   -6.6760   32.1270 O.2   102  GLY102     -0.2714
     71  N          7.6110   -6.4500   30.5000 N.am  103  ALA103     -0.1977
     72  CA         7.6290   -4.9990   30.5180 C.3   103  ALA103      0.1597
     73  C          6.4950   -4.5050   31.4160 C.2   103  ALA103      0.2287
     74  O          5.9680   -5.2580   32.2440 O.2   103  ALA103     -0.2864
     75  CB         7.5230   -4.4290   29.0900 C.3   103  ALA103      0.0319
     76  N          7.8200    1.5220   29.7940 N.3   107  LEU107     -0.1231
     77  CA         9.0550    1.1190   29.1180 C.3   107  LEU107      0.1693
     78  C          9.0350    1.3470   27.6130 C.2   107  LEU107      0.2592
     79  O          9.9710    0.9160   26.9200 O.2   107  LEU107     -0.2718
     80  CB         9.3560   -0.3530   29.3850 C.3   107  LEU107      0.0284
     81  CG         9.6510   -0.6960   30.8450 C.3   107  LEU107      0.0019
     82  CD1       10.1960   -2.1330   30.9320 C.3   107  LEU107      0.0001
     83  CD2       10.6200    0.3120   31.4740 C.3   107  LEU107      0.0001
     84  N          8.0090    1.9920   27.0910 N.am  108  TYR108     -0.1976
     85  CA         7.9660    2.3120   25.6700 C.3   108  TYR108      0.1639
     86  C          7.7550    3.7990   25.4700 C.2   108  TYR108      0.2290
     87  O          7.0290    4.2380   24.5700 O.2   108  TYR108     -0.2864
     88  CB         6.8880    1.4930   24.9720 C.3   108  TYR108      0.0560
     89  CG         7.1730   -0.0030   25.0070 C.ar  108  TYR108     -0.0198
     90  CD1        6.7590   -0.7810   26.0800 C.ar  108  TYR108     -0.0009
     91  CD2        7.8600   -0.6300   23.9610 C.ar  108  TYR108     -0.0009
     92  CE1        7.0170   -2.1740   26.1250 C.ar  108  TYR108      0.0417
     93  CE2        8.1280   -2.0010   23.9920 C.ar  108  TYR108      0.0417
     94  CZ         7.6900   -2.7720   25.0720 C.ar  108  TYR108      0.1957
     95  OH         7.9350   -4.1400   25.0990 O.3   108  TYR108     -0.2866
     96  N          4.2050   -4.1510   21.1350 N.3   220  HIS220     -0.1226
     97  CA         5.4950   -4.8020   20.9160 C.3   220  HIS220      0.1752
     98  C          5.4820   -6.2090   21.4920 C.2   220  HIS220      0.2596
     99  O          5.0710   -6.4030   22.6410 O.2   220  HIS220     -0.2718
    100  CB         6.6280   -3.9960   21.5640 C.3   220  HIS220      0.0759
    101  CG         7.9570   -4.6880   21.5290 C.ar  220  HIS220      0.0818
    102  ND1        8.6500   -5.0290   22.6740 N.ar  220  HIS220     -0.2268
    103  CD2        8.7310   -5.0800   20.4860 C.ar  220  HIS220      0.1154
    104  CE1        9.7930   -5.6050   22.3380 C.ar  220  HIS220      0.1986
    105  NE2        9.8650   -5.6550   21.0170 N.ar  220  HIS220     -0.2212
    106  N          5.9460   -7.1840   20.6990 N.am  221  SER221     -0.1952
    107  CA         6.1870   -8.5640   21.1490 C.3   221  SER221      0.1924
    108  C          4.8620   -9.1950   21.5740 C.2   221  SER221      0.2314
    109  O          3.9990   -9.4040   20.7010 O.2   221  SER221     -0.2863
    110  CB         7.2940   -8.5260   22.2160 C.3   221  SER221      0.2116
    111  OG         7.7750   -9.8340   22.5200 O.3   221  SER221     -0.2180
    112  N         15.3700  -11.1130   15.6810 N.3   270  PHE270     -0.1241
    113  CA        14.4160  -11.8250   16.5260 C.3   270  PHE270      0.1605
    114  C         13.6220  -12.8880   15.7760 C.2   270  PHE270      0.2264
    115  O         13.2720  -13.9230   16.3630 O.2   270  PHE270     -0.2867
    116  CB        13.4420  -10.8250   17.1630 C.3   270  PHE270      0.0534
    117  CG        12.3000  -11.4680   17.8880 C.ar  270  PHE270     -0.0203
    118  CD1       12.4890  -12.0040   19.1590 C.ar  270  PHE270     -0.0042
    119  CD2       11.0380  -11.5390   17.3060 C.ar  270  PHE270     -0.0042
    120  CE1       11.4330  -12.5960   19.8480 C.ar  270  PHE270     -0.0003
    121  CE2        9.9850  -12.1400   17.9770 C.ar  270  PHE270     -0.0003
    122  CZ        10.1810  -12.6620   19.2480 C.ar  270  PHE270     -0.0000
    123  N         15.3590   -7.6540   19.2060 N.3   299  HIS299     -0.1226
    124  CA        13.9850   -7.5580   19.7070 C.3   299  HIS299      0.1752
    125  C         13.7680   -6.3130   20.5570 C.2   299  HIS299      0.2595
    126  O         12.7420   -5.6280   20.4380 O.2   299  HIS299     -0.2718
    127  CB        13.6640   -8.8070   20.5270 C.3   299  HIS299      0.0759
    128  CG        12.2000   -9.0350   20.7500 C.ar  299  HIS299      0.0818
    129  ND1       11.2720   -8.9560   19.7330 N.ar  299  HIS299     -0.2268
    130  CD2       11.5100   -9.3550   21.8710 C.ar  299  HIS299      0.1154
    131  CE1       10.0700   -9.2360   20.2160 C.ar  299  HIS299      0.1986
    132  NE2       10.1880   -9.4890   21.5110 N.ar  299  HIS299     -0.2212
    133  N         14.7280   -5.9900   21.4160 N.am  300  GLN300     -0.1979
    134  CA        14.5350   -4.9490   22.4110 C.3   300  GLN300      0.1601
    135  C         14.9090   -3.5570   21.9000 C.2   300  GLN300      0.2287
    136  O         14.8600   -2.5920   22.6710 O.2   300  GLN300     -0.2864
    137  CB        15.3020   -5.3260   23.6890 C.3   300  GLN300      0.0394
    138  CG        14.6270   -6.5210   24.3970 C.3   300  GLN300      0.0908
    139  CD        15.3570   -7.0210   25.6240 C.2   300  GLN300      0.2608
    140  OE1       14.8180   -7.0060   26.7300 O.2   300  GLN300     -0.2717
    141  NE2       16.5880   -7.4790   25.4360 N.am  300  GLN300     -0.0878
    142  N         12.1450   -1.1690   22.7940 N.3   303  ALA303     -0.1231
    143  CA        11.8710   -0.8730   24.1960 C.3   303  ALA303      0.1694
    144  C         12.9560    0.0230   24.7910 C.2   303  ALA303      0.2592
    145  O         14.0900    0.0690   24.3060 O.2   303  ALA303     -0.2718
    146  CB        11.7520   -2.1730   25.0070 C.3   303  ALA303      0.0304
    147  N         12.5880    0.7430   25.8600 N.am  304  ASP304     -0.1960
    148  CA        13.3850    1.8890   26.3120 C.3   304  ASP304      0.1840
    149  C         14.7570    1.5000   26.8520 C.2   304  ASP304      0.2622
    150  O         15.6730    2.3360   26.8330 O.2   304  ASP304     -0.2715
    151  CB        12.6550    2.6700   27.4020 C.3   304  ASP304      0.1450
    152  CG        11.5230    3.5420   26.8660 C.2   304  ASP304      0.3671
    153  OD1       11.3990    3.7370   25.6320 O.co2 304  ASP304     -0.2456
    154  OD2       10.7640    4.0390   27.7110 O.co2 304  ASP304     -0.2456
    155  N         14.9240    0.2770   27.3770 N.am  305  PHE305     -0.1974
    156  CA        16.2570   -0.0670   27.8810 C.3   305  PHE305      0.1639
    157  C         17.3040   -0.1180   26.7730 C.2   305  PHE305      0.2290
    158  O         18.5000   -0.1670   27.0840 O.2   305  PHE305     -0.2864
    159  CB        16.2290   -1.4010   28.6570 C.3   305  PHE305      0.0560
    160  CG        15.9360   -1.2370   30.1280 C.ar  305  PHE305     -0.0200
    161  CD1       16.9660   -0.9760   31.0350 C.ar  305  PHE305     -0.0042
    162  CD2       14.6340   -1.3120   30.6050 C.ar  305  PHE305     -0.0042
    163  CE1       16.6980   -0.8090   32.3860 C.ar  305  PHE305     -0.0003
    164  CE2       14.3560   -1.1500   31.9550 C.ar  305  PHE305     -0.0003
    165  CZ        15.3990   -0.9020   32.8510 C.ar  305  PHE305     -0.0000
    166  N         24.0500   -7.3960   26.6360 N.3   317  LEU317     -0.1245
    167  CA        22.7560   -7.7280   27.2150 C.3   317  LEU317      0.1561
    168  C         21.6580   -7.8730   26.1680 C.2   317  LEU317      0.2260
    169  O         20.4970   -8.0780   26.5440 O.2   317  LEU317     -0.2867
    170  CB        22.3450   -6.6640   28.2320 C.3   317  LEU317      0.0270
    171  CG        23.1980   -6.5000   29.4970 C.3   317  LEU317      0.0019
    172  CD1       22.8190   -5.2270   30.2300 C.3   317  LEU317      0.0001
    173  CD2       23.0390   -7.6970   30.4000 C.3   317  LEU317      0.0001
    174  N         20.3510   -5.6260   24.4960 N.3   319  LEU319     -0.1245
    175  CA        19.5360   -4.4160   24.4640 C.3   319  LEU319      0.1561
    176  C         19.7670   -3.6000   23.2030 C.2   319  LEU319      0.2260
    177  O         18.9250   -2.7650   22.8520 O.2   319  LEU319     -0.2867
    178  CB        19.8410   -3.5360   25.6810 C.3   319  LEU319      0.0270
    179  CG        19.3920   -4.1370   27.0220 C.3   319  LEU319      0.0019
    180  CD1       19.9000   -3.2800   28.1880 C.3   319  LEU319      0.0001
    181  CD2       17.8680   -4.2640   27.0520 C.3   319  LEU319      0.0001
@<TRIPOS>BOND
     1   112   113    1
     2   114   115    2
     3   114   113    1
     4   113   116    1
     5   116   117    1
     6   119   117   ar
     7   119   121   ar
     8   117   118   ar
     9   121   122   ar
    10   118   120   ar
    11   123   124    1
    12   122   120   ar
    13   124   127    1
    14   124   125    1
    15   129   131   ar
    16   129   128   ar
    17   131   132   ar
    18   126   125    2
    19   103   105   ar
    20   103   101   ar
    21   127   128    1
    22   125   133   am
    23   106   107    1
    24   106    98   am
    25   109   108    2
    26   128   130   ar
    27    97    96    1
    28    97    98    1
    29    97   100    1
    30   105   104   ar
    31   107   108    1
    32   107   110    1
    33   133   134    1
    34    98    99    2
    35   132   130   ar
    36   101   100    1
    37   101   102   ar
    38   135   134    1
    39   135   136    2
    40   110   111    1
    41   104   102   ar
    42   134   137    1
    43   142   143    1
    44   177   176    2
    45   176   175    1
    46   137   138    1
    47    91    93   ar
    48    91    89   ar
    49    93    94   ar
    50   143   144    1
    51   143   146    1
    52   145   144    2
    53   138   139    1
    54   175   174    1
    55   175   178    1
    56    87    86    2
    57   144   147   am
    58    88    89    1
    59    88    85    1
    60    89    90   ar
    61    94    95    1
    62    94    92   ar
    63   141   139   am
    64    86    85    1
    65   139   140    2
    66   153   152   ar
    67    85    84    1
    68   178   179    1
    69    56    55    1
    70    56    57    1
    71   147   148    1
    72    90    92   ar
    73   168   169    2
    74   168   167    1
    75   148   149    1
    76   148   151    1
    77   166   167    1
    78   157   158    2
    79   157   156    1
    80   150   149    2
    81   149   155   am
    82   152   151    1
    83   152   154   ar
    84    79    78    2
    85   179   181    1
    86   179   180    1
    87    84    78   am
    88    59    57   am
    89    59    60    1
    90    57    58    2
    91   167   170    1
    92   155   156    1
    93    78    77    1
    94   156   159    1
    95    63    60    1
    96    63    64    1
    97   170   171    1
    98    60    61    1
    99    66    64    1
   100    62    61    2
   101   159   160    1
   102    64    65    1
   103    75    72    1
   104    77    80    1
   105    77    76    1
   106    61    67   am
   107    80    81    1
   108   171   172    1
   109   171   173    1
   110    19    18   ar
   111    19    17   ar
   112   160   162   ar
   113   160   161   ar
   114    67    68    1
   115    71    72    1
   116    71    69   am
   117    72    73    1
   118    18    16   ar
   119   162   164   ar
   120    17    15   ar
   121    81    82    1
   122    81    83    1
   123   161   163   ar
   124    69    68    1
   125    69    70    2
   126    73    74    2
   127    16    14   ar
   128   164   165   ar
   129    27    25    1
   130    15    14   ar
   131   163   165   ar
   132    14    13    1
   133    25    26    1
   134    25    24    1
   135    12    11    2
   136    52    54   ar
   137    52    50   ar
   138     8     6    1
   139    54    53   ar
   140    21    24    1
   141    21    20    1
   142    21    22    1
   143    13    10    1
   144    50    49   ar
   145    11    20   am
   146    11    10    1
   147    23    22    2
   148    53    51   ar
   149    10     9    1
   150     7     6    1
   151     6     5    1
   152    49    51   ar
   153    49    48    1
   154     4     3    2
   155     5     2    1
   156    48    45    1
   157     2     3    1
   158     2     1    1
   159    43    41    1
   160    45    46    1
   161    45    44    1
   162    47    46    2
   163    42    41    1
   164    41    40    1
   165    40    37    1
   166    34    33    1
   167    34    35    1
   168    33    32    1
   169    39    38    2
   170    37    38    1
   171    37    36    1
   172    32    29    1
   173    31    30    2
   174    30    29    1
   175    29    28    1
