@<TRIPOS>MOLECULE
tmp/5yeiH00.pdb
 79 78 0 0 0
SMALL
GASTEIGER

@<TRIPOS>ATOM
      1  N          9.0550  -52.3560  -37.1850 N.3   262  VAL262     -0.1231
      2  CA        10.1390  -51.4580  -36.7930 C.3   262  VAL262      0.1678
      3  C         11.4610  -51.8780  -37.4270 C.2   262  VAL262      0.2434
      4  O         11.8530  -53.0560  -37.3560 O.2   262  VAL262     -0.2733
      5  CB        10.2520  -51.3720  -35.2700 C.3   262  VAL262      0.0265
      6  CG1       11.4970  -50.6170  -34.8780 C.3   262  VAL262      0.0020
      7  CG2        9.0510  -50.6170  -34.7480 C.3   262  VAL262      0.0020
      8  N         12.2370  -50.9690  -37.9830 N.am  263  PRO263     -0.2718
      9  CA        13.5270  -51.3860  -38.5400 C.3   263  PRO263      0.1535
     10  C         14.4840  -51.9390  -37.4810 C.2   263  PRO263      0.2599
     11  O         14.6390  -51.3520  -36.4460 O.2   263  PRO263     -0.2715
     12  CB        14.0940  -50.0990  -39.1170 C.3   263  PRO263      0.0310
     13  CG        13.4270  -49.0290  -38.3580 C.3   263  PRO263      0.0237
     14  CD        12.0490  -49.5220  -38.0710 C.3   263  PRO263      0.0939
     15  N         15.1360  -53.0530  -37.7840 N.am  264  ASP264     -0.1958
     16  CA        16.0380  -53.7110  -36.8530 C.3   264  ASP264      0.1840
     17  C         17.4180  -53.1140  -36.8520 C.2   264  ASP264      0.2623
     18  O         18.3520  -53.6780  -37.3350 O.2   264  ASP264     -0.2715
     19  CB        16.1160  -55.1860  -37.1810 C.3   264  ASP264      0.1450
     20  CG        16.9980  -55.9480  -36.2430 C.2   264  ASP264      0.3671
     21  OD1       16.9020  -55.7620  -35.0440 O.co2 264  ASP264     -0.2456
     22  OD2       17.7810  -56.7690  -36.6980 O.co2 264  ASP264     -0.2456
     23  N         17.5160  -51.9470  -36.2640 N.am  265  THR265     -0.1937
     24  CA        18.7450  -51.2170  -36.1800 C.3   265  THR265      0.2013
     25  C         19.0160  -50.8000  -34.7660 C.2   265  THR265      0.2484
     26  O         18.1170  -50.5400  -33.9930 O.2   265  THR265     -0.2729
     27  CB        18.6720  -49.9070  -36.9800 C.3   265  THR265      0.1807
     28  OG1       18.0990  -50.1350  -38.2690 O.3   265  THR265     -0.2208
     29  CG2       20.0460  -49.3260  -37.1310 C.3   265  THR265      0.0379
     30  N         20.3570  -50.7170  -34.4570 N.am  266  PRO266     -0.2715
     31  CA        20.6380  -50.2830  -33.0900 C.3   266  PRO266      0.1536
     32  C         20.0830  -48.8960  -32.7930 C.2   266  PRO266      0.2599
     33  O         20.0970  -48.0050  -33.6150 O.2   266  PRO266     -0.2715
     34  CB        22.1500  -50.2110  -33.0600 C.3   266  PRO266      0.0310
     35  CG        22.5720  -51.2860  -33.9490 C.3   266  PRO266      0.0237
     36  CD        21.6930  -51.0550  -35.1110 C.3   266  PRO266      0.0939
     37  N         19.5870  -48.7380  -31.5860 N.am  267  GLY267     -0.1941
     38  CA        19.0380  -47.4900  -31.1190 C.3   267  GLY267      0.2014
     39  C         17.5650  -47.2640  -31.3060 C.2   267  GLY267      0.2639
     40  O         17.0320  -46.3130  -30.7800 O.2   267  GLY267     -0.2714
     41  N         16.9110  -48.1220  -32.0670 N.am  268  VAL268     -0.1963
     42  CA        15.4950  -47.9790  -32.2670 C.3   268  VAL268      0.1727
     43  C         14.7400  -48.2890  -31.0200 C.2   268  VAL268      0.2616
     44  O         13.7620  -47.6830  -30.7410 O.2   268  VAL268     -0.2715
     45  CB        14.9620  -48.6970  -33.4960 C.3   268  VAL268      0.0290
     46  CG1       15.9450  -48.5900  -34.6170 C.3   268  VAL268      0.0023
     47  CG2       14.6540  -50.1280  -33.2040 C.3   268  VAL268      0.0023
     48  N         15.1950  -49.2670  -30.2730 N.am  269  ALA269     -0.1977
     49  CA        14.5650  -49.5950  -29.0040 C.3   269  ALA269      0.1597
     50  C         14.6000  -48.3920  -28.0710 C.2   269  ALA269      0.2287
     51  O         13.6330  -48.1280  -27.3430 O.2   269  ALA269     -0.2864
     52  CB        15.2350  -50.8150  -28.3650 C.3   269  ALA269      0.0319
     53  N         10.1970  -58.1420  -27.1110 N.3   288  GLN288     -0.1245
     54  CA        10.6100  -58.0390  -28.5020 C.3   288  GLN288      0.1566
     55  C         11.2120  -59.3630  -28.9230 C.2   288  GLN288      0.2260
     56  O         12.1860  -59.8330  -28.3180 O.2   288  GLN288     -0.2867
     57  CB        11.6160  -56.9170  -28.7120 C.3   288  GLN288      0.0367
     58  CG        12.0460  -56.7470  -30.1450 C.3   288  GLN288      0.0905
     59  CD        13.2670  -55.8910  -30.2190 C.2   288  GLN288      0.2608
     60  OE1       13.1670  -54.6710  -30.1780 O.2   288  GLN288     -0.2717
     61  NE2       14.4310  -56.5150  -30.3110 N.am  288  GLN288     -0.0878
     62  N         11.1200  -55.8520  -37.2170 N.3   296  THR296     -0.1218
     63  CA        10.6510  -56.5460  -36.0360 C.3   296  THR296      0.1862
     64  C          9.4900  -55.7680  -35.4350 C.2   296  THR296      0.2287
     65  O          9.1470  -54.6720  -35.8770 O.2   296  THR296     -0.2866
     66  CB        11.7670  -56.7420  -34.9890 C.3   296  THR296      0.1770
     67  OG1       11.3710  -57.7730  -34.0640 O.3   296  THR296     -0.2211
     68  CG2       12.0560  -55.4670  -34.1970 C.3   296  THR296      0.0375
     69  N          7.8230  -54.4790  -31.5740 N.3   298  PHE298     -0.1241
     70  CA         8.2130  -54.0760  -30.2260 C.3   298  PHE298      0.1605
     71  C          6.9360  -53.8350  -29.4440 C.2   298  PHE298      0.2264
     72  O          6.1160  -53.0030  -29.8450 O.2   298  PHE298     -0.2867
     73  CB         9.0970  -52.8280  -30.2680 C.3   298  PHE298      0.0534
     74  CG         9.6530  -52.4070  -28.9440 C.ar  298  PHE298     -0.0203
     75  CD1        8.8520  -51.7660  -28.0050 C.ar  298  PHE298     -0.0042
     76  CD2       10.9920  -52.5980  -28.6550 C.ar  298  PHE298     -0.0042
     77  CE1        9.3580  -51.3630  -26.8040 C.ar  298  PHE298     -0.0003
     78  CE2       11.5240  -52.1740  -27.4380 C.ar  298  PHE298     -0.0003
     79  CZ        10.7010  -51.5580  -26.5150 C.ar  298  PHE298     -0.0000
@<TRIPOS>BOND
     1    12     9    1
     2    12    13    1
     3     9     8    1
     4     9    10    1
     5    13    14    1
     6    28    27    1
     7    14     8    1
     8     8     3   am
     9    15    10   am
    10    15    16    1
    11    10    11    2
    12     3     4    2
    13     3     2    1
    14    18    17    2
    15    62    63    1
    16     1     2    1
    17    19    16    1
    18    19    20    1
    19    29    27    1
    20    27    24    1
    21    16    17    1
    22    17    23   am
    23     2     5    1
    24    22    20   ar
    25    23    24    1
    26    20    21   ar
    27    24    25    1
    28    63    64    1
    29    63    66    1
    30    65    64    2
    31     5     6    1
    32     5     7    1
    33    36    30    1
    34    36    35    1
    35    66    68    1
    36    66    67    1
    37    25    30   am
    38    25    26    2
    39    46    45    1
    40    30    31    1
    41    35    34    1
    42    33    32    2
    43    45    47    1
    44    45    42    1
    45    31    34    1
    46    31    32    1
    47    32    37   am
    48    42    41    1
    49    42    43    1
    50    41    39   am
    51    37    38    1
    52    69    70    1
    53    39    38    1
    54    39    40    2
    55    43    44    2
    56    43    48   am
    57    61    59   am
    58    48    49    1
    59    73    70    1
    60    73    74    1
    61    70    71    1
    62    59    60    2
    63    59    58    1
    64    58    57    1
    65    72    71    2
    66    49    52    1
    67    49    50    1
    68    74    76   ar
    69    74    75   ar
    70    55    54    1
    71    55    56    2
    72    57    54    1
    73    76    78   ar
    74    54    53    1
    75    50    51    2
    76    75    77   ar
    77    78    79   ar
    78    77    79   ar
