@<TRIPOS>MOLECULE
tmp/5yeiH02.pdb
 85 82 0 0 0
SMALL
GASTEIGER

@<TRIPOS>ATOM
      1  N         12.2500  -73.5670  -10.9330 N.3   342  MET342     -0.1230
      2  CA        11.8660  -73.5860  -12.3170 C.3   342  MET342      0.1702
      3  C         13.1380  -73.8490  -13.0710 C.2   342  MET342      0.2592
      4  O         13.1260  -74.4890  -14.0740 O.2   342  MET342     -0.2718
      5  CB        11.3190  -72.2720  -12.7620 C.3   342  MET342      0.0401
      6  CG         9.8970  -72.4010  -13.1910 C.3   342  MET342      0.0596
      7  SD         9.1890  -70.8190  -13.4710 S.3   342  MET342     -0.1393
      8  CE         9.8010  -70.5070  -15.0690 C.3   342  MET342      0.0692
      9  N         14.2320  -73.2860  -12.5800 N.am  343  ARG343     -0.1980
     10  CA        15.5490  -73.4650  -13.1830 C.3   343  ARG343      0.1597
     11  C         16.1040  -74.8570  -13.1070 C.2   343  ARG343      0.2287
     12  O         16.6960  -75.3170  -14.0290 O.2   343  ARG343     -0.2864
     13  CB        16.5750  -72.4420  -12.7160 C.3   343  ARG343      0.0334
     14  CG        16.5160  -71.9700  -11.2900 C.3   343  ARG343      0.0492
     15  CD        17.6360  -70.9670  -11.0950 C.3   343  ARG343      0.2205
     16  NE        17.4050  -70.0310  -10.0220 N.pl3 343  ARG343     -0.0865
     17  CZ        17.7900  -68.7720  -10.0610 C.cat 343  ARG343      0.5346
     18  NH1       17.5410  -67.9650   -9.0580 N.pl3 343  ARG343      0.1354
     19  NH2       18.4200  -68.3260  -11.1190 N.pl3 343  ARG343      0.1354
     20  N         14.3130  -77.6090  -12.7690 N.3   345  HIS345     -0.1226
     21  CA        13.4710  -78.5210  -13.5050 C.3   345  HIS345      0.1752
     22  C         13.2150  -78.2230  -14.9470 C.2   345  HIS345      0.2596
     23  O         13.4270  -77.1420  -15.3950 O.2   345  HIS345     -0.2718
     24  CB        12.1480  -78.7010  -12.7830 C.3   345  HIS345      0.0759
     25  CG        12.2630  -79.4840  -11.5250 C.ar  345  HIS345      0.0818
     26  ND1       12.4080  -78.8910  -10.2950 N.ar  345  HIS345     -0.2268
     27  CD2       12.2710  -80.8140  -11.3020 C.ar  345  HIS345      0.1154
     28  CE1       12.4890  -79.8220   -9.3670 C.ar  345  HIS345      0.1986
     29  NE2       12.4090  -80.9970   -9.9530 N.ar  345  HIS345     -0.2212
     30  N         12.7520  -79.2230  -15.6630 N.am  346  ALA346     -0.1966
     31  CA        12.3980  -79.0850  -17.0450 C.3   346  ALA346      0.1728
     32  C         10.9200  -79.3230  -17.0280 C.2   346  ALA346      0.2617
     33  O         10.4230  -79.9280  -16.1260 O.2   346  ALA346     -0.2715
     34  CB        13.0880  -80.1060  -17.8950 C.3   346  ALA346      0.0334
     35  N         10.2150  -78.8110  -18.0110 N.am  347  GLY347     -0.1940
     36  CA         8.7960  -78.9790  -18.0700 C.3   347  GLY347      0.2014
     37  C          7.8180  -78.0890  -17.3320 C.2   347  GLY347      0.2639
     38  O          6.6720  -78.4270  -17.3190 O.2   347  GLY347     -0.2714
     39  N          8.2410  -76.9850  -16.7340 N.am  348  VAL348     -0.1963
     40  CA         7.2710  -76.1530  -16.0230 C.3   348  VAL348      0.1727
     41  C          6.4610  -75.3230  -16.9930 C.2   348  VAL348      0.2616
     42  O          5.2270  -75.3080  -16.9230 O.2   348  VAL348     -0.2715
     43  CB         7.9680  -75.2640  -14.9760 C.3   348  VAL348      0.0290
     44  CG1        6.9330  -74.4100  -14.2020 C.3   348  VAL348      0.0023
     45  CG2        8.8150  -76.1240  -14.0610 C.3   348  VAL348      0.0023
     46  N          7.1230  -74.7040  -17.9700 N.am  349  ALA349     -0.1963
     47  CA         6.3990  -73.8430  -18.9020 C.3   349  ALA349      0.1728
     48  C          5.3950  -74.6460  -19.7230 C.2   349  ALA349      0.2616
     49  O          4.2530  -74.2140  -19.9190 O.2   349  ALA349     -0.2715
     50  CB         7.3880  -73.1250  -19.8180 C.3   349  ALA349      0.0334
     51  N          5.7910  -75.8480  -20.1360 N.am  350  SER350     -0.1950
     52  CA         4.9040  -76.7450  -20.8470 C.3   350  SER350      0.1924
     53  C          3.6080  -76.9630  -20.0810 C.2   350  SER350      0.2314
     54  O          2.5110  -76.9210  -20.6520 O.2   350  SER350     -0.2863
     55  CB         5.5910  -78.0940  -21.0300 C.3   350  SER350      0.2116
     56  OG         6.4610  -78.0690  -22.1280 O.3   350  SER350     -0.2180
     57  N          9.5590  -63.9010  -19.8600 N.3   368  THR368     -0.1203
     58  CA        10.1630  -64.8090  -18.9470 C.3   368  THR368      0.1994
     59  C         11.3050  -64.3450  -18.0700 C.2   368  THR368      0.2619
     60  O         11.9160  -63.3420  -18.2870 O.2   368  THR368     -0.2717
     61  CB        10.6650  -65.9990  -19.7770 C.3   368  THR368      0.1784
     62  OG1       10.9200  -67.0980  -18.9480 O.3   368  THR368     -0.2211
     63  CG2       11.9100  -65.6530  -20.5260 C.3   368  THR368      0.0376
     64  N         11.5550  -65.1440  -17.0660 N.am  369  SER369     -0.1937
     65  CA        12.6210  -64.9550  -16.1530 C.3   369  SER369      0.2055
     66  C         12.9950  -66.3460  -15.7260 C.2   369  SER369      0.2642
     67  O         12.2830  -67.2700  -15.9730 O.2   369  SER369     -0.2714
     68  CB        12.1900  -64.1180  -14.9770 C.3   369  SER369      0.2130
     69  OG        13.0870  -64.2720  -13.9430 O.3   369  SER369     -0.2179
     70  N         14.1210  -66.4860  -15.0770 N.am  370  GLU370     -0.1976
     71  CA        14.5710  -67.7790  -14.6350 C.3   370  GLU370      0.1602
     72  C         13.5690  -68.4080  -13.6900 C.2   370  GLU370      0.2287
     73  O         13.4020  -69.5920  -13.6880 O.2   370  GLU370     -0.2864
     74  CB        15.9260  -67.6620  -13.9820 C.3   370  GLU370      0.0415
     75  CG        17.0370  -67.4490  -14.9580 C.3   370  GLU370      0.1163
     76  CD        18.0430  -66.4790  -14.4340 C.2   370  GLU370      0.3649
     77  OE1       17.7020  -65.2860  -14.3730 O.co2 370  GLU370     -0.2457
     78  OE2       19.1630  -66.9040  -14.0840 O.co2 370  GLU370     -0.2457
     79  N          7.3690  -67.1680  -15.4730 N.3   373  VAL373     -0.1245
     80  CA         6.7880  -67.2190  -16.8030 C.3   373  VAL373      0.1561
     81  C          5.5660  -66.3320  -16.7940 C.2   373  VAL373      0.2260
     82  O          4.6460  -66.5510  -16.0000 O.2   373  VAL373     -0.2867
     83  CB         6.3870  -68.6400  -17.2280 C.3   373  VAL373      0.0252
     84  CG1        5.8870  -68.5840  -18.6060 C.3   373  VAL373      0.0019
     85  CG2        7.5550  -69.6030  -17.1780 C.3   373  VAL373      0.0019
@<TRIPOS>BOND
     1    56    55    1
     2    55    52    1
     3    52    51    1
     4    52    53    1
     5    54    53    2
     6    63    61    1
     7    51    48   am
     8    49    48    2
     9    57    58    1
    10    50    47    1
    11    61    62    1
    12    61    58    1
    13    48    47    1
    14    58    59    1
    15    47    46    1
    16    84    83    1
    17    60    59    2
    18    36    35    1
    19    36    37    1
    20    59    64   am
    21    35    32   am
    22    46    41   am
    23    34    31    1
    24    37    38    2
    25    37    39   am
    26    83    85    1
    27    83    80    1
    28    64    65    1
    29    31    32    1
    30    31    30    1
    31    32    33    2
    32    41    42    2
    33    41    40    1
    34    80    81    1
    35    80    79    1
    36    81    82    2
    37    39    40    1
    38    65    66    1
    39    65    68    1
    40    40    43    1
    41    67    66    2
    42    66    70   am
    43    30    22   am
    44    23    22    2
    45    70    71    1
    46     8     7    1
    47    68    69    1
    48    43    44    1
    49    43    45    1
    50    75    76    1
    51    75    74    1
    52    22    21    1
    53    71    74    1
    54    71    72    1
    55    76    77   ar
    56    76    78   ar
    57     4     3    2
    58    12    11    2
    59    72    73    2
    60    21    24    1
    61    21    20    1
    62     7     6    1
    63     6     5    1
    64    10    11    1
    65    10    13    1
    66    10     9    1
    67     3     9   am
    68     3     2    1
    69    24    25    1
    70     5     2    1
    71    13    14    1
    72     2     1    1
    73    25    27   ar
    74    25    26   ar
    75    27    29   ar
    76    14    15    1
    77    19    17    1
    78    15    16    1
    79    26    28   ar
    80    17    16    2
    81    17    18    1
    82    29    28   ar
