@<TRIPOS>MOLECULE
tmp/5yf0A00.pdb
 202 199 0 0 0
SMALL
GASTEIGER

@<TRIPOS>ATOM
      1  N        -46.1060   53.5660    0.6420 N.3    91  GLN91      -0.1245
      2  CA       -44.7980   54.1980    0.4970 C.3    91  GLN91       0.1566
      3  C        -44.6020   55.3150    1.5130 C.2    91  GLN91       0.2260
      4  O        -43.4700   55.5600    1.9510 O.2    91  GLN91      -0.2867
      5  CB       -44.6190   54.7370   -0.9240 C.3    91  GLN91       0.0367
      6  CG       -43.1790   55.1040   -1.2630 C.3    91  GLN91       0.0905
      7  CD       -42.2920   53.8770   -1.4950 C.2    91  GLN91       0.2608
      8  OE1      -42.7800   52.7910   -1.8320 O.2    91  GLN91      -0.2717
      9  NE2      -40.9840   54.0510   -1.3180 N.am   91  GLN91      -0.0878
     10  N        -42.8500   53.8390    4.5400 N.3    94  ARG94      -0.1231
     11  CA       -41.4260   53.5780    4.3520 C.3    94  ARG94       0.1694
     12  C        -40.6100   54.8660    4.3610 C.2    94  ARG94       0.2592
     13  O        -39.5730   54.9500    5.0260 O.2    94  ARG94      -0.2718
     14  CB       -41.2220   52.8310    3.0340 C.3    94  ARG94       0.0321
     15  CG       -39.7800   52.5440    2.6570 C.3    94  ARG94       0.0489
     16  CD       -39.7990   51.6450    1.4130 C.3    94  ARG94       0.2205
     17  NE       -38.5060   51.4850    0.7550 N.pl3  94  ARG94      -0.0865
     18  CZ       -37.6190   50.5490    1.0750 C.cat  94  ARG94       0.5346
     19  NH1      -37.8730   49.7000    2.0740 N.pl3  94  ARG94       0.1354
     20  NH2      -36.4810   50.4510    0.3920 N.pl3  94  ARG94       0.1354
     21  N        -41.0680   55.8850    3.6370 N.am   95  ASP95      -0.1974
     22  CA       -40.2190   57.0420    3.3910 C.3    95  ASP95       0.1709
     23  C        -40.3790   58.1660    4.4080 C.2    95  ASP95       0.2293
     24  O        -39.3890   58.8470    4.7000 O.2    95  ASP95      -0.2864
     25  CB       -40.4710   57.5880    1.9820 C.3    95  ASP95       0.1436
     26  CG       -39.4760   57.0490    0.9640 C.2    95  ASP95       0.3671
     27  OD1      -38.6690   56.1540    1.3030 O.co2  95  ASP95      -0.2456
     28  OD2      -39.4870   57.5280   -0.1740 O.co2  95  ASP95      -0.2456
     29  N        -31.4600   52.2210    3.4000 N.3   108  TYR108     -0.1241
     30  CA       -30.8680   53.5220    3.0800 C.3   108  TYR108      0.1605
     31  C        -29.5200   53.7200    3.7550 C.2   108  TYR108      0.2264
     32  O        -28.6100   54.3130    3.1630 O.2   108  TYR108     -0.2867
     33  CB       -31.8090   54.6590    3.4880 C.3   108  TYR108      0.0534
     34  CG       -33.1190   54.6690    2.7330 C.ar  108  TYR108     -0.0201
     35  CD1      -33.3170   53.8460    1.6220 C.ar  108  TYR108     -0.0009
     36  CD2      -34.1580   55.5090    3.1220 C.ar  108  TYR108     -0.0009
     37  CE1      -34.5330   53.8510    0.9240 C.ar  108  TYR108      0.0417
     38  CE2      -35.3710   55.5360    2.4210 C.ar  108  TYR108      0.0417
     39  CZ       -35.5550   54.7010    1.3340 C.ar  108  TYR108      0.1957
     40  OH       -36.7600   54.7240    0.6530 O.3   108  TYR108     -0.2866
     41  N        -30.3730   59.6390   -7.8730 N.3   133  VAL133     -0.1231
     42  CA       -31.1350   58.5480   -7.2730 C.3   133  VAL133      0.1678
     43  C        -32.2920   58.1980   -8.2120 C.2   133  VAL133      0.2434
     44  O        -33.3760   58.7850   -8.0900 O.2   133  VAL133     -0.2733
     45  CB       -31.6300   58.9430   -5.8690 C.3   133  VAL133      0.0265
     46  CG1      -32.4040   57.8060   -5.2110 C.3   133  VAL133      0.0020
     47  CG2      -30.4570   59.3630   -4.9890 C.3   133  VAL133      0.0020
     48  N        -32.1170   57.2810   -9.1700 N.am  134  PRO134     -0.2718
     49  CA       -33.2380   56.9300  -10.0560 C.3   134  PRO134      0.1535
     50  C        -34.3080   56.1660   -9.2880 C.2   134  PRO134      0.2599
     51  O        -34.0260   55.4950   -8.2910 O.2   134  PRO134     -0.2715
     52  CB       -32.5920   56.0530  -11.1430 C.3   134  PRO134      0.0310
     53  CG       -31.0860   56.2330  -10.9860 C.3   134  PRO134      0.0237
     54  CD       -30.8810   56.5570   -9.5200 C.3   134  PRO134      0.0939
     55  N        -35.5530   56.2970   -9.7510 N.am  135  GLY135     -0.1941
     56  CA       -36.6950   55.7090   -9.0640 C.3   135  GLY135      0.2014
     57  C        -36.7480   56.0760   -7.5920 C.2   135  GLY135      0.2639
     58  O        -36.8080   55.1990   -6.7230 O.2   135  GLY135     -0.2714
     59  N        -36.7170   57.3770   -7.2980 N.am  136  ALA136     -0.1963
     60  CA       -36.5570   57.8320   -5.9240 C.3   136  ALA136      0.1728
     61  C        -37.8050   57.6460   -5.0790 C.2   136  ALA136      0.2616
     62  O        -37.7680   58.0010   -3.8930 O.2   136  ALA136     -0.2715
     63  CB       -36.1430   59.3100   -5.9070 C.3   136  ALA136      0.0334
     64  N        -38.8970   57.1340   -5.6440 N.am  137  GLY137     -0.1955
     65  CA       -40.0950   56.8950   -4.8460 C.3   137  GLY137      0.1869
     66  C        -40.6130   58.1920   -4.2530 C.2   137  GLY137      0.2309
     67  O        -40.9270   59.1460   -4.9690 O.2   137  GLY137     -0.2863
     68  N        -34.5510   58.8500    0.5220 N.3   141  LEU141     -0.1245
     69  CA       -33.1230   58.5640    0.3680 C.3   141  LEU141      0.1561
     70  C        -32.3860   59.7470   -0.2600 C.2   141  LEU141      0.2260
     71  O        -31.3410   60.1790    0.2370 O.2   141  LEU141     -0.2867
     72  CB       -32.9190   57.2970   -0.4700 C.3   141  LEU141      0.0270
     73  CG       -31.4700   56.9460   -0.8640 C.3   141  LEU141      0.0019
     74  CD1      -30.5540   56.7930    0.3680 C.3   141  LEU141      0.0001
     75  CD2      -31.4310   55.6830   -1.6910 C.3   141  LEU141      0.0001
     76  N        -35.0100   61.0970   -9.1150 N.3   155  ASN155     -0.1225
     77  CA       -35.7300   60.9800  -10.3710 C.3   155  ASN155      0.1785
     78  C        -36.8330   59.9470  -10.2240 C.2   155  ASN155      0.2597
     79  O        -36.6080   58.8620   -9.6710 O.2   155  ASN155     -0.2718
     80  CB       -34.8030   60.5750  -11.5120 C.3   155  ASN155      0.1169
     81  CG       -35.5550   59.9310  -12.6600 C.2   155  ASN155      0.2627
     82  OD1      -35.5200   58.7160  -12.8330 O.2   155  ASN155     -0.2716
     83  ND2      -36.2510   60.7420  -13.4410 N.am  155  ASN155     -0.0877
     84  N        -38.0160   60.2690  -10.7450 N.am  156  GLU156     -0.1965
     85  CA       -39.1480   59.3680  -10.5860 C.3   156  GLU156      0.1733
     86  C        -40.0480   59.4510  -11.8080 C.2   156  GLU156      0.2616
     87  O        -40.2820   60.5340  -12.3500 O.2   156  GLU156     -0.2715
     88  CB       -39.9140   59.6870   -9.2960 C.3   156  GLU156      0.0429
     89  CG       -41.1090   58.8150   -9.0000 C.3   156  GLU156      0.1163
     90  CD       -40.8290   57.3150   -9.0710 C.2   156  GLU156      0.3649
     91  OE1      -39.9770   56.8030   -8.3120 O.co2 156  GLU156     -0.2457
     92  OE2      -41.4850   56.6470   -9.8950 O.co2 156  GLU156     -0.2457
     93  N        -40.5400   58.2890  -12.2310 N.am  157  TRP157     -0.1960
     94  CA       -41.3670   58.1140  -13.4190 C.3   157  TRP157      0.1771
     95  C        -42.8560   58.1850  -13.0980 C.2   157  TRP157      0.2620
     96  O        -43.6400   58.7320  -13.8830 O.2   157  TRP157     -0.2715
     97  CB       -41.0460   56.7580  -14.0520 C.3   157  TRP157      0.0590
     98  CG       -41.3630   56.6090  -15.4950 C.ar  157  TRP157      0.0006
     99  CD1      -41.6520   57.5980  -16.3860 C.ar  157  TRP157      0.0946
    100  CD2      -41.4120   55.3780  -16.2290 C.ar  157  TRP157      0.0152
    101  NE1      -41.8790   57.0580  -17.6320 N.ar  157  TRP157     -0.2442
    102  CE2      -41.7350   55.6960  -17.5590 C.ar  157  TRP157      0.0810
    103  CE3      -41.2170   54.0340  -15.8850 C.ar  157  TRP157      0.0012
    104  CZ2      -41.8700   54.7220  -18.5470 C.ar  157  TRP157      0.0191
    105  CZ3      -41.3490   53.0660  -16.8700 C.ar  157  TRP157      0.0001
    106  CH2      -41.6710   53.4170  -18.1830 C.ar  157  TRP157      0.0015
    107  N        -43.2530   57.6370  -11.9530 N.am  158  SER158     -0.1950
    108  CA       -44.6590   57.4590  -11.6320 C.3   158  SER158      0.1924
    109  C        -45.2760   58.7570  -11.1290 C.2   158  SER158      0.2314
    110  O        -44.7730   59.3690  -10.1810 O.2   158  SER158     -0.2863
    111  CB       -44.8210   56.3620  -10.5750 C.3   158  SER158      0.2116
    112  OG       -46.0930   56.4540   -9.9700 O.3   158  SER158     -0.2180
    113  N        -46.1310   58.6590   -7.4720 N.3   161  MET161     -0.1245
    114  CA       -45.0280   59.0190   -6.5860 C.3   161  MET161      0.1570
    115  C        -44.6930   60.5060   -6.6720 C.2   161  MET161      0.2261
    116  O        -44.3890   61.1340   -5.6510 O.2   161  MET161     -0.2867
    117  CB       -43.7970   58.1790   -6.9210 C.3   161  MET161      0.0387
    118  CG       -43.9720   56.6920   -6.7050 C.3   161  MET161      0.0595
    119  SD       -44.0340   56.2710   -4.9630 S.3   161  MET161     -0.1393
    120  CE       -43.8310   54.4850   -5.0500 C.3   161  MET161      0.0692
    121  N        -39.8280   61.7560  -14.9710 N.3   221  GLY221     -0.1210
    122  CA       -39.6070   61.1300  -16.2560 C.3   221  GLY221      0.1956
    123  C        -38.8730   59.8110  -16.1810 C.2   221  GLY221      0.2612
    124  O        -38.3100   59.4430  -15.1410 O.2   221  GLY221     -0.2717
    125  N        -38.9080   59.0860  -17.2930 N.am  222  ASP222     -0.1959
    126  CA       -38.1360   57.8740  -17.4920 C.3   222  ASP222      0.1840
    127  C        -36.6560   58.1750  -17.3300 C.2   222  ASP222      0.2622
    128  O        -36.0810   58.9050  -18.1360 O.2   222  ASP222     -0.2715
    129  CB       -38.4100   57.3090  -18.8900 C.3   222  ASP222      0.1450
    130  CG       -37.7860   55.9440  -19.1140 C.2   222  ASP222      0.3671
    131  OD1      -36.9760   55.4800  -18.2810 O.co2 222  ASP222     -0.2456
    132  OD2      -38.1220   55.3300  -20.1480 O.co2 222  ASP222     -0.2456
    133  N        -36.0500   57.6140  -16.2900 N.am  223  PHE223     -0.1974
    134  CA       -34.6100   57.6060  -16.0640 C.3   223  PHE223      0.1639
    135  C        -33.8160   57.4390  -17.3570 C.2   223  PHE223      0.2290
    136  O        -32.8150   58.1260  -17.5800 O.2   223  PHE223     -0.2864
    137  CB       -34.2830   56.4730  -15.0820 C.3   223  PHE223      0.0560
    138  CG       -32.8390   56.0870  -15.0340 C.ar  223  PHE223     -0.0200
    139  CD1      -31.8780   56.9860  -14.6120 C.ar  223  PHE223     -0.0042
    140  CD2      -32.4470   54.8010  -15.3720 C.ar  223  PHE223     -0.0042
    141  CE1      -30.5410   56.6200  -14.5500 C.ar  223  PHE223     -0.0003
    142  CE2      -31.1170   54.4300  -15.3070 C.ar  223  PHE223     -0.0003
    143  CZ       -30.1630   55.3420  -14.8960 C.ar  223  PHE223     -0.0000
    144  N        -31.8550   51.8890   -5.4280 N.3   239  CYS239     -0.1221
    145  CA       -32.3900   51.1740   -4.2780 C.3   239  CYS239      0.1808
    146  C        -33.7310   50.5750   -4.6860 C.2   239  CYS239      0.2601
    147  O        -34.6770   51.3170   -4.9720 O.2   239  CYS239     -0.2717
    148  CB       -32.5450   52.1150   -3.0850 C.3   239  CYS239      0.0970
    149  SG       -33.0850   51.2780   -1.5730 S.3   239  CYS239     -0.0800
    150  N        -33.8090   49.2410   -4.7430 N.am  240  PHE240     -0.1962
    151  CA       -35.0270   48.5450   -5.1970 C.3   240  PHE240      0.1771
    152  C        -35.4790   49.0510   -6.5670 C.2   240  PHE240      0.2619
    153  O        -36.6670   49.2660   -6.8050 O.2   240  PHE240     -0.2715
    154  CB       -36.1670   48.6950   -4.1800 C.3   240  PHE240      0.0574
    155  CG       -36.0890   47.7370   -3.0220 C.ar  240  PHE240     -0.0200
    156  CD1      -35.1110   47.8790   -2.0480 C.ar  240  PHE240     -0.0042
    157  CD2      -37.0070   46.7020   -2.9020 C.ar  240  PHE240     -0.0042
    158  CE1      -35.0390   46.9950   -0.9610 C.ar  240  PHE240     -0.0003
    159  CE2      -36.9380   45.8120   -1.8330 C.ar  240  PHE240     -0.0003
    160  CZ       -35.9450   45.9600   -0.8620 C.ar  240  PHE240     -0.0000
    161  N        -34.5280   49.2690   -7.4710 N.am  241  PHE241     -0.1974
    162  CA       -34.8330   49.9550   -8.7210 C.3   241  PHE241      0.1639
    163  C        -34.5110   49.1560   -9.9740 C.2   241  PHE241      0.2290
    164  O        -35.2780   49.2090  -10.9430 O.2   241  PHE241     -0.2864
    165  CB       -34.0770   51.3040   -8.7900 C.3   241  PHE241      0.0560
    166  CG       -34.1620   51.9730  -10.1390 C.ar  241  PHE241     -0.0200
    167  CD1      -35.3460   52.5770  -10.5520 C.ar  241  PHE241     -0.0042
    168  CD2      -33.0730   51.9770  -11.0040 C.ar  241  PHE241     -0.0042
    169  CE1      -35.4460   53.1850  -11.7960 C.ar  241  PHE241     -0.0003
    170  CE2      -33.1620   52.5780  -12.2490 C.ar  241  PHE241     -0.0003
    171  CZ       -34.3510   53.1860  -12.6480 C.ar  241  PHE241     -0.0000
    172  N        -36.9200   47.1480  -12.0700 N.3   244  THR244     -0.1218
    173  CA       -38.0270   47.7850  -12.7790 C.3   244  THR244      0.1862
    174  C        -37.7980   47.8530  -14.2890 C.2   244  THR244      0.2287
    175  O        -38.6920   48.2910  -15.0200 O.2   244  THR244     -0.2866
    176  CB       -38.2730   49.2030  -12.2430 C.3   244  THR244      0.1770
    177  OG1      -37.1760   50.0610  -12.6070 O.3   244  THR244     -0.2211
    178  CG2      -38.4200   49.1890  -10.7290 C.3   244  THR244      0.0375
    179  N        -30.4210   49.6890  -18.4500 N.3   251  TYR251     -0.1241
    180  CA       -30.1170   50.4860  -17.2610 C.3   251  TYR251      0.1605
    181  C        -28.6190   50.5370  -17.0250 C.2   251  TYR251      0.2264
    182  O        -28.0590   51.5960  -16.7190 O.2   251  TYR251     -0.2867
    183  CB       -30.7940   49.9140  -16.0100 C.3   251  TYR251      0.0534
    184  CG       -32.2510   50.2560  -15.7780 C.ar  251  TYR251     -0.0201
    185  CD1      -33.0030   50.9450  -16.7240 C.ar  251  TYR251     -0.0009
    186  CD2      -32.8740   49.8880  -14.5850 C.ar  251  TYR251     -0.0009
    187  CE1      -34.3620   51.2360  -16.4970 C.ar  251  TYR251      0.0417
    188  CE2      -34.2080   50.1830  -14.3450 C.ar  251  TYR251      0.0417
    189  CZ       -34.9530   50.8510  -15.3010 C.ar  251  TYR251      0.1957
    190  OH       -36.2770   51.1350  -15.0450 O.3   251  TYR251     -0.2866
    191  N        -40.1260   45.5950    2.6140 N.3   313  TYR313     -0.1241
    192  CA       -40.5150   46.7270    1.7780 C.3   313  TYR313      0.1605
    193  C        -41.9720   47.0490    2.0740 C.2   313  TYR313      0.2264
    194  O        -42.8520   46.2400    1.7700 O.2   313  TYR313     -0.2867
    195  CB       -40.2980   46.4250    0.2930 C.3   313  TYR313      0.0534
    196  CG       -40.4070   47.6540   -0.5700 C.ar  313  TYR313     -0.0201
    197  CD1      -41.6320   48.0550   -1.0880 C.ar  313  TYR313     -0.0009
    198  CD2      -39.2890   48.4290   -0.8530 C.ar  313  TYR313     -0.0009
    199  CE1      -41.7480   49.1900   -1.8760 C.ar  313  TYR313      0.0417
    200  CE2      -39.3870   49.5730   -1.6530 C.ar  313  TYR313      0.0417
    201  CZ       -40.6230   49.9480   -2.1550 C.ar  313  TYR313      0.1957
    202  OH       -40.7500   51.0760   -2.9360 O.3   313  TYR313     -0.2866
@<TRIPOS>BOND
     1   132   130   ar
     2   130   129    1
     3   130   131   ar
     4   129   126    1
     5   104   106   ar
     6   104   102   ar
     7   179   180    1
     8   106   105   ar
     9   128   127    2
    10   101   102   ar
    11   101    99   ar
    12   136   135    2
    13   102   100   ar
    14   126   127    1
    15   126   125    1
    16   135   134    1
    17   127   133   am
    18   125   123   am
    19   180   181    1
    20   180   183    1
    21   181   182    2
    22   105   103   ar
    23   185   187   ar
    24   185   184   ar
    25   187   189   ar
    26    99    98   ar
    27   133   134    1
    28   122   123    1
    29   122   121    1
    30   100   103   ar
    31   100    98   ar
    32   123   124    2
    33   134   137    1
    34   183   184    1
    35   184   186   ar
    36    98    97    1
    37   140   142   ar
    38   140   138   ar
    39   142   143   ar
    40   189   190    1
    41   189   188   ar
    42   137   138    1
    43   138   139   ar
    44   175   174    2
    45   143   141   ar
    46   139   141   ar
    47   186   188   ar
    48   174   173    1
    49    97    94    1
    50    96    95    2
    51    83    81   am
    52    94    95    1
    53    94    93    1
    54    95   107   am
    55    82    81    2
    56   173   176    1
    57   173   172    1
    58    81    80    1
    59   171   170   ar
    60   171   169   ar
    61   177   176    1
    62    87    86    2
    63   170   168   ar
    64   176   178    1
    65    93    86   am
    66   107   108    1
    67    86    85    1
    68   169   167   ar
    69   108   109    1
    70   108   111    1
    71    80    77    1
    72    52    53    1
    73    52    49    1
    74   109   110    2
    75   168   166   ar
    76    53    54    1
    77   164   163    2
    78    84    85    1
    79    84    78   am
    80    85    88    1
    81   111   112    1
    82   167   166   ar
    83    77    78    1
    84    77    76    1
    85    78    79    2
    86   166   165    1
    87    49    50    1
    88    49    48    1
    89   163   162    1
    90    92    90   ar
    91    55    50   am
    92    55    56    1
    93    54    48    1
    94    88    89    1
    95    50    51    2
    96    48    43   am
    97    90    89    1
    98    90    91   ar
    99    56    57    1
   100   165   162    1
   101   162   161    1
   102    43    44    2
   103    43    42    1
   104    41    42    1
   105    57    59   am
   106    57    58    2
   107   113   114    1
   108   161   152   am
   109    59    60    1
   110    42    45    1
   111   117   118    1
   112   117   114    1
   113   153   152    2
   114   118   119    1
   115   115   114    1
   116   115   116    2
   117   152   151    1
   118    60    63    1
   119    60    61    1
   120    45    46    1
   121    45    47    1
   122    64    61   am
   123    64    65    1
   124   144   145    1
   125   151   150    1
   126   151   154    1
   127    61    62    2
   128   120   119    1
   129   147   146    2
   130    67    66    2
   131    65    66    1
   132   150   146   am
   133   146   145    1
   134   145   148    1
   135   154   155    1
   136   148   149    1
   137   155   157   ar
   138   155   156   ar
   139   202   201    1
   140   157   159   ar
   141   201   199   ar
   142   201   200   ar
   143   156   158   ar
   144   199   197   ar
   145   159   160   ar
   146     8     7    2
   147    75    73    1
   148   200   198   ar
   149     7     9   am
   150     7     6    1
   151     6     5    1
   152   197   196   ar
   153   158   160   ar
   154     5     2    1
   155    73    72    1
   156    73    74    1
   157   198   196   ar
   158   196   195    1
   159    72    69    1
   160    70    71    2
   161    70    69    1
   162    28    26   ar
   163   195   192    1
   164    69    68    1
   165    20    18    1
   166     2     1    1
   167     2     3    1
   168    40    39    1
   169    17    18    2
   170    17    16    1
   171    37    39   ar
   172    37    35   ar
   173    26    27   ar
   174    26    25    1
   175    18    19    1
   176    39    38   ar
   177    16    15    1
   178     3     4    2
   179    35    34   ar
   180   194   193    2
   181   192   193    1
   182   192   191    1
   183    25    22    1
   184    38    36   ar
   185    15    14    1
   186    34    36   ar
   187    34    33    1
   188    14    11    1
   189    30    29    1
   190    30    33    1
   191    30    31    1
   192    32    31    2
   193    22    21    1
   194    22    23    1
   195    21    12   am
   196    11    12    1
   197    11    10    1
   198    12    13    2
   199    23    24    2
