@<TRIPOS>MOLECULE
tmp/5yf1B01.pdb
 107 104 0 0 0
SMALL
GASTEIGER

@<TRIPOS>ATOM
      1  N        -48.2810   25.1630   -7.8190 N.3   102  SER102     -0.1217
      2  CA       -48.3430   25.0220   -6.3630 C.3   102  SER102      0.1889
      3  C        -48.2520   23.5650   -5.9540 C.2   102  SER102      0.2288
      4  O        -47.6110   23.2360   -4.9510 O.2   102  SER102     -0.2866
      5  CB       -49.6310   25.6280   -5.8030 C.3   102  SER102      0.2089
      6  OG       -49.6070   27.0330   -5.9340 O.3   102  SER102     -0.2183
      7  N        -52.9220   25.0720    8.3840 N.3   255  PHE255     -0.1241
      8  CA       -53.0680   25.9440    7.2150 C.3   255  PHE255      0.1605
      9  C        -54.3650   25.6290    6.4700 C.2   255  PHE255      0.2264
     10  O        -54.3870   25.4390    5.2470 O.2   255  PHE255     -0.2867
     11  CB       -51.8570   25.8190    6.2810 C.3   255  PHE255      0.0534
     12  CG       -50.6470   26.6010    6.7320 C.ar  255  PHE255     -0.0203
     13  CD1      -49.8990   26.1900    7.8430 C.ar  255  PHE255     -0.0042
     14  CD2      -50.2550   27.7520    6.0460 C.ar  255  PHE255     -0.0042
     15  CE1      -48.7910   26.9070    8.2580 C.ar  255  PHE255     -0.0003
     16  CE2      -49.1440   28.4830    6.4580 C.ar  255  PHE255     -0.0003
     17  CZ       -48.4060   28.0630    7.5620 C.ar  255  PHE255     -0.0000
     18  N        -58.5310   28.9640    6.9310 N.3   258  ASP258     -0.1225
     19  CA       -58.6730   30.1230    6.0610 C.3   258  ASP258      0.1805
     20  C        -58.9710   29.7370    4.6190 C.2   258  ASP258      0.2598
     21  O        -59.0740   30.6280    3.7710 O.2   258  ASP258     -0.2718
     22  CB       -57.4250   31.0250    6.1320 C.3   258  ASP258      0.1424
     23  CG       -56.1120   30.2560    6.0200 C.2   258  ASP258      0.3668
     24  OD1      -56.1270   29.0040    6.0220 O.co2 258  ASP258     -0.2456
     25  OD2      -55.0500   30.9140    5.9470 O.co2 258  ASP258     -0.2456
     26  N        -59.1310   28.4450    4.3150 N.am  259  THR259     -0.1953
     27  CA       -59.6780   28.0780    3.0150 C.3   259  THR259      0.1897
     28  C        -61.2050   28.1630    2.9630 C.2   259  THR259      0.2313
     29  O        -61.7880   27.9570    1.8980 O.2   259  THR259     -0.2863
     30  CB       -59.2490   26.6660    2.6320 C.3   259  THR259      0.1794
     31  OG1      -59.8330   25.7350    3.5550 O.3   259  THR259     -0.2208
     32  CG2      -57.7320   26.5340    2.6600 C.3   259  THR259      0.0378
     33  N        -52.1510   30.6530    9.5250 N.3   285  PRO285     -0.2116
     34  CA       -52.4600   32.0860    9.4530 C.3   285  PRO285      0.1372
     35  C        -53.9200   32.2880    9.0980 C.2   285  PRO285      0.2244
     36  O        -54.7230   31.3690    9.2680 O.2   285  PRO285     -0.2868
     37  CB       -51.5440   32.5720    8.3210 C.3   285  PRO285      0.0268
     38  CG       -51.6480   31.4180    7.3330 C.3   285  PRO285      0.0207
     39  CD       -51.7010   30.1390    8.2170 C.3   285  PRO285      0.0892
     40  N        -55.1340   33.6570    5.8120 N.3   287  LEU287     -0.1245
     41  CA       -55.0900   34.0850    4.4190 C.3   287  LEU287      0.1561
     42  C        -56.3490   33.5520    3.7490 C.2   287  LEU287      0.2260
     43  O        -56.3910   32.4140    3.2870 O.2   287  LEU287     -0.2867
     44  CB       -53.8240   33.5730    3.7400 C.3   287  LEU287      0.0270
     45  CG       -53.7710   33.9550    2.2640 C.3   287  LEU287      0.0019
     46  CD1      -53.7960   35.4850    2.1270 C.3   287  LEU287      0.0001
     47  CD2      -52.5460   33.3560    1.5770 C.3   287  LEU287      0.0001
     48  N        -58.8500   32.4130    1.3290 N.3   289  HIS289     -0.1241
     49  CA       -58.5820   32.0300   -0.0520 C.3   289  HIS289      0.1621
     50  C        -59.5730   32.6280   -1.0350 C.2   289  HIS289      0.2264
     51  O        -59.2420   32.7480   -2.2170 O.2   289  HIS289     -0.2867
     52  CB       -58.5610   30.5070   -0.1820 C.3   289  HIS289      0.0745
     53  CG       -57.2900   29.8740    0.3200 C.ar  289  HIS289      0.0817
     54  ND1      -56.6470   30.2940    1.4680 N.ar  289  HIS289     -0.2268
     55  CD2      -56.5430   28.8540   -0.1750 C.ar  289  HIS289      0.1154
     56  CE1      -55.5580   29.5660    1.6540 C.ar  289  HIS289      0.1986
     57  NE2      -55.4760   28.6820    0.6740 N.ar  289  HIS289     -0.2212
     58  N        -44.1020   28.4870    3.9570 N.3   328  TYR328     -0.1227
     59  CA       -44.9850   27.5590    3.2710 C.3   328  TYR328      0.1736
     60  C        -44.4910   27.4010    1.8390 C.2   328  TYR328      0.2596
     61  O        -44.6120   28.3320    1.0370 O.2   328  TYR328     -0.2718
     62  CB       -46.4080   28.0670    3.3180 C.3   328  TYR328      0.0548
     63  CG       -47.4090   27.0410    2.8870 C.ar  328  TYR328     -0.0200
     64  CD1      -47.7430   26.9020    1.5420 C.ar  328  TYR328     -0.0009
     65  CD2      -48.0350   26.2210    3.8220 C.ar  328  TYR328     -0.0009
     66  CE1      -48.6710   25.9850    1.1370 C.ar  328  TYR328      0.0417
     67  CE2      -48.9610   25.2750    3.4240 C.ar  328  TYR328      0.0417
     68  CZ       -49.2780   25.1670    2.0840 C.ar  328  TYR328      0.1957
     69  OH       -50.2000   24.2420    1.6760 O.3   328  TYR328     -0.2866
     70  N        -43.9620   26.2170    1.5260 N.am  329  THR329     -0.1939
     71  CA       -43.2940   25.9350    0.2510 C.3   329  THR329      0.2028
     72  C        -42.2980   27.0390   -0.1170 C.2   329  THR329      0.2642
     73  O        -42.2880   27.5490   -1.2380 O.2   329  THR329     -0.2714
     74  CB       -44.3110   25.7160   -0.8810 C.3   329  THR329      0.1808
     75  OG1      -45.1060   26.8940   -1.0770 O.3   329  THR329     -0.2208
     76  CG2      -45.2220   24.5490   -0.5620 C.3   329  THR329      0.0379
     77  N        -41.4420   27.4050    0.8410 N.am  330  VAL330     -0.1977
     78  CA       -40.4730   28.4740    0.6160 C.3   330  VAL330      0.1596
     79  C        -39.3220   27.9580   -0.2310 C.2   330  VAL330      0.2287
     80  O        -38.8770   26.8090   -0.0860 O.2   330  VAL330     -0.2864
     81  CB       -39.9500   29.0600    1.9420 C.3   330  VAL330      0.0276
     82  CG1      -38.9740   28.0590    2.6870 C.3   330  VAL330      0.0022
     83  CG2      -39.2800   30.4170    1.6710 C.3   330  VAL330      0.0022
     84  N        -41.6380   34.7950    1.7640 N.3   338  TYR338     -0.1241
     85  CA       -42.8000   35.1070    2.5780 C.3   338  TYR338      0.1605
     86  C        -42.7050   34.2800    3.8520 C.2   338  TYR338      0.2264
     87  O        -42.1340   33.1880    3.8570 O.2   338  TYR338     -0.2867
     88  CB       -44.1130   34.8180    1.8150 C.3   338  TYR338      0.0534
     89  CG       -44.3620   35.6120    0.5650 C.ar  338  TYR338     -0.0201
     90  CD1      -43.9350   36.9250    0.4210 C.ar  338  TYR338     -0.0009
     91  CD2      -45.0470   35.0260   -0.4940 C.ar  338  TYR338     -0.0009
     92  CE1      -44.1880   37.6290   -0.7430 C.ar  338  TYR338      0.0417
     93  CE2      -45.3240   35.7300   -1.6490 C.ar  338  TYR338      0.0417
     94  CZ       -44.8790   37.0320   -1.7720 C.ar  338  TYR338      0.1957
     95  OH       -45.1420   37.7150   -2.9310 O.3   338  TYR338     -0.2866
     96  N        -45.0990   33.4720    7.7470 N.3   340  TYR340     -0.1241
     97  CA       -46.3600   33.6360    8.4490 C.3   340  TYR340      0.1605
     98  C        -46.1160   33.6530    9.9410 C.2   340  TYR340      0.2264
     99  O        -45.2500   32.9320   10.4480 O.2   340  TYR340     -0.2867
    100  CB       -47.3310   32.5120    8.1290 C.3   340  TYR340      0.0534
    101  CG       -47.7710   32.4570    6.7000 C.ar  340  TYR340     -0.0201
    102  CD1      -48.8010   33.2740    6.2450 C.ar  340  TYR340     -0.0009
    103  CD2      -47.1740   31.5780    5.8020 C.ar  340  TYR340     -0.0009
    104  CE1      -49.2360   33.2130    4.9290 C.ar  340  TYR340      0.0417
    105  CE2      -47.5930   31.5190    4.4780 C.ar  340  TYR340      0.0417
    106  CZ       -48.6300   32.3350    4.0510 C.ar  340  TYR340      0.1957
    107  OH       -49.0660   32.2740    2.7500 O.3   340  TYR340     -0.2866
@<TRIPOS>BOND
     1     1     2    1
     2     2     3    1
     3     2     5    1
     4     3     4    2
     5     6     5    1
     6    95    94    1
     7    51    50    2
     8    94    93   ar
     9    94    92   ar
    10    93    91   ar
    11    73    72    2
    12    75    74    1
    13    50    49    1
    14    74    76    1
    15    74    71    1
    16    92    90   ar
    17    91    89   ar
    18    79    80    2
    19    79    78    1
    20    52    49    1
    21    52    53    1
    22    55    53   ar
    23    55    57   ar
    24    72    71    1
    25    72    77   am
    26    49    48    1
    27    71    70    1
    28    53    54   ar
    29    90    89   ar
    30    89    88    1
    31    78    77    1
    32    78    81    1
    33    57    56   ar
    34    61    60    2
    35    66    64   ar
    36    66    68   ar
    37    54    56   ar
    38    70    60   am
    39    64    63   ar
    40    47    45    1
    41    83    81    1
    42    69    68    1
    43    84    85    1
    44    88    85    1
    45    60    59    1
    46    29    28    2
    47    81    82    1
    48    68    67   ar
    49    46    45    1
    50    45    44    1
    51    85    86    1
    52    30    32    1
    53    30    27    1
    54    30    31    1
    55   107   106    1
    56    63    62    1
    57    63    65   ar
    58    28    27    1
    59    27    26    1
    60    59    62    1
    61    59    58    1
    62    43    42    2
    63    67    65   ar
    64    44    41    1
    65    42    41    1
    66    21    20    2
    67    86    87    2
    68   106   105   ar
    69   106   104   ar
    70    26    20   am
    71    41    40    1
    72   105   103   ar
    73    20    19    1
    74   104   102   ar
    75    10     9    2
    76   103   101   ar
    77    25    23   ar
    78    23    24   ar
    79    23    22    1
    80    14    16   ar
    81    14    12   ar
    82    19    22    1
    83    19    18    1
    84   102   101   ar
    85    11    12    1
    86    11     8    1
    87    16    17   ar
    88     9     8    1
    89   101   100    1
    90    12    13   ar
    91     8     7    1
    92    38    39    1
    93    38    37    1
    94    17    15   ar
    95    96    97    1
    96    13    15   ar
    97   100    97    1
    98    39    33    1
    99    37    34    1
   100    97    98    1
   101    35    36    2
   102    35    34    1
   103    34    33    1
   104    98    99    2
