@<TRIPOS>MOLECULE
tmp/5yf1B00.pdb
 230 226 0 0 0
SMALL
GASTEIGER

@<TRIPOS>ATOM
      1  N        -52.3990   26.2370  -10.1240 N.3    99  LYS99      -0.1245
      2  CA       -52.5790   25.1820   -9.1350 C.3    99  LYS99       0.1561
      3  C        -51.5910   24.0390   -9.3450 C.2    99  LYS99       0.2260
      4  O        -51.1050   23.4550   -8.3720 O.2    99  LYS99      -0.2867
      5  CB       -54.0200   24.6760   -9.1760 C.3    99  LYS99       0.0271
      6  CG       -54.9680   25.5220   -8.3460 C.3    99  LYS99       0.0035
      7  CD       -56.4260   25.2120   -8.6540 C.3    99  LYS99       0.0206
      8  CE       -57.3650   25.5120   -7.4640 C.3    99  LYS99       0.1093
      9  NZ       -57.3540   24.4670   -6.3760 N.3    99  LYS99      -0.1314
     10  N        -45.7260   21.6730   -3.2310 N.3   106  GLN106     -0.1245
     11  CA       -46.1480   20.9080   -2.0510 C.3   106  GLN106      0.1566
     12  C        -45.3150   19.6520   -1.8480 C.2   106  GLN106      0.2260
     13  O        -45.1670   19.1970   -0.7100 O.2   106  GLN106     -0.2867
     14  CB       -47.6080   20.4790   -2.1430 C.3   106  GLN106      0.0367
     15  CG       -48.5860   21.5580   -1.9650 C.3   106  GLN106      0.0905
     16  CD       -48.6460   22.0320   -0.5570 C.2   106  GLN106      0.2608
     17  OE1      -48.8070   21.2500    0.3820 O.2   106  GLN106     -0.2717
     18  NE2      -48.5120   23.3270   -0.3900 N.am  106  GLN106     -0.0878
     19  N        -42.5810   20.5650    0.5150 N.3   109  ARG109     -0.1231
     20  CA       -43.0370   20.6880    1.8970 C.3   109  ARG109      0.1694
     21  C        -43.3070   19.3300    2.5310 C.2   109  ARG109      0.2592
     22  O        -42.8770   19.0750    3.6580 O.2   109  ARG109     -0.2718
     23  CB       -44.2860   21.5620    1.9460 C.3   109  ARG109      0.0321
     24  CG       -45.0130   21.5840    3.2700 C.3   109  ARG109      0.0489
     25  CD       -46.0420   22.6550    3.1840 C.3   109  ARG109      0.2205
     26  NE       -46.9740   22.6930    4.3020 N.pl3 109  ARG109     -0.0865
     27  CZ       -46.8280   23.4660    5.3770 C.cat 109  ARG109      0.5346
     28  NH1      -45.7630   24.2540    5.5030 N.pl3 109  ARG109      0.1354
     29  NH2      -47.7530   23.4570    6.3230 N.pl3 109  ARG109      0.1354
     30  N        -43.9760   18.4260    1.8160 N.am  110  ASP110     -0.1974
     31  CA       -44.4910   17.2280    2.4680 C.3   110  ASP110      0.1709
     32  C        -43.6350   15.9800    2.3050 C.2   110  ASP110      0.2293
     33  O        -43.7210   15.0880    3.1520 O.2   110  ASP110     -0.2864
     34  CB       -45.9090   16.9280    1.9860 C.3   110  ASP110      0.1436
     35  CG       -46.9650   17.4990    2.9290 C.2   110  ASP110      0.3671
     36  OD1      -46.6100   18.3800    3.7510 O.co2 110  ASP110     -0.2456
     37  OD2      -48.1290   17.0520    2.8760 O.co2 110  ASP110     -0.2456
     38  N        -45.6800   21.0260   11.7520 N.3   123  TYR123     -0.1241
     39  CA       -46.2570   19.7330   12.1000 C.3   123  TYR123      0.1605
     40  C        -45.8450   19.2750   13.4930 C.2   123  TYR123      0.2264
     41  O        -46.6580   18.6820   14.2040 O.2   123  TYR123     -0.2867
     42  CB       -45.8630   18.6660   11.0690 C.3   123  TYR123      0.0534
     43  CG       -46.3590   18.9300    9.6640 C.ar  123  TYR123     -0.0201
     44  CD1      -47.3370   19.8840    9.4180 C.ar  123  TYR123     -0.0009
     45  CD2      -45.8520   18.2090    8.5760 C.ar  123  TYR123     -0.0009
     46  CE1      -47.7850   20.1340    8.1200 C.ar  123  TYR123      0.0417
     47  CE2      -46.3030   18.4350    7.2790 C.ar  123  TYR123      0.0417
     48  CZ       -47.2660   19.4060    7.0560 C.ar  123  TYR123      0.1957
     49  OH       -47.7300   19.6530    5.7760 O.3   123  TYR123     -0.2866
     50  N        -57.7640   14.7600   10.0140 N.3   148  VAL148     -0.1231
     51  CA       -56.9080   15.8270    9.4940 C.3   148  VAL148      0.1678
     52  C        -57.5640   16.3900    8.2360 C.2   148  VAL148      0.2434
     53  O        -57.2860   15.9150    7.1230 O.2   148  VAL148     -0.2733
     54  CB       -55.4860   15.3180    9.1950 C.3   148  VAL148      0.0265
     55  CG1      -54.6240   16.4390    8.6780 C.3   148  VAL148      0.0020
     56  CG2      -54.8430   14.7200   10.4300 C.3   148  VAL148      0.0020
     57  N        -58.4520   17.3740    8.3570 N.am  149  PRO149     -0.2718
     58  CA       -59.0780   17.9570    7.1630 C.3   149  PRO149      0.1535
     59  C        -58.0700   18.7570    6.3570 C.2   149  PRO149      0.2599
     60  O        -57.1250   19.3360    6.9020 O.2   149  PRO149     -0.2715
     61  CB       -60.1600   18.8780    7.7380 C.3   149  PRO149      0.0310
     62  CG       -60.1920   18.5980    9.2110 C.3   149  PRO149      0.0237
     63  CD       -58.8270   18.0990    9.5730 C.3   149  PRO149      0.0939
     64  N        -58.2870   18.8000    5.0460 N.am  150  GLY150     -0.1941
     65  CA       -57.3790   19.5350    4.1760 C.3   150  GLY150      0.2014
     66  C        -55.9610   19.0060    4.2850 C.2   150  GLY150      0.2639
     67  O        -55.0240   19.7670    4.5280 O.2   150  GLY150     -0.2714
     68  N        -55.7940   17.6930    4.1420 N.am  151  ALA151     -0.1963
     69  CA       -54.5090   17.0750    4.4330 C.3   151  ALA151      0.1728
     70  C        -53.4620   17.2910    3.3450 C.2   151  ALA151      0.2616
     71  O        -52.3000   16.9330    3.5630 O.2   151  ALA151     -0.2715
     72  CB       -54.6950   15.5770    4.6610 C.3   151  ALA151      0.0334
     73  N        -53.8320   17.8420    2.1890 N.am  152  GLY152     -0.1955
     74  CA       -52.8390   18.1080    1.1510 C.3   152  GLY152      0.1869
     75  C        -52.2090   16.8310    0.6210 C.2   152  GLY152      0.2309
     76  O        -52.9010   15.8890    0.2010 O.2   152  GLY152     -0.2863
     77  N        -48.6040   15.1120    7.3160 N.3   156  LEU156     -0.1245
     78  CA       -48.9890   15.2790    8.7160 C.3   156  LEU156      0.1561
     79  C        -49.8670   14.1230    9.1780 C.2   156  LEU156      0.2260
     80  O        -49.5970   13.5010   10.2160 O.2   156  LEU156     -0.2867
     81  CB       -49.7040   16.6220    8.9140 C.3   156  LEU156      0.0270
     82  CG       -50.3290   16.9020   10.2880 C.3   156  LEU156      0.0019
     83  CD1      -49.2920   16.8370   11.4330 C.3   156  LEU156      0.0001
     84  CD2      -51.0490   18.2500   10.2760 C.3   156  LEU156      0.0001
     85  N        -58.2640   14.0270    5.0380 N.3   170  ASN170     -0.1225
     86  CA       -59.3520   14.3750    4.1320 C.3   170  ASN170      0.1785
     87  C        -58.9050   15.4930    3.2080 C.2   170  ASN170      0.2597
     88  O        -58.2350   16.4360    3.6440 O.2   170  ASN170     -0.2718
     89  CB       -60.6010   14.8010    4.9010 C.3   170  ASN170      0.1169
     90  CG       -61.5410   15.6400    4.0690 C.2   170  ASN170      0.2627
     91  OD1      -61.5630   16.8600    4.1980 O.2   170  ASN170     -0.2716
     92  ND2      -62.3250   14.9920    3.2080 N.am  170  ASN170     -0.0877
     93  N        -59.2850   15.3950    1.9330 N.am  171  GLU171     -0.1965
     94  CA       -58.8730   16.3990    0.9640 C.3   171  GLU171      0.1733
     95  C        -59.9060   16.5070   -0.1530 C.2   171  GLU171      0.2616
     96  O        -60.4620   15.5020   -0.6090 O.2   171  GLU171     -0.2715
     97  CB       -57.4670   16.0700    0.4350 C.3   171  GLU171      0.0429
     98  CG       -56.9630   16.9790   -0.6520 C.3   171  GLU171      0.1163
     99  CD       -56.8230   18.4490   -0.2340 C.2   171  GLU171      0.3649
    100  OE1      -56.1220   18.7380    0.7510 O.co2 171  GLU171     -0.2457
    101  OE2      -57.3980   19.3190   -0.9290 O.co2 171  GLU171     -0.2457
    102  N        -60.1360   17.7450   -0.5840 N.am  172  TRP172     -0.1960
    103  CA       -61.1240   18.1400   -1.5820 C.3   172  TRP172      0.1771
    104  C        -60.5450   18.2450   -2.9860 C.2   172  TRP172      0.2620
    105  O        -61.2480   17.9660   -3.9600 O.2   172  TRP172     -0.2715
    106  CB       -61.7000   19.5110   -1.1960 C.3   172  TRP172      0.0590
    107  CG       -63.0790   19.8190   -1.6640 C.ar  172  TRP172      0.0006
    108  CD1      -63.9520   18.9760   -2.2880 C.ar  172  TRP172      0.0946
    109  CD2      -63.7580   21.0770   -1.5300 C.ar  172  TRP172      0.0152
    110  NE1      -65.1330   19.6370   -2.5560 N.ar  172  TRP172     -0.2442
    111  CE2      -65.0360   20.9260   -2.0970 C.ar  172  TRP172      0.0810
    112  CE3      -63.4040   22.3180   -0.9870 C.ar  172  TRP172      0.0012
    113  CZ2      -65.9630   21.9690   -2.1360 C.ar  172  TRP172      0.0191
    114  CZ3      -64.3280   23.3510   -1.0250 C.ar  172  TRP172      0.0001
    115  CH2      -65.5870   23.1700   -1.5940 C.ar  172  TRP172      0.0015
    116  N        -59.2850   18.6570   -3.1050 N.am  173  SER173     -0.1950
    117  CA       -58.7060   19.0190   -4.3900 C.3   173  SER173      0.1924
    118  C        -58.1760   17.7990   -5.1300 C.2   173  SER173      0.2314
    119  O        -57.4000   17.0090   -4.5790 O.2   173  SER173     -0.2863
    120  CB       -57.5810   20.0310   -4.1790 C.3   173  SER173      0.2116
    121  OG       -56.7210   20.0670   -5.3050 O.3   173  SER173     -0.2180
    122  N        -54.3800   17.6060   -5.1900 N.3   176  MET176     -0.1245
    123  CA       -53.7840   16.9710   -4.0220 C.3   176  MET176      0.1570
    124  C        -54.0840   15.4800   -3.9830 C.2   176  MET176      0.2261
    125  O        -53.2090   14.6810   -3.6390 O.2   176  MET176     -0.2867
    126  CB       -54.2890   17.6440   -2.7470 C.3   176  MET176      0.0387
    127  CG       -53.8830   19.0910   -2.5940 C.3   176  MET176      0.0595
    128  SD       -52.0910   19.3230   -2.5440 S.3   176  MET176     -0.1393
    129  CE       -52.0130   21.0850   -2.2080 C.3   176  MET176      0.0692
    130  N        -63.1290   14.5630   -0.7860 N.3   236  GLY236     -0.1210
    131  CA       -64.3490   15.3400   -0.8150 C.3   236  GLY236      0.1956
    132  C        -64.3900   16.4690    0.1890 C.2   236  GLY236      0.2612
    133  O        -63.4670   16.6530    0.9870 O.2   236  GLY236     -0.2717
    134  N        -65.4590   17.2470    0.1190 N.am  237  ASP237     -0.1959
    135  CA       -65.6320   18.3930    0.9890 C.3   237  ASP237      0.1840
    136  C        -65.7640   17.9250    2.4350 C.2   237  ASP237      0.2622
    137  O        -66.6640   17.1480    2.7750 O.2   237  ASP237     -0.2715
    138  CB       -66.8590   19.1810    0.5400 C.3   237  ASP237      0.1450
    139  CG       -67.1030   20.4220    1.3670 C.2   237  ASP237      0.3671
    140  OD1      -66.3670   20.6810    2.3420 O.co2 237  ASP237     -0.2456
    141  OD2      -68.0550   21.1500    1.0300 O.co2 237  ASP237     -0.2456
    142  N        -64.8480   18.4040    3.2740 N.am  238  PHE238     -0.1960
    143  CA       -64.8660   18.1370    4.7110 C.3   238  PHE238      0.1771
    144  C        -66.2600   18.3320    5.3160 C.2   238  PHE238      0.2619
    145  O        -66.6960   17.5570    6.1700 O.2   238  PHE238     -0.2715
    146  CB       -63.8230   19.0620    5.3460 C.3   238  PHE238      0.0574
    147  CG       -64.0110   19.3320    6.7870 C.ar  238  PHE238     -0.0200
    148  CD1      -63.8770   18.3230    7.7220 C.ar  238  PHE238     -0.0042
    149  CD2      -64.2350   20.6240    7.2240 C.ar  238  PHE238     -0.0042
    150  CE1      -64.0130   18.5840    9.0810 C.ar  238  PHE238     -0.0003
    151  CE2      -64.3800   20.8990    8.5800 C.ar  238  PHE238     -0.0003
    152  CZ       -64.2670   19.8770    9.5090 C.ar  238  PHE238     -0.0000
    153  N        -66.9970   19.3330    4.8510 N.am  239  GLN239     -0.1977
    154  CA       -68.2790   19.6130    5.4710 C.3   239  GLN239      0.1601
    155  C        -69.3810   18.6690    5.0250 C.2   239  GLN239      0.2287
    156  O        -70.3570   18.4890    5.7600 O.2   239  GLN239     -0.2864
    157  CB       -68.6600   21.0500    5.1930 C.3   239  GLN239      0.0394
    158  CG       -67.8270   21.9840    6.0180 C.3   239  GLN239      0.0908
    159  CD       -68.5060   23.2930    6.1840 C.2   239  GLN239      0.2608
    160  OE1      -69.1240   23.5450    7.2150 O.2   239  GLN239     -0.2717
    161  NE2      -68.4280   24.1390    5.1600 N.am  239  GLN239     -0.0878
    162  N        -54.1970   22.3160    9.8870 N.3   254  CYS254     -0.1221
    163  CA       -52.9240   22.9680    9.6120 C.3   254  CYS254      0.1808
    164  C        -53.0530   23.7440    8.3090 C.2   254  CYS254      0.2601
    165  O        -53.2870   23.1440    7.2540 O.2   254  CYS254     -0.2717
    166  CB       -51.8150   21.9260    9.5220 C.3   254  CYS254      0.0970
    167  SG       -50.1700   22.5960    9.3850 S.3   254  CYS254     -0.0800
    168  N        -52.9220   25.0720    8.3840 N.am  255  PHE255     -0.1962
    169  CA       -53.0680   25.9440    7.2150 C.3   255  PHE255      0.1771
    170  C        -54.3650   25.6290    6.4700 C.2   255  PHE255      0.2619
    171  O        -54.3870   25.4390    5.2470 O.2   255  PHE255     -0.2715
    172  CB       -51.8570   25.8190    6.2810 C.3   255  PHE255      0.0574
    173  CG       -50.6470   26.6010    6.7320 C.ar  255  PHE255     -0.0200
    174  CD1      -49.8990   26.1900    7.8430 C.ar  255  PHE255     -0.0042
    175  CD2      -50.2550   27.7520    6.0460 C.ar  255  PHE255     -0.0042
    176  CE1      -48.7910   26.9070    8.2580 C.ar  255  PHE255     -0.0003
    177  CE2      -49.1440   28.4830    6.4580 C.ar  255  PHE255     -0.0003
    178  CZ       -48.4060   28.0630    7.5620 C.ar  255  PHE255     -0.0000
    179  N        -55.4650   25.5660    7.2210 N.am  256  PHE256     -0.1974
    180  CA       -56.6930   25.0340    6.6410 C.3   256  PHE256      0.1639
    181  C        -57.9140   25.9320    6.8130 C.2   256  PHE256      0.2290
    182  O        -58.6820   26.1130    5.8600 O.2   256  PHE256     -0.2864
    183  CB       -57.0130   23.6570    7.2380 C.3   256  PHE256      0.0560
    184  CG       -58.3660   23.1320    6.8420 C.ar  256  PHE256     -0.0200
    185  CD1      -58.5990   22.6900    5.5420 C.ar  256  PHE256     -0.0042
    186  CD2      -59.4180   23.1050    7.7610 C.ar  256  PHE256     -0.0042
    187  CE1      -59.8600   22.2250    5.1710 C.ar  256  PHE256     -0.0003
    188  CE2      -60.6630   22.6350    7.4040 C.ar  256  PHE256     -0.0003
    189  CZ       -60.8920   22.1990    6.1130 C.ar  256  PHE256     -0.0000
    190  N        -59.1310   28.4450    4.3150 N.3   259  THR259     -0.1218
    191  CA       -59.6780   28.0780    3.0150 C.3   259  THR259      0.1862
    192  C        -61.2050   28.1630    2.9630 C.2   259  THR259      0.2287
    193  O        -61.7880   27.9570    1.8980 O.2   259  THR259     -0.2866
    194  CB       -59.2490   26.6660    2.6320 C.3   259  THR259      0.1770
    195  OG1      -59.8330   25.7350    3.5550 O.3   259  THR259     -0.2211
    196  CG2      -57.7320   26.5340    2.6600 C.3   259  THR259      0.0375
    197  N        -66.9440   26.0180    9.2240 N.3   266  TYR266     -0.1241
    198  CA       -65.9280   25.0550    9.6450 C.3   266  TYR266      0.1605
    199  C        -65.9840   24.8400   11.1440 C.2   266  TYR266      0.2264
    200  O        -65.9650   23.6980   11.6190 O.2   266  TYR266     -0.2867
    201  CB       -64.5280   25.5250    9.2740 C.3   266  TYR266      0.0534
    202  CG       -64.1050   25.2890    7.8660 C.ar  266  TYR266     -0.0201
    203  CD1      -65.0240   24.9320    6.8930 C.ar  266  TYR266     -0.0009
    204  CD2      -62.7630   25.4210    7.5030 C.ar  266  TYR266     -0.0009
    205  CE1      -64.6250   24.7240    5.5790 C.ar  266  TYR266      0.0417
    206  CE2      -62.3540   25.2110    6.1990 C.ar  266  TYR266      0.0417
    207  CZ       -63.2870   24.8570    5.2420 C.ar  266  TYR266      0.1957
    208  OH       -62.8830   24.6470    3.9510 O.3   266  TYR266     -0.2866
    209  N        -58.8500   32.4130    1.3290 N.3   289  HIS289     -0.1241
    210  CA       -58.5820   32.0300   -0.0520 C.3   289  HIS289      0.1621
    211  C        -59.5730   32.6280   -1.0350 C.2   289  HIS289      0.2264
    212  O        -59.2420   32.7480   -2.2170 O.2   289  HIS289     -0.2867
    213  CB       -58.5610   30.5070   -0.1820 C.3   289  HIS289      0.0745
    214  CG       -57.2900   29.8740    0.3200 C.ar  289  HIS289      0.0817
    215  ND1      -56.6470   30.2940    1.4680 N.ar  289  HIS289     -0.2268
    216  CD2      -56.5430   28.8540   -0.1750 C.ar  289  HIS289      0.1154
    217  CE1      -55.5580   29.5660    1.6540 C.ar  289  HIS289      0.1986
    218  NE2      -55.4760   28.6820    0.6740 N.ar  289  HIS289     -0.2212
    219  N        -44.1020   28.4870    3.9570 N.3   328  TYR328     -0.1241
    220  CA       -44.9850   27.5590    3.2710 C.3   328  TYR328      0.1605
    221  C        -44.4910   27.4010    1.8390 C.2   328  TYR328      0.2264
    222  O        -44.6120   28.3320    1.0370 O.2   328  TYR328     -0.2867
    223  CB       -46.4080   28.0670    3.3180 C.3   328  TYR328      0.0534
    224  CG       -47.4090   27.0410    2.8870 C.ar  328  TYR328     -0.0201
    225  CD1      -47.7430   26.9020    1.5420 C.ar  328  TYR328     -0.0009
    226  CD2      -48.0350   26.2210    3.8220 C.ar  328  TYR328     -0.0009
    227  CE1      -48.6710   25.9850    1.1370 C.ar  328  TYR328      0.0417
    228  CE2      -48.9610   25.2750    3.4240 C.ar  328  TYR328      0.0417
    229  CZ       -49.2780   25.1670    2.0840 C.ar  328  TYR328      0.1957
    230  OH       -50.2000   24.2420    1.6760 O.3   328  TYR328     -0.2866
@<TRIPOS>BOND
     1     1     2    1
     2     3     2    1
     3     3     4    2
     4     5     2    1
     5     5     6    1
     6     7     6    1
     7     7     8    1
     8     8     9    1
     9   121   120    1
    10   122   123    1
    11   118   119    2
    12   118   117    1
    13   117   120    1
    14   117   116    1
    15   123   124    1
    16   123   126    1
    17   124   125    2
    18   105   104    2
    19    10    11    1
    20   116   104   am
    21   104   103    1
    22   126   127    1
    23   127   128    1
    24   110   108   ar
    25   110   111   ar
    26   128   129    1
    27   108   107   ar
    28   212   211    2
    29    14    11    1
    30    14    15    1
    31   113   111   ar
    32   113   115   ar
    33   111   109   ar
    34    11    12    1
    35    15    16    1
    36    12    13    2
    37   107   109   ar
    38   107   106    1
    39   115   114   ar
    40   103   106    1
    41   103   102    1
    42   109   112   ar
    43   211   210    1
    44   114   112   ar
    45   101    99   ar
    46   131   130    1
    47   131   132    1
    48    98    99    1
    49    98    97    1
    50    96    95    2
    51   102    95   am
    52    16    18   am
    53    16    17    2
    54    99   100   ar
    55   213   210    1
    56   213   214    1
    57   216   214   ar
    58   216   218   ar
    59    95    94    1
    60   210   209    1
    61   134   132   am
    62   134   135    1
    63   132   133    2
    64    76    75    2
    65   214   215   ar
    66    97    94    1
    67    19    20    1
    68   138   135    1
    69   138   139    1
    70    75    74    1
    71   218   217   ar
    72    94    93    1
    73   135   136    1
    74   141   139   ar
    75   222   221    2
    76   227   225   ar
    77   227   229   ar
    78    74    73    1
    79   139   140   ar
    80   215   217   ar
    81   225   224   ar
    82   230   229    1
    83    30    31    1
    84    30    21   am
    85   221   220    1
    86    20    23    1
    87    20    21    1
    88   193   192    2
    89    93    87   am
    90    23    24    1
    91    34    31    1
    92    34    35    1
    93   229   228   ar
    94    73    70   am
    95    32    31    1
    96    32    33    2
    97   136   137    2
    98   136   142   am
    99    21    22    2
   100   194   196    1
   101   194   191    1
   102   194   195    1
   103    37    35   ar
   104   224   223    1
   105   224   226   ar
   106    35    36   ar
   107   192   191    1
   108   191   190    1
   109    25    24    1
   110    25    26    1
   111    87    88    2
   112    87    86    1
   113    92    90   am
   114   220   223    1
   115   220   219    1
   116   142   143    1
   117    70    71    2
   118    70    69    1
   119   228   226   ar
   120   208   207    1
   121    90    91    2
   122    90    89    1
   123    86    89    1
   124    86    85    1
   125    68    66   am
   126    68    69    1
   127    65    66    1
   128    65    64    1
   129    66    67    2
   130    26    27    2
   131    69    72    1
   132   143   144    1
   133   143   146    1
   134   153   144   am
   135   153   154    1
   136   155   154    1
   137   155   156    2
   138    64    59   am
   139   161   159   am
   140   187   185   ar
   141   187   189   ar
   142   157   154    1
   143   157   158    1
   144   207   205   ar
   145   207   206   ar
   146   171   170    2
   147   144   145    2
   148   146   147    1
   149    27    28    1
   150    27    29    1
   151   185   184   ar
   152   205   203   ar
   153    49    48    1
   154   182   181    2
   155   158   159    1
   156   175   177   ar
   157   175   173   ar
   158   189   188   ar
   159   159   160    2
   160   206   204   ar
   161   172   173    1
   162   172   169    1
   163    59    60    2
   164    59    58    1
   165   177   178   ar
   166   170   169    1
   167   170   179   am
   168   180   181    1
   169   180   179    1
   170   180   183    1
   171   173   174   ar
   172   147   149   ar
   173   147   148   ar
   174   184   183    1
   175   184   186   ar
   176   203   202   ar
   177    48    47   ar
   178    48    46   ar
   179    53    52    2
   180    58    61    1
   181    58    57    1
   182   169   168    1
   183   149   151   ar
   184   165   164    2
   185    47    45   ar
   186    77    78    1
   187   188   186   ar
   188   204   202   ar
   189   178   176   ar
   190   148   150   ar
   191    61    62    1
   192   174   176   ar
   193   202   201    1
   194    46    44   ar
   195    52    57   am
   196    52    51    1
   197   164   168   am
   198   164   163    1
   199    57    63    1
   200    45    43   ar
   201   151   152   ar
   202    55    54    1
   203    78    81    1
   204    78    79    1
   205    81    82    1
   206   150   152   ar
   207    79    80    2
   208    54    51    1
   209    54    56    1
   210    62    63    1
   211   197   198    1
   212   201   198    1
   213   167   166    1
   214    44    43   ar
   215    51    50    1
   216   166   163    1
   217   163   162    1
   218   198   199    1
   219    43    42    1
   220    84    82    1
   221    82    83    1
   222    42    39    1
   223   199   200    2
   224    38    39    1
   225    39    40    1
   226    40    41    2
