@<TRIPOS>MOLECULE
tmp/5yfmA00.pdb
 193 185 0 0 0
SMALL
GASTEIGER

@<TRIPOS>ATOM
      1  N        -47.0790   29.4770   -8.7160 N.3    20  ILE20      -0.1245
      2  CA       -47.9270   30.5750   -8.2200 C.3    20  ILE20       0.1561
      3  C        -47.3270   31.9320   -8.6640 C.2    20  ILE20       0.2260
      4  O        -48.0520   32.8520   -9.0310 O.2    20  ILE20      -0.2867
      5  CB       -48.1630   30.4740   -6.6850 C.3    20  ILE20       0.0252
      6  CG1      -49.1540   29.3470   -6.3990 C.3    20  ILE20       0.0019
      7  CG2      -48.7200   31.7530   -6.1020 C.3    20  ILE20       0.0019
      8  CD1      -49.2350   28.9620   -4.9260 C.3    20  ILE20       0.0001
      9  N        -38.9110   38.3820   -4.4930 N.3    70  LYS70      -0.1245
     10  CA       -38.3470   37.0410   -4.5570 C.3    70  LYS70       0.1561
     11  C        -39.3800   35.9900   -4.1990 C.2    70  LYS70       0.2260
     12  O        -40.1750   36.1380   -3.2890 O.2    70  LYS70      -0.2867
     13  CB       -37.1420   36.9180   -3.6110 C.3    70  LYS70       0.0271
     14  CG       -36.4250   35.5610   -3.5970 C.3    70  LYS70       0.0035
     15  CD       -35.5120   35.4120   -2.3740 C.3    70  LYS70       0.0206
     16  CE       -35.0130   33.9760   -2.2280 C.3    70  LYS70       0.1093
     17  NZ       -36.1420   33.0520   -1.8520 N.3    70  LYS70      -0.1314
     18  N        -40.1660   31.9630   -3.1700 N.3    72  ALA72      -0.1231
     19  CA       -39.5750   31.0120   -2.2710 C.3    72  ALA72       0.1694
     20  C        -38.5750   30.0600   -2.9350 C.2    72  ALA72       0.2593
     21  O        -38.8290   29.5130   -3.9710 O.2    72  ALA72      -0.2718
     22  CB       -40.6470   30.2610   -1.5350 C.3    72  ALA72       0.0304
     23  N        -37.4700   29.8010   -2.2490 N.am   73  THR73      -0.1939
     24  CA       -36.3780   29.0090   -2.8210 C.3    73  THR73       0.2028
     25  C        -36.0340   27.8200   -1.9390 C.2    73  THR73       0.2642
     26  O        -36.2080   27.8840   -0.7510 O.2    73  THR73      -0.2714
     27  CB       -35.1090   29.8700   -2.9870 C.3    73  THR73       0.1808
     28  OG1      -34.9110   30.6460   -1.8090 O.3    73  THR73      -0.2208
     29  CG2      -35.2300   30.8010   -4.1510 C.3    73  THR73       0.0379
     30  N        -35.5640   26.7340   -2.5310 N.am   74  ILE74      -0.1963
     31  CA       -35.0630   25.5950   -1.7860 C.3    74  ILE74       0.1727
     32  C        -33.7260   25.9100   -1.1010 C.2    74  ILE74       0.2616
     33  O        -32.7880   26.3640   -1.7400 O.2    74  ILE74      -0.2715
     34  CB       -34.8740   24.3640   -2.6990 C.3    74  ILE74       0.0290
     35  CG1      -36.2430   23.7520   -3.0480 C.3    74  ILE74       0.0022
     36  CG2      -34.0200   23.2910   -2.0230 C.3    74  ILE74       0.0023
     37  CD1      -36.2530   22.9240   -4.3070 C.3    74  ILE74       0.0001
     38  N        -33.6510   25.6260    0.1990 N.am   75  THR75      -0.1951
     39  CA       -32.4010   25.6180    0.9460 C.3    75  THR75       0.1897
     40  C        -31.8910   24.1520    0.9250 C.2    75  THR75       0.2313
     41  O        -32.5460   23.2730    1.4430 O.2    75  THR75      -0.2863
     42  CB       -32.5950   26.1760    2.3900 C.3    75  THR75       0.1794
     43  OG1      -32.8350   27.5880    2.3120 O.3    75  THR75      -0.2208
     44  CG2      -31.3640   25.9460    3.2630 C.3    75  THR75       0.0378
     45  N        -31.8340   16.9400   -0.3220 N.3    80  ARG80      -0.1245
     46  CA       -31.9230   17.7590   -1.5760 C.3    80  ARG80       0.1563
     47  C        -30.7500   17.6030   -2.5500 C.2    80  ARG80       0.2260
     48  O        -30.9270   17.6740   -3.7520 O.2    80  ARG80      -0.2867
     49  CB       -32.1510   19.2530   -1.2650 C.3    80  ARG80       0.0307
     50  CG       -33.5700   19.7680   -1.5290 C.3    80  ARG80       0.0489
     51  CD       -34.6690   19.0960   -0.7090 C.3    80  ARG80       0.2205
     52  NE       -35.8350   19.9680   -0.4760 N.pl3  80  ARG80      -0.0865
     53  CZ       -36.8340   20.2290   -1.3360 C.cat  80  ARG80       0.5346
     54  NH1      -36.8670   19.7280   -2.5750 N.pl3  80  ARG80       0.1354
     55  NH2      -37.8180   21.0430   -0.9440 N.pl3  80  ARG80       0.1354
     56  N        -31.5020   33.3010    0.8710 N.3    94  ASN94      -0.1240
     57  CA       -31.9100   34.3660    1.7920 C.3    94  ASN94       0.1653
     58  C        -30.7270   34.9020    2.5480 C.2    94  ASN94       0.2266
     59  O        -30.4680   36.0930    2.5190 O.2    94  ASN94      -0.2867
     60  CB       -32.9410   33.8430    2.7810 C.3    94  ASN94       0.1155
     61  CG       -34.2680   33.6100    2.1260 C.2    94  ASN94       0.2627
     62  OD1      -35.0280   34.5420    1.9510 O.2    94  ASN94      -0.2716
     63  ND2      -34.5410   32.3730    1.7320 N.am   94  ASN94      -0.0877
     64  N        -52.6030   31.0070    9.2400 N.3   285  SER285     -0.1202
     65  CA       -51.7980   30.5110    8.1370 C.3   285  SER285      0.2020
     66  C        -50.5660   31.3520    7.7530 C.2   285  SER285      0.2619
     67  O        -50.5910   32.6090    7.7600 O.2   285  SER285     -0.2717
     68  CB       -52.7010   30.3400    6.8980 C.3   285  SER285      0.2103
     69  OG       -52.0000   29.7350    5.8230 O.3   285  SER285     -0.2182
     70  N        -49.5350   30.6650    7.3090 N.am  286  LEU286     -0.1965
     71  CA       -48.3090   31.2380    6.8170 C.3   286  LEU286      0.1728
     72  C        -48.4850   31.8190    5.4150 C.2   286  LEU286      0.2616
     73  O        -47.6550   32.4990    4.9030 O.2   286  LEU286     -0.2715
     74  CB       -47.1910   30.2100    6.8030 C.3   286  LEU286      0.0311
     75  CG       -46.2460   30.3640    7.9860 C.3   286  LEU286      0.0022
     76  CD1      -45.4900   29.0980    8.3060 C.3   286  LEU286      0.0001
     77  CD2      -45.3500   31.5690    7.9180 C.3   286  LEU286      0.0001
     78  N        -49.6030   31.5260    4.8120 N.am  287  GLY287     -0.1955
     79  CA       -49.9150   32.0580    3.5380 C.3   287  GLY287      0.1869
     80  C        -50.3730   33.4720    3.6770 C.2   287  GLY287      0.2309
     81  O        -50.5720   34.1050    2.7250 O.2   287  GLY287     -0.2863
     82  N        -40.5850   39.2290    0.1560 N.3   304  GLU304     -0.1231
     83  CA       -41.0110   37.8670   -0.1540 C.3   304  GLU304      0.1699
     84  C        -42.0830   37.3560    0.8110 C.2   304  GLU304      0.2592
     85  O        -42.4670   38.0280    1.7480 O.2   304  GLU304     -0.2718
     86  CB       -39.8110   36.9180   -0.2560 C.3   304  GLU304      0.0402
     87  CG       -39.0510   36.6730    1.0190 C.3   304  GLU304      0.1161
     88  CD       -37.7680   35.8770    0.7760 C.2   304  GLU304      0.3649
     89  OE1      -37.8290   34.6620    0.4420 O.co2 304  GLU304     -0.2457
     90  OE2      -36.6840   36.4900    0.8860 O.co2 304  GLU304     -0.2457
     91  N        -42.5720   36.1700    0.5340 N.am  305  ALA305     -0.1966
     92  CA       -43.4950   35.5030    1.3940 C.3   305  ALA305      0.1728
     93  C        -42.6890   34.9630    2.5490 C.2   305  ALA305      0.2616
     94  O        -41.5670   34.6350    2.4180 O.2   305  ALA305     -0.2715
     95  CB       -44.1900   34.3780    0.6800 C.3   305  ALA305      0.0334
     96  N        -43.3040   34.8970    3.6990 N.am  306  ALA306     -0.1963
     97  CA       -42.6350   34.3740    4.8390 C.3   306  ALA306      0.1728
     98  C        -42.5420   32.8640    4.7930 C.2   306  ALA306      0.2616
     99  O        -41.6500   32.3310    5.3540 O.2   306  ALA306     -0.2715
    100  CB       -43.2420   34.8620    6.1270 C.3   306  ALA306      0.0334
    101  N        -43.4250   32.1990    4.0850 N.am  307  HIS307     -0.1959
    102  CA       -43.4050   30.7660    3.9760 C.3   307  HIS307      0.1787
    103  C        -42.3720   30.2450    2.9610 C.2   307  HIS307      0.2621
    104  O        -41.6720   30.9770    2.3370 O.2   307  HIS307     -0.2715
    105  CB       -44.8170   30.2420    3.6770 C.3   307  HIS307      0.0785
    106  CG       -45.3910   30.7240    2.3840 C.ar  307  HIS307      0.0821
    107  ND1      -44.9540   30.2700    1.1790 N.ar  307  HIS307     -0.2267
    108  CD2      -46.3330   31.6340    2.1130 C.ar  307  HIS307      0.1154
    109  CE1      -45.5870   30.8820    0.2210 C.ar  307  HIS307      0.1986
    110  NE2      -46.4380   31.7110    0.7630 N.ar  307  HIS307     -0.2212
    111  N        -42.2670   28.9440    2.8580 N.am  308  GLY308     -0.1940
    112  CA       -41.3750   28.2930    1.9220 C.3   308  GLY308      0.2014
    113  C        -41.9530   27.8780    0.5720 C.2   308  GLY308      0.2640
    114  O        -42.8340   28.5150    0.0670 O.2   308  GLY308     -0.2714
    115  N        -41.4500   26.8030   -0.0120 N.am  309  THR309     -0.1936
    116  CA       -41.9290   26.3890   -1.3150 C.3   309  THR309      0.2028
    117  C        -43.1760   25.5070   -1.2740 C.2   309  THR309      0.2642
    118  O        -43.6960   25.1650   -2.3140 O.2   309  THR309     -0.2714
    119  CB       -40.8500   25.6750   -2.0810 C.3   309  THR309      0.1808
    120  OG1      -40.6090   24.3800   -1.4880 O.3   309  THR309     -0.2208
    121  CG2      -39.5860   26.5540   -2.1170 C.3   309  THR309      0.0379
    122  N        -43.6640   25.1930   -0.0990 N.am  310  VAL310     -0.1963
    123  CA       -44.8220   24.3670    0.0460 C.3   310  VAL310      0.1727
    124  C        -44.6490   23.0380   -0.7180 C.2   310  VAL310      0.2617
    125  O        -45.4320   22.6850   -1.5190 O.2   310  VAL310     -0.2715
    126  CB       -46.1680   25.1140   -0.2580 C.3   310  VAL310      0.0290
    127  CG1      -47.3080   24.5500    0.5350 C.3   310  VAL310      0.0023
    128  CG2      -46.1010   26.6170   -0.0670 C.3   310  VAL310      0.0023
    129  N        -43.5550   22.3610   -0.4460 N.am  311  THR311     -0.1937
    130  CA       -43.1960   21.0700   -1.0040 C.3   311  THR311      0.2028
    131  C        -44.2520   19.9820   -0.9320 C.2   311  THR311      0.2642
    132  O        -44.3980   19.2550   -1.8520 O.2   311  THR311     -0.2714
    133  CB       -41.9050   20.5440   -0.3720 C.3   311  THR311      0.1808
    134  OG1      -40.9230   21.5080   -0.5660 O.3   311  THR311     -0.2208
    135  CG2      -41.3990   19.3050   -1.0310 C.3   311  THR311      0.0379
    136  N        -44.9800   19.9030    0.1610 N.am  312  ARG312     -0.1963
    137  CA       -46.0110   18.9300    0.3140 C.3   312  ARG312      0.1729
    138  C        -47.0720   19.1360   -0.7340 C.2   312  ARG312      0.2616
    139  O        -47.5060   18.2120   -1.3280 O.2   312  ARG312     -0.2715
    140  CB       -46.6090   18.9340    1.7310 C.3   312  ARG312      0.0348
    141  CG       -47.5800   17.8000    1.9530 C.3   312  ARG312      0.0492
    142  CD       -48.1150   17.5430    3.3430 C.3   312  ARG312      0.2205
    143  NE       -49.2190   18.4200    3.6160 N.pl3 312  ARG312     -0.0865
    144  CZ       -50.4260   18.3230    3.1160 C.cat 312  ARG312      0.5346
    145  NH1      -50.7780   17.3410    2.3490 N.pl3 312  ARG312      0.1354
    146  NH2      -51.2990   19.2270    3.3940 N.pl3 312  ARG312      0.1354
    147  N        -47.4650   20.3760   -0.9460 N.am  313  HIS313     -0.1973
    148  CA       -48.4570   20.6970   -1.9270 C.3   313  HIS313      0.1656
    149  C        -47.9710   20.4290   -3.3250 C.2   313  HIS313      0.2291
    150  O        -48.6360   19.8320   -4.0780 O.2   313  HIS313     -0.2864
    151  CB       -48.9810   22.1070   -1.7570 C.3   313  HIS313      0.0771
    152  CG       -49.6770   22.3230   -0.4650 C.ar  313  HIS313      0.0820
    153  ND1      -50.5810   23.3230   -0.2590 N.ar  313  HIS313     -0.2267
    154  CD2      -49.5730   21.6690    0.7020 C.ar  313  HIS313      0.1154
    155  CE1      -51.0150   23.2620    0.9740 C.ar  313  HIS313      0.1986
    156  NE2      -50.4000   22.2800    1.5830 N.ar  313  HIS313     -0.2212
    157  N        -54.6180   23.3490   -3.1340 N.3   324  SER324     -0.1202
    158  CA       -55.1370   24.5920   -2.6170 C.3   324  SER324      0.2020
    159  C        -54.0420   25.3120   -1.7730 C.2   324  SER324      0.2619
    160  O        -53.8900   25.1480   -0.6040 O.2   324  SER324     -0.2717
    161  CB       -56.4900   24.4100   -1.9570 C.3   324  SER324      0.2103
    162  OG       -56.9830   25.5940   -1.5270 O.3   324  SER324     -0.2182
    163  N        -53.2640   26.1140   -2.4470 N.am  325  THR325     -0.1938
    164  CA       -52.1950   26.8100   -1.8160 C.3   325  THR325      0.2028
    165  C        -52.5370   28.2550   -1.8570 C.2   325  THR325      0.2642
    166  O        -52.8760   28.7580   -2.8730 O.2   325  THR325     -0.2714
    167  CB       -50.8830   26.5500   -2.5420 C.3   325  THR325      0.1808
    168  OG1      -50.7570   25.1650   -2.8140 O.3   325  THR325     -0.2208
    169  CG2      -49.7110   27.0150   -1.7490 C.3   325  THR325      0.0379
    170  N        -52.4540   28.8890   -0.7100 N.am  326  ASN326     -0.1971
    171  CA       -52.7350   30.2850   -0.5410 C.3   326  ASN326      0.1688
    172  C        -51.6910   31.1520   -1.2530 C.2   326  ASN326      0.2292
    173  O        -50.5710   31.0690   -0.9070 O.2   326  ASN326     -0.2864
    174  CB       -52.6950   30.5690    0.9550 C.3   326  ASN326      0.1181
    175  CG       -53.3300   31.8820    1.3420 C.2   326  ASN326      0.2629
    176  OD1      -53.3780   32.7500    0.6030 O.2   326  ASN326     -0.2716
    177  ND2      -53.7750   31.9810    2.5100 N.am  326  ASN326     -0.0877
    178  N        -56.6270   26.5110    3.5990 N.3   373  ASP373     -0.1239
    179  CA       -56.0130   26.9680    4.8620 C.3   373  ASP373      0.1674
    180  C        -56.8950   27.9940    5.5740 C.2   373  ASP373      0.2266
    181  O        -57.1820   27.8570    6.7920 O.2   373  ASP373     -0.2867
    182  CB       -54.6020   27.5090    4.6450 C.3   373  ASP373      0.1410
    183  CG       -54.5550   28.6870    3.6720 C.2   373  ASP373      0.3668
    184  OD1      -55.2880   28.7060    2.6450 O.co2 373  ASP373     -0.2456
    185  OD2      -53.7600   29.6020    3.9460 O.co2 373  ASP373     -0.2456
    186  N        -60.0020   22.6030   10.8620 N.3   381  LEU381     -0.1245
    187  CA       -59.4830   21.7190    9.8260 C.3   381  LEU381      0.1561
    188  C        -60.3980   20.4910    9.6670 C.2   381  LEU381      0.2260
    189  O        -60.8740   20.2200    8.5560 O.2   381  LEU381     -0.2867
    190  CB       -58.0330   21.2630   10.1180 C.3   381  LEU381      0.0270
    191  CG       -56.9590   21.3020    9.0240 C.3   381  LEU381      0.0019
    192  CD1      -55.6930   20.5040    9.4010 C.3   381  LEU381      0.0001
    193  CD2      -57.5260   20.8980    7.6830 C.3   381  LEU381      0.0001
@<TRIPOS>BOND
     1     4     3    2
     2     1     2    1
     3     3     2    1
     4     2     5    1
     5     5     6    1
     6     5     7    1
     7     6     8    1
     8    10     9    1
     9    10    11    1
    10    10    13    1
    11    37    35    1
    12    11    12    2
    13    29    27    1
    14   150   149    2
    15    21    20    2
    16    48    47    2
    17    13    14    1
    18    14    15    1
    19   149   148    1
    20    18    19    1
    21   157   158    1
    22    35    34    1
    23    27    24    1
    24    27    28    1
    25    20    19    1
    26    20    23   am
    27   166   165    2
    28    24    23    1
    29    24    25    1
    30   168   167    1
    31    34    36    1
    32    34    31    1
    33   158   161    1
    34   158   159    1
    35    54    53    1
    36    47    46    1
    37   167   164    1
    38   167   169    1
    39    30    25   am
    40    30    31    1
    41   163   164    1
    42   163   159   am
    43    15    16    1
    44   118   117    2
    45    19    22    1
    46    16    17    1
    47   121   119    1
    48   119   120    1
    49   119   116    1
    50   161   162    1
    51    25    26    2
    52   148   151    1
    53   148   147    1
    54   165   164    1
    55   165   170   am
    56   132   131    2
    57    31    32    1
    58   159   160    2
    59   151   152    1
    60    33    32    2
    61    46    49    1
    62    46    45    1
    63    50    49    1
    64    50    51    1
    65   125   124    2
    66    53    55    1
    67    53    52    2
    68   139   138    2
    69   116   117    1
    70   116   115    1
    71   117   122   am
    72   172   173    2
    73   172   171    1
    74    32    38   am
    75   135   133    1
    76   130   131    1
    77   130   129    1
    78   130   133    1
    79   147   138   am
    80   131   136   am
    81   138   137    1
    82   124   129   am
    83   124   123    1
    84   170   171    1
    85    51    52    1
    86   134   133    1
    87   171   174    1
    88   152   153   ar
    89   152   154   ar
    90   153   155   ar
    91   126   128    1
    92   126   123    1
    93   126   127    1
    94    86    83    1
    95    86    87    1
    96    83    82    1
    97    83    84    1
    98   122   123    1
    99   115   113   am
   100   114   113    2
   101   136   137    1
   102    38    39    1
   103   109   110   ar
   104   109   107   ar
   105   137   140    1
   106    89    88   ar
   107    91    84   am
   108    91    92    1
   109   113   112    1
   110   176   175    2
   111    95    92    1
   112   154   156   ar
   113   110   108   ar
   114    88    90   ar
   115    88    87    1
   116    84    85    2
   117    56    57    1
   118    40    39    1
   119    40    41    2
   120    39    42    1
   121   174   175    1
   122   155   156   ar
   123   107   106   ar
   124   175   177   am
   125    92    93    1
   126   140   141    1
   127    63    61   am
   128    57    58    1
   129    57    60    1
   130   112   111    1
   131    62    61    2
   132   141   142    1
   133   108   106   ar
   134    61    60    1
   135    43    42    1
   136   104   103    2
   137   145   144    1
   138   106   105    1
   139    42    44    1
   140    94    93    2
   141    59    58    2
   142    93    96   am
   143   184   183   ar
   144    81    80    2
   145   111   103   am
   146   103   102    1
   147   144   146    1
   148   144   143    2
   149   142   143    1
   150    79    80    1
   151    79    78    1
   152   178   179    1
   153   183   185   ar
   154   183   182    1
   155   105   102    1
   156    96    97    1
   157   102   101    1
   158   101    98   am
   159   182   179    1
   160    98    97    1
   161    98    99    2
   162    78    72   am
   163    97   100    1
   164   179   180    1
   165    73    72    2
   166    72    71    1
   167   180   181    2
   168    69    68    1
   169    74    71    1
   170    74    75    1
   171    71    70    1
   172    68    65    1
   173    70    66   am
   174   193   191    1
   175    66    67    2
   176    66    65    1
   177    77    75    1
   178    75    76    1
   179    65    64    1
   180   189   188    2
   181   191   192    1
   182   191   190    1
   183   188   187    1
   184   187   190    1
   185   187   186    1
