@<TRIPOS>MOLECULE
tmp/5yfnA00.pdb
 106 97 0 0 0
SMALL
GASTEIGER

@<TRIPOS>ATOM
      1  N         43.5580  -60.8760   10.5840 N.3    84  THR84      -0.1218
      2  CA        42.8000  -59.6850   10.8490 C.3    84  THR84       0.1862
      3  C         43.9190  -58.6740   10.9330 C.2    84  THR84       0.2287
      4  O         44.7170  -58.7500   11.7940 O.2    84  THR84      -0.2866
      5  CB        41.9810  -59.7980   12.1310 C.3    84  THR84       0.1770
      6  OG1       40.7530  -60.3830   11.7950 O.3    84  THR84      -0.2211
      7  CG2       41.6940  -58.4630   12.7080 C.3    84  THR84       0.0375
      8  N         37.8190  -57.7270   11.1140 N.3   101  SER101     -0.1217
      9  CA        37.8070  -59.1650   11.2400 C.3   101  SER101      0.1889
     10  C         36.7490  -59.8600   10.3840 C.2   101  SER101      0.2288
     11  O         35.6130  -59.5430   10.4180 O.2   101  SER101     -0.2866
     12  CB        37.6050  -59.5360   12.6830 C.3   101  SER101      0.2089
     13  OG        37.1580  -60.8360   12.7960 O.3   101  SER101     -0.2183
     14  N         35.8850  -62.9160   10.5200 N.3   103  ASN103     -0.1240
     15  CA        35.0960  -63.7600   11.3610 C.3   103  ASN103      0.1653
     16  C         33.9940  -62.9580   11.9520 C.2   103  ASN103      0.2266
     17  O         32.8870  -63.3800   12.0060 O.2   103  ASN103     -0.2867
     18  CB        35.9560  -64.3990   12.4180 C.3   103  ASN103      0.1155
     19  CG        37.1530  -65.0770   11.8380 C.2   103  ASN103      0.2627
     20  OD1       37.0370  -65.8620   10.9560 O.2   103  ASN103     -0.2716
     21  ND2       38.2920  -64.7770   12.3460 N.am  103  ASN103     -0.0877
     22  N         30.1550  -63.9190   11.3070 N.3   107  ARG107     -0.1245
     23  CA        29.3320  -64.2590   12.4260 C.3   107  ARG107      0.1563
     24  C         28.1790  -63.2910   12.5810 C.2   107  ARG107      0.2260
     25  O         27.1310  -63.6420   13.0210 O.2   107  ARG107     -0.2867
     26  CB        30.1750  -64.2970   13.6860 C.3   107  ARG107      0.0307
     27  CG        31.1060  -65.4710   13.8080 C.3   107  ARG107      0.0489
     28  CD        32.2260  -65.1840   14.7560 C.3   107  ARG107      0.2205
     29  NE        33.3050  -66.1360   14.7520 N.pl3 107  ARG107     -0.0865
     30  CZ        34.4650  -65.9080   15.3330 C.cat 107  ARG107      0.5346
     31  NH1       34.6780  -64.7730   15.9060 N.pl3 107  ARG107      0.1354
     32  NH2       35.4090  -66.7840   15.3090 N.pl3 107  ARG107      0.1354
     33  N         32.7950  -74.6980   20.9760 N.3   116  ARG116     -0.1245
     34  CA        34.2030  -74.9980   21.0730 C.3   116  ARG116      0.1563
     35  C         34.5290  -76.0440   22.1050 C.2   116  ARG116      0.2260
     36  O         34.0570  -76.0190   23.1720 O.2   116  ARG116     -0.2867
     37  CB        35.0030  -73.7280   21.3180 C.3   116  ARG116      0.0307
     38  CG        34.9090  -72.7650   20.1870 C.3   116  ARG116      0.0489
     39  CD        35.8350  -71.6190   20.2580 C.3   116  ARG116      0.2205
     40  NE        35.7100  -70.8500   19.0640 N.pl3 116  ARG116     -0.0865
     41  CZ        36.4520  -69.8270   18.7280 C.cat 116  ARG116      0.5346
     42  NH1       36.2450  -69.2160   17.6090 N.pl3 116  ARG116      0.1354
     43  NH2       37.3670  -69.4020   19.5160 N.pl3 116  ARG116      0.1354
     44  N         29.9080  -70.1520   22.5410 N.3   139  ARG139     -0.1245
     45  CA        30.1630  -68.7610   22.4330 C.3   139  ARG139      0.1563
     46  C         29.1420  -68.0780   21.5580 C.2   139  ARG139      0.2260
     47  O         29.0280  -68.3620   20.4290 O.2   139  ARG139     -0.2867
     48  CB        31.5650  -68.5490   21.8890 C.3   139  ARG139      0.0307
     49  CG        31.9790  -67.1410   21.5800 C.3   139  ARG139      0.0489
     50  CD        33.1960  -67.1170   20.6990 C.3   139  ARG139      0.2205
     51  NE        33.5280  -65.7810   20.2910 N.pl3 139  ARG139     -0.0865
     52  CZ        34.6140  -65.4270   19.6430 C.cat 139  ARG139      0.5346
     53  NH1       35.4950  -66.3100   19.3210 N.pl3 139  ARG139      0.1354
     54  NH2       34.8160  -64.1800   19.3450 N.pl3 139  ARG139      0.1354
     55  N         32.2160  -57.1750   19.3160 N.3   146  TYR146     -0.1241
     56  CA        32.4250  -57.4040   17.9080 C.3   146  TYR146      0.1605
     57  C         31.5750  -56.6280   16.9440 C.2   146  TYR146      0.2264
     58  O         31.6150  -56.8420   15.7870 O.2   146  TYR146     -0.2867
     59  CB        32.2840  -58.8720   17.6340 C.3   146  TYR146      0.0534
     60  CG        33.4130  -59.6310   18.1500 C.ar  146  TYR146     -0.0201
     61  CD1       33.4460  -60.0160   19.4430 C.ar  146  TYR146     -0.0009
     62  CD2       34.4810  -59.9130   17.3630 C.ar  146  TYR146     -0.0009
     63  CE1       34.4970  -60.7040   19.9290 C.ar  146  TYR146      0.0417
     64  CE2       35.5280  -60.6040   17.8380 C.ar  146  TYR146      0.0417
     65  CZ        35.5280  -60.9740   19.1250 C.ar  146  TYR146      0.1957
     66  OH        36.5510  -61.6530   19.6300 O.3   146  TYR146     -0.2866
     67  N         35.4840  -65.9900   23.4360 N.3   282  ASP282     -0.1239
     68  CA        36.7510  -65.8430   22.8050 C.3   282  ASP282      0.1674
     69  C         37.8340  -66.0190   23.8500 C.2   282  ASP282      0.2266
     70  O         38.7620  -66.7420   23.6460 O.2   282  ASP282     -0.2867
     71  CB        36.8790  -64.4800   22.1460 C.3   282  ASP282      0.1410
     72  CG        38.2480  -64.2320   21.5640 C.2   282  ASP282      0.3668
     73  OD1       38.6940  -65.0230   20.7730 O.co2 282  ASP282     -0.2456
     74  OD2       38.8770  -63.2550   21.8770 O.co2 282  ASP282     -0.2456
     75  N         40.1750  -70.2940   24.5420 N.3   286  ASP286     -0.1239
     76  CA        41.5940  -70.4140   24.4250 C.3   286  ASP286      0.1674
     77  C         42.2140  -70.9170   25.6870 C.2   286  ASP286      0.2266
     78  O         43.0630  -71.7100   25.6420 O.2   286  ASP286     -0.2867
     79  CB        42.2030  -69.0940   23.9960 C.3   286  ASP286      0.1410
     80  CG        42.1870  -68.9300   22.5490 C.2   286  ASP286      0.3668
     81  OD1       41.4220  -69.6090   21.8660 O.co2 286  ASP286     -0.2456
     82  OD2       42.9520  -68.1330   22.0790 O.co2 286  ASP286     -0.2456
     83  N         35.4110  -73.8740   11.3870 N.3   313  GLU313     -0.1245
     84  CA        36.5790  -73.0810   11.1820 C.3   313  GLU313      0.1567
     85  C         37.7980  -73.5650   11.9190 C.2   313  GLU313      0.2260
     86  O         37.7040  -74.2420   12.8720 O.2   313  GLU313     -0.2867
     87  CB        36.2680  -71.6650   11.6550 C.3   313  GLU313      0.0388
     88  CG        36.6390  -71.4240   13.1050 C.3   313  GLU313      0.1160
     89  CD        36.0150  -70.2130   13.7200 C.2   313  GLU313      0.3649
     90  OE1       36.0680  -69.1720   13.1330 O.co2 313  GLU313     -0.2457
     91  OE2       35.4780  -70.2880   14.7920 O.co2 313  GLU313     -0.2457
     92  N         40.2510  -72.1770   14.1890 N.3   315  ALA315     -0.1231
     93  CA        40.2010  -70.9390   14.9440 C.3   315  ALA315      0.1694
     94  C         41.4830  -70.3070   15.4210 C.2   315  ALA315      0.2592
     95  O         41.4910  -69.1910   15.8320 O.2   315  ALA315     -0.2718
     96  CB        39.2040  -71.0470   16.0740 C.3   315  ALA315      0.0304
     97  N         42.5590  -71.0330   15.3530 N.am  316  HIS316     -0.1976
     98  CA        43.8370  -70.5110   15.7100 C.3   316  HIS316      0.1656
     99  C         44.6310  -70.6330   14.4850 C.2   316  HIS316      0.2291
    100  O         44.6180  -71.6960   13.8530 O.2   316  HIS316     -0.2864
    101  CB        44.4360  -71.3420   16.7990 C.3   316  HIS316      0.0771
    102  CG        43.6040  -71.3220   18.0120 C.ar  316  HIS316      0.0820
    103  ND1       42.9380  -72.4230   18.4760 N.ar  316  HIS316     -0.2267
    104  CD2       43.2230  -70.2920   18.7850 C.ar  316  HIS316      0.1154
    105  CE1       42.2420  -72.0790   19.5290 C.ar  316  HIS316      0.1986
    106  NE2       42.3690  -70.7880   19.7160 N.ar  316  HIS316     -0.2212
@<TRIPOS>BOND
     1    10    11    2
     2    10     9    1
     3    14    15    1
     4     1     2    1
     5     2     3    1
     6     2     5    1
     7     3     4    2
     8    20    19    2
     9     8     9    1
    10    84    83    1
    11    84    87    1
    12    84    85    1
    13     9    12    1
    14    22    23    1
    15    15    16    1
    16    15    18    1
    17    87    88    1
    18     6     5    1
    19    19    21   am
    20    19    18    1
    21    85    86    2
    22    16    17    2
    23     5     7    1
    24    23    24    1
    25    23    26    1
    26    24    25    2
    27    12    13    1
    28    88    89    1
    29    90    89   ar
    30    26    27    1
    31    89    91   ar
    32    27    28    1
    33   100    99    2
    34    92    93    1
    35    99    98    1
    36    29    28    1
    37    29    30    2
    38    93    94    1
    39    93    96    1
    40    32    30    1
    41    30    31    1
    42    97    94   am
    43    97    98    1
    44    94    95    2
    45    98   101    1
    46    58    57    2
    47   101   102    1
    48    57    56    1
    49    62    64   ar
    50    62    60   ar
    51    42    41    1
    52    59    56    1
    53    59    60    1
    54    64    65   ar
    55    56    55    1
    56   102   103   ar
    57   102   104   ar
    58    60    61   ar
    59   103   105   ar
    60    41    40    2
    61    41    43    1
    62   104   106   ar
    63    40    39    1
    64    65    66    1
    65    65    63   ar
    66    53    52    1
    67    54    52    1
    68    61    63   ar
    69   105   106   ar
    70    52    51    2
    71    38    39    1
    72    38    37    1
    73    51    50    1
    74    47    46    2
    75    50    49    1
    76    73    72   ar
    77    33    34    1
    78    34    37    1
    79    34    35    1
    80    46    45    1
    81    72    74   ar
    82    72    71    1
    83    49    48    1
    84    81    80   ar
    85    48    45    1
    86    82    80   ar
    87    35    36    2
    88    71    68    1
    89    45    44    1
    90    80    79    1
    91    68    67    1
    92    68    69    1
    93    70    69    2
    94    79    76    1
    95    76    75    1
    96    76    77    1
    97    78    77    2
