@<TRIPOS>MOLECULE
tmp/5yfyA01.pdb
 129 122 0 0 0
SMALL
GASTEIGER

@<TRIPOS>ATOM
      1  N         35.0310   40.0590   97.6360 N.3   124  LEU124     -0.1245
      2  CA        34.2010   38.8490   97.5900 C.3   124  LEU124      0.1561
      3  C         34.0720   38.1970   98.9640 C.2   124  LEU124      0.2260
      4  O         32.9580   37.8900   99.4110 O.2   124  LEU124     -0.2867
      5  CB        34.7920   37.8480   96.5870 C.3   124  LEU124      0.0270
      6  CG        34.0830   36.5150   96.2980 C.3   124  LEU124      0.0019
      7  CD1       32.9370   36.6720   95.3260 C.3   124  LEU124      0.0001
      8  CD2       35.0760   35.5260   95.7210 C.3   124  LEU124      0.0001
      9  N         31.6100   39.7960  101.2410 N.3   127  GLY127     -0.1210
     10  CA        30.2240   39.8360  100.7690 C.3   127  GLY127      0.1956
     11  C         29.9710   40.5040   99.4300 C.2   127  GLY127      0.2612
     12  O         28.8280   40.5820   99.0100 O.2   127  GLY127     -0.2717
     13  N         31.0120   40.9690   98.7450 N.am  128  GLY128     -0.1942
     14  CA        30.8500   41.5040   97.3920 C.3   128  GLY128      0.2014
     15  C         30.6100   40.4040   96.3640 C.2   128  GLY128      0.2639
     16  O         30.7580   39.2150   96.6770 O.2   128  GLY128     -0.2714
     17  N         30.1920   40.7970   95.1580 N.am  129  HIS129     -0.1959
     18  CA        30.1080   39.8700   94.0290 C.3   129  HIS129      0.1787
     19  C         31.4140   39.8120   93.2460 C.2   129  HIS129      0.2620
     20  O         32.2590   40.6940   93.3580 O.2   129  HIS129     -0.2715
     21  CB        28.9500   40.2250   93.0890 C.3   129  HIS129      0.0785
     22  CG        28.5810   39.1100   92.1520 C.ar  129  HIS129      0.0821
     23  ND1       28.7420   39.2070   90.7860 N.ar  129  HIS129     -0.2267
     24  CD2       28.1310   37.8530   92.3840 C.ar  129  HIS129      0.1154
     25  CE1       28.3860   38.0710   90.2140 C.ar  129  HIS129      0.1986
     26  NE2       28.0000   37.2350   91.1630 N.ar  129  HIS129     -0.2212
     27  N         31.5690   38.7430   92.4710 N.am  130  LEU130     -0.1977
     28  CA        32.7020   38.5710   91.5530 C.3   130  LEU130      0.1596
     29  C         32.8540   39.7520   90.6020 C.2   130  LEU130      0.2287
     30  O         33.9360   40.2880   90.4410 O.2   130  LEU130     -0.2864
     31  CB        32.5220   37.2960   90.7350 C.3   130  LEU130      0.0297
     32  CG        32.5640   36.0110   91.5630 C.3   130  LEU130      0.0022
     33  CD1       31.9240   34.8530   90.8140 C.3   130  LEU130      0.0001
     34  CD2       34.0000   35.6960   91.9380 C.3   130  LEU130      0.0001
     35  N         36.5130   41.5810   91.6520 N.3   134  PHE134     -0.1241
     36  CA        37.2140   40.5740   92.4140 C.3   134  PHE134      0.1605
     37  C         38.4720   40.0880   91.7200 C.2   134  PHE134      0.2264
     38  O         38.4510   39.7540   90.5320 O.2   134  PHE134     -0.2867
     39  CB        36.3580   39.3550   92.7490 C.3   134  PHE134      0.0534
     40  CG        37.0990   38.3690   93.5940 C.ar  134  PHE134     -0.0203
     41  CD1       37.5180   38.7250   94.8770 C.ar  134  PHE134     -0.0042
     42  CD2       37.4860   37.1400   93.0790 C.ar  134  PHE134     -0.0042
     43  CE1       38.2570   37.8470   95.6480 C.ar  134  PHE134     -0.0003
     44  CE2       38.2350   36.2680   93.8500 C.ar  134  PHE134     -0.0003
     45  CZ        38.6100   36.6190   95.1380 C.ar  134  PHE134     -0.0000
     46  N         42.5750   38.1110   93.0820 N.3   136  ASP136     -0.1239
     47  CA        43.4230   37.5280   94.1240 C.3   136  ASP136      0.1674
     48  C         44.8890   37.7910   93.7690 C.2   136  ASP136      0.2266
     49  O         45.1980   38.1680   92.6420 O.2   136  ASP136     -0.2867
     50  CB        43.1520   36.0120   94.2250 C.3   136  ASP136      0.1410
     51  CG        43.2920   35.4750   95.6460 C.2   136  ASP136      0.3668
     52  OD1       42.7390   36.0960   96.5890 O.co2 136  ASP136     -0.2456
     53  OD2       43.9420   34.4170   95.8240 O.co2 136  ASP136     -0.2456
     54  N         40.7070   37.2370   88.7860 N.3   141  VAL141     -0.1245
     55  CA        39.6570   36.2180   88.7290 C.3   141  VAL141      0.1561
     56  C         38.4190   36.6930   87.9320 C.2   141  VAL141      0.2260
     57  O         37.9320   35.9820   87.0650 O.2   141  VAL141     -0.2867
     58  CB        39.2690   35.7530   90.1670 C.3   141  VAL141      0.0252
     59  CG1       38.0820   34.7870   90.1620 C.3   141  VAL141      0.0019
     60  CG2       40.4690   35.1020   90.8640 C.3   141  VAL141      0.0019
     61  N         26.3340   40.4830   97.6510 N.3   183  THR183     -0.1203
     62  CA        25.8130   39.1160   97.4870 C.3   183  THR183      0.1994
     63  C         25.4880   38.4670   98.8130 C.2   183  THR183      0.2618
     64  O         24.5220   37.7490   98.9050 O.2   183  THR183     -0.2717
     65  CB        26.6790   38.1660   96.6330 C.3   183  THR183      0.1784
     66  OG1       27.3820   37.2180   97.4460 O.3   183  THR183     -0.2211
     67  CG2       27.5970   38.8920   95.7800 C.3   183  THR183      0.0376
     68  N         26.2780   38.7210   99.8410 N.am  184  SER184     -0.1951
     69  CA        25.9800   38.1470  101.1490 C.3   184  SER184      0.1924
     70  C         26.2300   39.1470  102.2380 C.2   184  SER184      0.2314
     71  O         27.1140   38.9820  103.0480 O.2   184  SER184     -0.2863
     72  CB        26.7720   36.8560  101.3760 C.3   184  SER184      0.2116
     73  OG        28.1520   37.0670  101.1970 O.3   184  SER184     -0.2180
     74  N         24.5760   27.4390  101.3060 N.3   354  ASN354     -0.1225
     75  CA        25.9340   27.5260  100.8170 C.3   354  ASN354      0.1785
     76  C         26.8910   28.0070  101.8810 C.2   354  ASN354      0.2597
     77  O         26.5410   28.7920  102.7530 O.2   354  ASN354     -0.2718
     78  CB        26.0320   28.3820   99.5380 C.3   354  ASN354      0.1169
     79  CG        25.6660   29.8360   99.7710 C.2   354  ASN354      0.2627
     80  OD1       24.5000   30.2270   99.6500 O.2   354  ASN354     -0.2716
     81  ND2       26.6480   30.6280  100.1490 N.am  354  ASN354     -0.0877
     82  N         28.1060   27.4960  101.8050 N.am  355  LYS355     -0.1966
     83  CA        29.2240   27.9950  102.6050 C.3   355  LYS355      0.1728
     84  C         29.5140   29.4500  102.2440 C.2   355  LYS355      0.2616
     85  O         29.2910   29.8890  101.0990 O.2   355  LYS355     -0.2715
     86  CB        30.4900   27.1270  102.4310 C.3   355  LYS355      0.0311
     87  CG        30.7930   26.7650  100.9790 C.3   355  LYS355      0.0038
     88  CD        32.2630   26.5830  100.6720 C.3   355  LYS355      0.0206
     89  CE        32.4350   26.4510   99.1720 C.3   355  LYS355      0.1093
     90  NZ        33.6710   25.7130   98.8370 N.3   355  LYS355     -0.1314
     91  N         30.0110   30.1870  103.2300 N.am  356  ASN356     -0.1958
     92  CA        30.1380   31.6220  103.1160 C.3   356  ASN356      0.1819
     93  C         31.2070   32.1410  104.0630 C.2   356  ASN356      0.2621
     94  O         31.2610   31.7710  105.2340 O.2   356  ASN356     -0.2715
     95  CB        28.7830   32.3040  103.4160 C.3   356  ASN356      0.1195
     96  CG        28.6570   33.6740  102.7580 C.2   356  ASN356      0.2630
     97  OD1       28.0450   33.8220  101.6970 O.2   356  ASN356     -0.2716
     98  ND2       29.2490   34.6610  103.3640 N.am  356  ASN356     -0.0877
     99  N         32.0370   33.0320  103.5530 N.am  357  THR357     -0.1951
    100  CA        33.0390   33.7090  104.3630 C.3   357  THR357      0.1897
    101  C         32.4070   34.5190  105.5010 C.2   357  THR357      0.2313
    102  O         31.2560   34.9650  105.4060 O.2   357  THR357     -0.2863
    103  CB        33.8920   34.6410  103.4820 C.3   357  THR357      0.1794
    104  OG1       33.0250   35.4720  102.6920 O.3   357  THR357     -0.2208
    105  CG2       34.7850   33.8190  102.5480 C.3   357  THR357      0.0378
    106  N         39.2380   32.7450  101.0030 N.3   364  CYS364     -0.1235
    107  CA        37.9820   32.1190  100.5270 C.3   364  CYS364      0.1677
    108  C         38.0450   30.5700  100.4870 C.2   364  CYS364      0.2270
    109  O         37.0900   29.9090  100.0510 O.2   364  CYS364     -0.2867
    110  CB        37.5900   32.6790   99.1490 C.3   364  CYS364      0.0956
    111  SG        36.3640   34.0070   99.2180 S.3   364  CYS364     -0.0801
    112  N         35.9100   28.7800  104.2950 N.3   367  PRO367     -0.2116
    113  CA        35.0480   29.7470  104.9530 C.3   367  PRO367      0.1372
    114  C         34.3850   29.1780  106.2190 C.2   367  PRO367      0.2244
    115  O         34.0340   27.9870  106.2820 O.2   367  PRO367     -0.2868
    116  CB        33.9980   30.0780  103.8860 C.3   367  PRO367      0.0268
    117  CG        34.0200   28.9260  102.9580 C.3   367  PRO367      0.0207
    118  CD        35.4490   28.4850  102.9280 C.3   367  PRO367      0.0892
    119  N         25.4870   30.7460  104.4960 N.3   371  ARG371     -0.1245
    120  CA        24.4870   31.7110  104.2000 C.3   371  ARG371      0.1563
    121  C         23.1500   31.0250  103.9890 C.2   371  ARG371      0.2260
    122  O         23.0460   30.0230  103.2660 O.2   371  ARG371     -0.2867
    123  CB        24.8820   32.4830  102.9530 C.3   371  ARG371      0.0307
    124  CG        23.9710   33.6510  102.6240 C.3   371  ARG371      0.0489
    125  CD        24.3800   34.2400  101.3020 C.3   371  ARG371      0.2205
    126  NE        24.0560   33.3340  100.2190 N.pl3 371  ARG371     -0.0865
    127  CZ        24.1320   33.6220   98.9330 C.cat 371  ARG371      0.5346
    128  NH1       24.5160   34.8350   98.5150 N.pl3 371  ARG371      0.1354
    129  NH2       23.7940   32.6870   98.0560 N.pl3 371  ARG371      0.1354
@<TRIPOS>BOND
     1    57    56    2
     2    56    55    1
     3    55    54    1
     4    55    58    1
     5    59    58    1
     6    58    60    1
     7    25    23   ar
     8    25    26   ar
     9    30    29    2
    10    38    37    2
    11    29    28    1
    12    31    28    1
    13    31    32    1
    14    23    22   ar
    15    33    32    1
    16    26    24   ar
    17    28    27    1
    18    32    34    1
    19    35    36    1
    20    37    36    1
    21    22    24   ar
    22    22    21    1
    23    36    39    1
    24    27    19   am
    25    49    48    2
    26    39    40    1
    27    42    40   ar
    28    42    44   ar
    29    46    47    1
    30    21    18    1
    31    19    20    2
    32    19    18    1
    33    40    41   ar
    34    48    47    1
    35    44    45   ar
    36    18    17    1
    37    47    50    1
    38    50    51    1
    39    41    43   ar
    40    45    43   ar
    41    17    15   am
    42     7     6    1
    43    51    53   ar
    44    51    52   ar
    45     8     6    1
    46    67    65    1
    47     6     5    1
    48    15    16    2
    49    15    14    1
    50     5     2    1
    51    65    66    1
    52    65    62    1
    53    14    13    1
    54    62    61    1
    55    62    63    1
    56     2     1    1
    57     2     3    1
    58   129   127    1
    59   128   127    1
    60    13    11   am
    61    63    64    2
    62    63    68   am
    63    90    89    1
    64   127   126    2
    65     3     4    2
    66    12    11    2
    67   110   111    1
    68   110   107    1
    69    89    88    1
    70    11    10    1
    71    78    79    1
    72    78    75    1
    73    80    79    2
    74    79    81   am
    75    68    69    1
    76   109   108    2
    77   126   125    1
    78   108   107    1
    79   107   106    1
    80    88    87    1
    81    10     9    1
    82    75    74    1
    83    75    76    1
    84    87    86    1
    85    85    84    2
    86    69    72    1
    87    69    70    1
    88    73    72    1
    89   125   124    1
    90    97    96    2
    91    82    76   am
    92    82    83    1
    93    76    77    2
    94    70    71    2
    95    84    83    1
    96    84    91   am
    97    86    83    1
    98   105   103    1
    99   124   123    1
   100   104   103    1
   101    96    98   am
   102    96    95    1
   103   118   117    1
   104   118   112    1
   105   123   120    1
   106   117   116    1
   107    92    91    1
   108    92    95    1
   109    92    93    1
   110   122   121    2
   111   103   100    1
   112    99    93   am
   113    99   100    1
   114   116   113    1
   115   121   120    1
   116    93    94    2
   117   120   119    1
   118   112   113    1
   119   100   101    1
   120   113   114    1
   121   102   101    2
   122   114   115    2
