@<TRIPOS>MOLECULE
tmp/5yfzC01.pdb
 129 122 0 0 0
SMALL
GASTEIGER

@<TRIPOS>ATOM
      1  N         52.9600    5.8140   19.2990 N.3   124  LEU124     -0.1245
      2  CA        53.5740    4.4850   19.2590 C.3   124  LEU124      0.1561
      3  C         54.0720    4.0860   20.6360 C.2   124  LEU124      0.2260
      4  O         53.6880    3.0460   21.1590 O.2   124  LEU124     -0.2867
      5  CB        54.7340    4.4740   18.2530 C.3   124  LEU124      0.0270
      6  CG        55.5130    3.1690   18.0270 C.3   124  LEU124      0.0019
      7  CD1       54.8110    2.3090   16.9860 C.3   124  LEU124      0.0001
      8  CD2       56.9560    3.4310   17.5900 C.3   124  LEU124      0.0001
      9  N         51.3280    2.8050   22.9230 N.3   127  GLY127     -0.1210
     10  CA        50.5380    1.6200   22.5390 C.3   127  GLY127      0.1956
     11  C         49.9570    1.6260   21.1310 C.2   127  GLY127      0.2612
     12  O         49.4430    0.6120   20.6890 O.2   127  GLY127     -0.2717
     13  N         50.0570    2.7430   20.4100 N.am  128  GLY128     -0.1942
     14  CA        49.5430    2.8100   19.0420 C.3   128  GLY128      0.2014
     15  C         50.4550    2.1280   18.0170 C.2   128  GLY128      0.2639
     16  O         51.5260    1.5890   18.3620 O.2   128  GLY128     -0.2714
     17  N         49.9910    2.1290   16.7630 N.am  129  HIS129     -0.1959
     18  CA        50.7240    1.5990   15.6230 C.3   129  HIS129      0.1787
     19  C         51.3630    2.7010   14.8140 C.2   129  HIS129      0.2620
     20  O         50.9330    3.8390   14.8600 O.2   129  HIS129     -0.2715
     21  CB        49.8040    0.8000   14.6980 C.3   129  HIS129      0.0785
     22  CG        50.5480   -0.1080   13.7680 C.ar  129  HIS129      0.0821
     23  ND1       50.5730    0.0800   12.4040 N.ar  129  HIS129     -0.2267
     24  CD2       51.3500   -1.1670   14.0120 C.ar  129  HIS129      0.1154
     25  CE1       51.3360   -0.8410   11.8460 C.ar  129  HIS129      0.1986
     26  NE2       51.8050   -1.6220   12.8010 N.ar  129  HIS129     -0.2212
     27  N         52.3880    2.3200   14.0510 N.am  130  LEU130     -0.1977
     28  CA        53.0970    3.2170   13.1170 C.3   130  LEU130      0.1596
     29  C         52.1730    3.9230   12.1360 C.2   130  LEU130      0.2287
     30  O         52.3130    5.1220   11.8850 O.2   130  LEU130     -0.2864
     31  CB        54.1070    2.4220   12.3060 C.3   130  LEU130      0.0297
     32  CG        55.2550    1.8260   13.1160 C.3   130  LEU130      0.0022
     33  CD1       55.7790    0.5860   12.3980 C.3   130  LEU130      0.0001
     34  CD2       56.3410    2.8770   13.3230 C.3   130  LEU130      0.0001
     35  N         52.4710    7.9210   13.2330 N.3   134  PHE134     -0.1241
     36  CA        53.6960    8.0250   14.0020 C.3   134  PHE134      0.1605
     37  C         54.7430    8.8690   13.3050 C.2   134  PHE134      0.2264
     38  O         55.1470    8.5680   12.1790 O.2   134  PHE134     -0.2867
     39  CB        54.3310    6.6700   14.3430 C.3   134  PHE134      0.0534
     40  CG        55.5850    6.8170   15.1570 C.ar  134  PHE134     -0.0203
     41  CD1       55.5600    7.5210   16.3680 C.ar  134  PHE134     -0.0042
     42  CD2       56.8000    6.3570   14.6840 C.ar  134  PHE134     -0.0042
     43  CE1       56.7230    7.7210   17.1030 C.ar  134  PHE134     -0.0003
     44  CE2       57.9550    6.5380   15.4270 C.ar  134  PHE134     -0.0003
     45  CZ        57.9190    7.2190   16.6370 C.ar  134  PHE134     -0.0000
     46  N         58.3680   11.5370   14.5890 N.3   136  ASP136     -0.1239
     47  CA        59.3770   11.8160   15.5960 C.3   136  ASP136      0.1674
     48  C         59.8200   13.2520   15.3160 C.2   136  ASP136      0.2266
     49  O         59.5500   13.7780   14.2380 O.2   136  ASP136     -0.2867
     50  CB        60.5060   10.7760   15.4430 C.3   136  ASP136      0.1410
     51  CG        61.7450   11.0960   16.2510 C.2   136  ASP136      0.3668
     52  OD1       62.4800   12.0350   15.8740 O.co2 136  ASP136     -0.2456
     53  OD2       62.0130   10.3820   17.2400 O.co2 136  ASP136     -0.2456
     54  N         58.1830    9.3950   10.3720 N.3   141  VAL141     -0.1245
     55  CA        58.5610    7.9880   10.2580 C.3   141  VAL141      0.1561
     56  C         57.5650    7.1670    9.4250 C.2   141  VAL141      0.2260
     57  O         57.9690    6.3390    8.6170 O.2   141  VAL141     -0.2867
     58  CB        58.7540    7.3420   11.6580 C.3   141  VAL141      0.0252
     59  CG1       59.1140    5.8620   11.5500 C.3   141  VAL141      0.0019
     60  CG2       59.8390    8.0850   12.4460 C.3   141  VAL141      0.0019
     61  N         48.2820   -1.4270   19.2290 N.3   183  THR183     -0.1203
     62  CA        49.2370   -2.5270   19.0450 C.3   183  THR183      0.1994
     63  C         49.5780   -3.1910   20.3770 C.2   183  THR183      0.2618
     64  O         49.5550   -4.4030   20.4840 O.2   183  THR183     -0.2717
     65  CB        50.5090   -2.1850   18.2430 C.3   183  THR183      0.1784
     66  OG1       51.6330   -1.9230   19.1020 O.3   183  THR183     -0.2211
     67  CG2       50.3020   -1.0870   17.3090 C.3   183  THR183      0.0376
     68  N         49.8370   -2.3950   21.4000 N.am  184  SER184     -0.1951
     69  CA        50.0690   -2.9330   22.7530 C.3   184  SER184      0.1924
     70  C         49.2990   -2.1570   23.8080 C.2   184  SER184      0.2314
     71  O         49.8770   -1.4120   24.5800 O.2   184  SER184     -0.2863
     72  CB        51.5680   -2.9330   23.0580 C.3   184  SER184      0.2116
     73  OG        52.2470   -1.9100   22.3590 O.3   184  SER184     -0.2180
     74  N         58.5700   -9.5490   22.7690 N.3   354  ASN354     -0.1225
     75  CA        59.2080   -8.3310   22.3000 C.3   354  ASN354      0.1785
     76  C         59.2860   -7.2670   23.3570 C.2   354  ASN354      0.2597
     77  O         58.4350   -7.1890   24.2500 O.2   354  ASN354     -0.2718
     78  CB        58.5790   -7.7730   21.0210 C.3   354  ASN354      0.1169
     79  CG        57.1980   -7.2080   21.2490 C.2   354  ASN354      0.2627
     80  OD1       56.2200   -7.9450   21.2080 O.2   354  ASN354     -0.2716
     81  ND2       57.1150   -5.9090   21.5110 N.am  354  ASN354     -0.0877
     82  N         60.3430   -6.4700   23.2400 N.am  355  LYS355     -0.1966
     83  CA        60.5160   -5.2300   23.9760 C.3   355  LYS355      0.1728
     84  C         59.4100   -4.2250   23.6400 C.2   355  LYS355      0.2616
     85  O         58.9230   -4.1680   22.5120 O.2   355  LYS355     -0.2715
     86  CB        61.8980   -4.6090   23.6980 C.3   355  LYS355      0.0311
     87  CG        62.2350   -4.3630   22.2300 C.3   355  LYS355      0.0038
     88  CD        63.4150   -3.4100   22.0500 C.3   355  LYS355      0.0206
     89  CE        63.8920   -3.4080   20.6090 C.3   355  LYS355      0.1093
     90  NZ        64.9250   -2.3610   20.3660 N.3   355  LYS355     -0.1314
     91  N         59.0440   -3.4020   24.6110 N.am  356  ASN356     -0.1958
     92  CA        57.8810   -2.5230   24.4560 C.3   356  ASN356      0.1819
     93  C         57.9610   -1.3900   25.4550 C.2   356  ASN356      0.2621
     94  O         58.2800   -1.6120   26.6330 O.2   356  ASN356     -0.2715
     95  CB        56.5920   -3.3240   24.6710 C.3   356  ASN356      0.1195
     96  CG        55.3550   -2.6090   24.1080 C.2   356  ASN356      0.2630
     97  OD1       54.9670   -1.5550   24.5890 O.2   356  ASN356     -0.2716
     98  ND2       54.7790   -3.1580   23.0580 N.am  356  ASN356     -0.0877
     99  N         57.6630   -0.1800   24.9910 N.am  357  THR357     -0.1951
    100  CA        57.5750    0.9960   25.8570 C.3   357  THR357      0.1897
    101  C         56.4830    0.8980   26.9330 C.2   357  THR357      0.2313
    102  O         55.5650    0.0770   26.8510 O.2   357  THR357     -0.2863
    103  CB        57.3150    2.2800   25.0480 C.3   357  THR357      0.1794
    104  OG1       56.3400    2.0140   24.0380 O.3   357  THR357     -0.2208
    105  CG2       58.6010    2.7800   24.3870 C.3   357  THR357      0.0378
    106  N         61.2240    5.8210   22.1790 N.3   364  CYS364     -0.1235
    107  CA        61.2390    4.3960   21.8190 C.3   364  CYS364      0.1677
    108  C         62.6190    3.7030   21.8420 C.2   364  CYS364      0.2270
    109  O         62.6970    2.4850   21.6420 O.2   364  CYS364     -0.2867
    110  CB        60.5690    4.2030   20.4650 C.3   364  CYS364      0.0956
    111  SG        58.9080    3.5210   20.6200 S.3   364  CYS364     -0.0801
    112  N         63.2150    0.8970   25.6020 N.3   367  PRO367     -0.2116
    113  CA        61.9280    0.5930   26.2320 C.3   367  PRO367      0.1372
    114  C         62.0930   -0.2550   27.4960 C.2   367  PRO367      0.2244
    115  O         62.8770   -1.2340   27.5020 O.2   367  PRO367     -0.2868
    116  CB        61.1860   -0.2030   25.1550 C.3   367  PRO367      0.0268
    117  CG        62.2520   -0.7900   24.3170 C.3   367  PRO367      0.0207
    118  CD        63.3330    0.2490   24.2850 C.3   367  PRO367      0.0892
    119  N         56.2720   -6.9150   25.9670 N.3   371  ARG371     -0.1245
    120  CA        54.9090   -7.2910   25.6920 C.3   371  ARG371      0.1563
    121  C         54.8250   -8.7850   25.4650 C.2   371  ARG371      0.2260
    122  O         55.6340   -9.3430   24.7160 O.2   371  ARG371     -0.2867
    123  CB        54.4420   -6.5310   24.4470 C.3   371  ARG371      0.0307
    124  CG        53.0080   -6.7920   24.0370 C.3   371  ARG371      0.0489
    125  CD        52.7530   -6.1980   22.6690 C.3   371  ARG371      0.2205
    126  NE        53.3730   -6.9940   21.6100 N.pl3 371  ARG371     -0.0865
    127  CZ        53.1460   -6.8410   20.3130 C.cat 371  ARG371      0.5346
    128  NH1       52.2740   -5.9230   19.8810 N.pl3 371  ARG371      0.1354
    129  NH2       53.7770   -7.6300   19.4400 N.pl3 371  ARG371      0.1354
@<TRIPOS>BOND
     1    57    56    2
     2    56    55    1
     3    55    54    1
     4    55    58    1
     5    59    58    1
     6    58    60    1
     7    25    23   ar
     8    25    26   ar
     9    30    29    2
    10    29    28    1
    11    38    37    2
    12    31    32    1
    13    31    28    1
    14    33    32    1
    15    23    22   ar
    16    26    24   ar
    17    32    34    1
    18    28    27    1
    19    35    36    1
    20    37    36    1
    21    22    24   ar
    22    22    21    1
    23    36    39    1
    24    27    19   am
    25    49    48    2
    26    39    40    1
    27    46    47    1
    28    42    40   ar
    29    42    44   ar
    30    21    18    1
    31    19    20    2
    32    19    18    1
    33    40    41   ar
    34    48    47    1
    35    44    45   ar
    36    50    47    1
    37    50    51    1
    38    18    17    1
    39    52    51   ar
    40    51    53   ar
    41    41    43   ar
    42    45    43   ar
    43    17    15   am
    44     7     6    1
    45    67    65    1
    46     8     6    1
    47    15    16    2
    48    15    14    1
    49     6     5    1
    50    65    62    1
    51    65    66    1
    52     5     2    1
    53    14    13    1
    54    62    61    1
    55    62    63    1
    56     2     1    1
    57     2     3    1
    58   129   127    1
    59   128   127    1
    60   127   126    2
    61    90    89    1
    62    63    64    2
    63    63    68   am
    64    13    11   am
    65   110   111    1
    66   110   107    1
    67    89    88    1
    68     3     4    2
    69    12    11    2
    70    78    79    1
    71    78    75    1
    72    11    10    1
    73    80    79    2
    74    79    81   am
    75    68    69    1
    76   126   125    1
    77   109   108    2
    78   107   108    1
    79   107   106    1
    80    88    87    1
    81    87    86    1
    82    75    74    1
    83    75    76    1
    84    73    72    1
    85    85    84    2
    86    10     9    1
    87   125   124    1
    88    69    72    1
    89    69    70    1
    90    98    96   am
    91    82    76   am
    92    82    83    1
    93    76    77    2
    94    84    83    1
    95    84    91   am
    96    86    83    1
    97    70    71    2
    98   124   123    1
    99   104   103    1
   100    96    97    2
   101    96    95    1
   102   118   117    1
   103   118   112    1
   104   117   116    1
   105   105   103    1
   106   123   120    1
   107    92    91    1
   108    92    95    1
   109    92    93    1
   110   122   121    2
   111    99    93   am
   112    99   100    1
   113   103   100    1
   114   116   113    1
   115    93    94    2
   116   121   120    1
   117   112   113    1
   118   120   119    1
   119   100   101    1
   120   113   114    1
   121   102   101    2
   122   114   115    2
