@<TRIPOS>MOLECULE
tmp/5yfzC00.pdb
 149 141 0 0 0
SMALL
GASTEIGER

@<TRIPOS>ATOM
      1  N         54.6550  -13.8490   21.2720 N.3    32  ILE32      -0.1245
      2  CA        54.5070  -12.6280   20.4610 C.3    32  ILE32       0.1561
      3  C         53.0160  -12.3770   20.4230 C.2    32  ILE32       0.2260
      4  O         52.2640  -13.2850   20.1390 O.2    32  ILE32      -0.2867
      5  CB        55.0930  -12.7210   19.0390 C.3    32  ILE32       0.0252
      6  CG1       56.5670  -13.2100   19.0730 C.3    32  ILE32       0.0019
      7  CG2       55.0220  -11.3660   18.3620 C.3    32  ILE32       0.0019
      8  CD1       57.5440  -12.2910   19.7790 C.3    32  ILE32       0.0001
      9  N         51.1820  -10.5900   18.6080 N.3    34  SER34      -0.1217
     10  CA        50.6680  -10.5510   17.2200 C.3    34  SER34       0.1889
     11  C         50.8610  -11.8190   16.3850 C.2    34  SER34       0.2288
     12  O         50.5450  -11.7930   15.2180 O.2    34  SER34      -0.2866
     13  CB        51.3110   -9.3730   16.4830 C.3    34  SER34       0.2089
     14  OG        52.7050   -9.3130   16.7250 O.3    34  SER34      -0.2183
     15  N         48.0390   -6.2190    3.4820 N.3   100  SER100     -0.1202
     16  CA        48.4000   -6.3120    4.8960 C.3   100  SER100      0.2020
     17  C         47.8670   -5.1430    5.7120 C.2   100  SER100      0.2619
     18  O         47.4160   -4.1480    5.1710 O.2   100  SER100     -0.2717
     19  CB        49.9410   -6.4000    5.0650 C.3   100  SER100      0.2103
     20  OG        50.2880   -7.4520    5.9900 O.3   100  SER100     -0.2182
     21  N         47.9880   -5.2480    7.0240 N.am  101  GLY101     -0.1942
     22  CA        47.4400   -4.2500    7.9240 C.3   101  GLY101      0.2014
     23  C         47.8280   -2.8140    7.6620 C.2   101  GLY101      0.2639
     24  O         46.9840   -1.9110    7.7100 O.2   101  GLY101     -0.2714
     25  N         49.1160   -2.6070    7.4130 N.am  102  SER102     -0.1949
     26  CA        49.6610   -1.2930    7.1690 C.3   102  SER102      0.1924
     27  C         49.0630   -0.7120    5.8630 C.2   102  SER102      0.2314
     28  O         48.6390    0.4230    5.8280 O.2   102  SER102     -0.2863
     29  CB        51.2140   -1.3460    7.0910 C.3   102  SER102      0.2116
     30  OG        51.8450   -1.9790    8.2100 O.3   102  SER102     -0.2180
     31  N         45.3320    0.2600    6.4120 N.3   105  ASN105     -0.1240
     32  CA        45.1800    1.4840    7.1650 C.3   105  ASN105      0.1653
     33  C         45.4300    2.7130    6.3060 C.2   105  ASN105      0.2266
     34  O         44.5980    3.6280    6.2970 O.2   105  ASN105     -0.2867
     35  CB        46.1120    1.5340    8.3810 C.3   105  ASN105      0.1155
     36  CG        45.6180    0.7180    9.5640 C.2   105  ASN105      0.2627
     37  OD1       44.4730    0.2220    9.6040 O.2   105  ASN105     -0.2716
     38  ND2       46.4810    0.6160   10.5790 N.am  105  ASN105     -0.0877
     39  N         49.9910    2.1290   16.7630 N.3   129  HIS129     -0.1241
     40  CA        50.7240    1.5990   15.6230 C.3   129  HIS129      0.1621
     41  C         51.3630    2.7010   14.8140 C.2   129  HIS129      0.2264
     42  O         50.9330    3.8390   14.8600 O.2   129  HIS129     -0.2867
     43  CB        49.8040    0.8000   14.6980 C.3   129  HIS129      0.0745
     44  CG        50.5480   -0.1080   13.7680 C.ar  129  HIS129      0.0817
     45  ND1       50.5730    0.0800   12.4040 N.ar  129  HIS129     -0.2268
     46  CD2       51.3500   -1.1670   14.0120 C.ar  129  HIS129      0.1154
     47  CE1       51.3360   -0.8410   11.8460 C.ar  129  HIS129      0.1986
     48  NE2       51.8050   -1.6220   12.8010 N.ar  129  HIS129     -0.2212
     49  N         49.2500    4.8980   12.5160 N.3   132  HIS132     -0.1241
     50  CA        48.3060    5.7950   13.1740 C.3   132  HIS132      0.1621
     51  C         48.8700    7.2140   13.2500 C.2   132  HIS132      0.2264
     52  O         48.4100    8.0350   14.0270 O.2   132  HIS132     -0.2867
     53  CB        47.9080    5.2330   14.5490 C.3   132  HIS132      0.0745
     54  CG        47.2640    3.8730   14.4810 C.ar  132  HIS132      0.0817
     55  ND1       46.9750    3.1300   15.6010 N.ar  132  HIS132     -0.2268
     56  CD2       46.8570    3.1270   13.4260 C.ar  132  HIS132      0.1154
     57  CE1       46.3960    1.9950   15.2440 C.ar  132  HIS132      0.1986
     58  NE2       46.3150    1.9670   13.9260 N.ar  132  HIS132     -0.2212
     59  N         44.6270   -0.5820   19.0630 N.3   182  TYR182     -0.1227
     60  CA        46.0900   -0.3860   19.2650 C.3   182  TYR182      0.1736
     61  C         46.9690   -1.6280   19.1430 C.2   182  TYR182      0.2596
     62  O         46.4740   -2.7340   18.9470 O.2   182  TYR182     -0.2718
     63  CB        46.3310    0.2970   20.6160 C.3   182  TYR182      0.0548
     64  CG        45.3720    1.4130   20.9160 C.ar  182  TYR182     -0.0200
     65  CD1       45.4650    2.6430   20.2600 C.ar  182  TYR182     -0.0009
     66  CD2       44.3470    1.2430   21.8540 C.ar  182  TYR182     -0.0009
     67  CE1       44.5760    3.6720   20.5400 C.ar  182  TYR182      0.0417
     68  CE2       43.4570    2.2740   22.1350 C.ar  182  TYR182      0.0417
     69  CZ        43.5880    3.4880   21.4890 C.ar  182  TYR182      0.1957
     70  OH        42.6950    4.4920   21.7630 O.3   182  TYR182     -0.2866
     71  N         48.2820   -1.4270   19.2290 N.am  183  THR183     -0.1953
     72  CA        49.2370   -2.5270   19.0450 C.3   183  THR183      0.1897
     73  C         49.5780   -3.1910   20.3770 C.2   183  THR183      0.2313
     74  O         49.5550   -4.4030   20.4840 O.2   183  THR183     -0.2863
     75  CB        50.5090   -2.1850   18.2430 C.3   183  THR183      0.1794
     76  OG1       51.6330   -1.9230   19.1020 O.3   183  THR183     -0.2208
     77  CG2       50.3020   -1.0870   17.3090 C.3   183  THR183      0.0378
     78  N         41.0170    0.4590   14.6440 N.3   208  ASP208     -0.1239
     79  CA        41.9360   -0.6170   14.1670 C.3   208  ASP208      0.1674
     80  C         41.9180   -1.6590   15.2330 C.2   208  ASP208      0.2266
     81  O         42.5060   -1.4370   16.2790 O.2   208  ASP208     -0.2867
     82  CB        43.3560   -0.1050   13.9720 C.3   208  ASP208      0.1410
     83  CG        44.3190   -1.1700   13.3810 C.2   208  ASP208      0.3668
     84  OD1       44.0570   -2.4150   13.4010 O.co2 208  ASP208     -0.2456
     85  OD2       45.3550   -0.7090   12.8790 O.co2 208  ASP208     -0.2456
     86  N         42.9820   -4.9710   14.8050 N.3   210  SER210     -0.1202
     87  CA        43.8730   -6.0690   14.4130 C.3   210  SER210      0.2020
     88  C         44.2590   -7.0040   15.5680 C.2   210  SER210      0.2618
     89  O         44.1780   -8.2180   15.4290 O.2   210  SER210     -0.2717
     90  CB        45.1170   -5.4870   13.7640 C.3   210  SER210      0.2103
     91  OG        44.7700   -5.0330   12.4680 O.3   210  SER210     -0.2182
     92  N         44.6280   -6.4230   16.7020 N.am  211  HIS211     -0.1975
     93  CA        44.9720   -7.2050   17.9000 C.3   211  HIS211      0.1656
     94  C         43.8440   -7.8600   18.6720 C.2   211  HIS211      0.2291
     95  O         44.0930   -8.8380   19.3890 O.2   211  HIS211     -0.2864
     96  CB        45.7980   -6.3800   18.8630 C.3   211  HIS211      0.0771
     97  CG        47.2560   -6.5360   18.6340 C.ar  211  HIS211      0.0820
     98  ND1       47.9140   -7.7210   18.8770 N.ar  211  HIS211     -0.2267
     99  CD2       48.1730   -5.6860   18.1270 C.ar  211  HIS211      0.1154
    100  CE1       49.1870   -7.5760   18.5740 C.ar  211  HIS211      0.1986
    101  NE2       49.3710   -6.3520   18.1150 N.ar  211  HIS211     -0.2212
    102  N         43.6820   -6.7860   10.5830 N.3   234  THR234     -0.1218
    103  CA        44.4990   -7.8380    9.9980 C.3   234  THR234      0.1862
    104  C         43.8190   -9.1700   10.2580 C.2   234  THR234      0.2287
    105  O         43.1070   -9.3050   11.2170 O.2   234  THR234     -0.2866
    106  CB        45.9540   -7.8560   10.5790 C.3   234  THR234      0.1770
    107  OG1       45.9370   -8.0310   11.9990 O.3   234  THR234     -0.2211
    108  CG2       46.6700   -6.5770   10.2530 C.3   234  THR234      0.0375
    109  N         45.7130  -12.1530   10.5500 N.3   236  HIS236     -0.1226
    110  CA        46.8100  -13.1070   10.9570 C.3   236  HIS236      0.1752
    111  C         47.2300  -13.1800   12.4090 C.2   236  HIS236      0.2595
    112  O         48.0130  -14.0700   12.7610 O.2   236  HIS236     -0.2718
    113  CB        48.1160  -12.9100   10.1510 C.3   236  HIS236      0.0759
    114  CG        48.5760  -11.4980   10.0500 C.ar  236  HIS236      0.0818
    115  ND1       48.0760  -10.6270    9.1150 N.ar  236  HIS236     -0.2268
    116  CD2       49.5160  -10.8130   10.7320 C.ar  236  HIS236      0.1154
    117  CE1       48.6900   -9.4640    9.2190 C.ar  236  HIS236      0.1986
    118  NE2       49.5500   -9.5450   10.2100 N.ar  236  HIS236     -0.2212
    119  N         46.7440  -12.2790   13.2440 N.am  237  LYS237     -0.1980
    120  CA        47.0440  -12.3220   14.6670 C.3   237  LYS237      0.1596
    121  C         46.0120  -13.2280   15.3810 C.2   237  LYS237      0.2287
    122  O         45.8530  -14.4170   15.0380 O.2   237  LYS237     -0.2864
    123  CB        47.0550  -10.9040   15.1980 C.3   237  LYS237      0.0298
    124  CG        48.0300   -9.9820   14.4940 C.3   237  LYS237      0.0038
    125  CD        47.8390   -8.5790   15.0020 C.3   237  LYS237      0.0206
    126  CE        48.7940   -7.6440   14.3510 C.3   237  LYS237      0.1093
    127  NZ        48.7050   -7.6700   12.8860 N.3   237  LYS237     -0.1314
    128  N         48.3430  -13.8060    6.3130 N.3   243  ARG243     -0.1245
    129  CA        48.7400  -12.4290    6.3930 C.3   243  ARG243      0.1563
    130  C         47.9200  -11.6590    5.3510 C.2   243  ARG243      0.2260
    131  O         48.1550  -11.7680    4.1830 O.2   243  ARG243     -0.2867
    132  CB        50.2610  -12.2480    6.2220 C.3   243  ARG243      0.0307
    133  CG        51.0880  -13.1820    7.0950 C.3   243  ARG243      0.0489
    134  CD        52.5730  -12.8270    7.0730 C.3   243  ARG243      0.2205
    135  NE        52.8330  -11.7080    7.9640 N.pl3 243  ARG243     -0.0865
    136  CZ        53.0640  -11.7990    9.2590 C.cat 243  ARG243      0.5346
    137  NH1       53.1140  -12.9730    9.8750 N.pl3 243  ARG243      0.1354
    138  NH2       53.2360  -10.6830    9.9460 N.pl3 243  ARG243      0.1354
    139  N         56.2720   -6.9150   25.9670 N.3   371  ARG371     -0.1245
    140  CA        54.9090   -7.2910   25.6920 C.3   371  ARG371      0.1563
    141  C         54.8250   -8.7850   25.4650 C.2   371  ARG371      0.2260
    142  O         55.6340   -9.3430   24.7160 O.2   371  ARG371     -0.2867
    143  CB        54.4420   -6.5310   24.4470 C.3   371  ARG371      0.0307
    144  CG        53.0080   -6.7920   24.0370 C.3   371  ARG371      0.0489
    145  CD        52.7530   -6.1980   22.6690 C.3   371  ARG371      0.2205
    146  NE        53.3730   -6.9940   21.6100 N.pl3 371  ARG371     -0.0865
    147  CZ        53.1460   -6.8410   20.3130 C.cat 371  ARG371      0.5346
    148  NH1       52.2740   -5.9230   19.8810 N.pl3 371  ARG371      0.1354
    149  NH2       53.7770   -7.6300   19.4400 N.pl3 371  ARG371      0.1354
@<TRIPOS>BOND
     1    15    16    1
     2   131   130    2
     3    16    19    1
     4    16    17    1
     5    19    20    1
     6    18    17    2
     7   130   129    1
     8    17    21   am
     9    28    27    2
    10    27    26    1
    11   132   129    1
    12   132   133    1
    13    34    33    2
    14    33    32    1
    15   128   129    1
    16    31    32    1
    17    21    22    1
    18   134   133    1
    19   134   135    1
    20    29    26    1
    21    29    30    1
    22    32    35    1
    23    26    25    1
    24    25    23   am
    25    23    24    2
    26    23    22    1
    27   135   136    2
    28    35    36    1
    29   115   117   ar
    30   115   114   ar
    31   117   118   ar
    32   136   137    1
    33   136   138    1
    34    36    37    2
    35    36    38   am
    36   103   104    1
    37   103   106    1
    38   103   102    1
    39   114   113    1
    40   114   116   ar
    41   113   110    1
    42   118   116   ar
    43   108   106    1
    44   104   105    2
    45   109   110    1
    46   106   107    1
    47   110   111    1
    48    47    45   ar
    49    47    48   ar
    50    45    44   ar
    51   111   112    2
    52   111   119   am
    53    91    90    1
    54    49    50    1
    55    48    46   ar
    56    85    83   ar
    57   127   126    1
    58    50    51    1
    59    50    53    1
    60   119   120    1
    61    51    52    2
    62    83    84   ar
    63    83    82    1
    64    56    58   ar
    65    56    54   ar
    66    90    87    1
    67    44    46   ar
    68    44    43    1
    69    58    57   ar
    70    82    79    1
    71    79    78    1
    72    79    80    1
    73   126   125    1
    74    87    86    1
    75    87    88    1
    76    54    53    1
    77    54    55   ar
    78   124   125    1
    79   124   123    1
    80   120   123    1
    81   120   121    1
    82    43    40    1
    83    41    42    2
    84    41    40    1
    85   122   121    2
    86    12    11    2
    87    80    81    2
    88    57    55   ar
    89    89    88    2
    90    88    92   am
    91    40    39    1
    92    11    10    1
    93    13    14    1
    94    13    10    1
    95    92    93    1
    96    10     9    1
    97    77    75    1
    98    93    94    1
    99    93    96    1
   100   101    99   ar
   101   101   100   ar
   102    99    97   ar
   103    75    72    1
   104    75    76    1
   105     7     5    1
   106   100    98   ar
   107    97    96    1
   108    97    98   ar
   109    94    95    2
   110    62    61    2
   111     5     6    1
   112     5     2    1
   113    72    71    1
   114    72    73    1
   115    59    60    1
   116     6     8    1
   117    61    71   am
   118    61    60    1
   119    60    63    1
   120   149   147    1
   121   148   147    1
   122     4     3    2
   123    65    67   ar
   124    65    64   ar
   125   147   146    2
   126    73    74    2
   127     3     2    1
   128     2     1    1
   129    67    69   ar
   130    63    64    1
   131    64    66   ar
   132    69    70    1
   133    69    68   ar
   134   146   145    1
   135    66    68   ar
   136   145   144    1
   137   144   143    1
   138   143   140    1
   139   142   141    2
   140   141   140    1
   141   140   139    1
