@<TRIPOS>MOLECULE
tmp/5yg0B03.pdb
 129 122 0 0 0
SMALL
GASTEIGER

@<TRIPOS>ATOM
      1  N         17.7050    4.2700   58.3130 N.3   124  LEU124     -0.1245
      2  CA        19.1730    4.3430   58.3070 C.3   124  LEU124      0.1561
      3  C         19.7440    4.2170   56.8870 C.2   124  LEU124      0.2260
      4  O         20.3870    5.1550   56.4000 O.2   124  LEU124     -0.2867
      5  CB        19.7840    3.2960   59.2400 C.3   124  LEU124      0.0270
      6  CG        21.3270    3.3200   59.3230 C.3   124  LEU124      0.0019
      7  CD1       21.8320    3.9880   60.6030 C.3   124  LEU124      0.0001
      8  CD2       21.8780    1.9040   59.2150 C.3   124  LEU124      0.0001
      9  N         19.5140    7.3100   54.7630 N.3   127  GLY127     -0.1210
     10  CA        20.1420    8.5510   55.2390 C.3   127  GLY127      0.1956
     11  C         19.8010    9.0010   56.6520 C.2   127  GLY127      0.2612
     12  O         20.3810    9.9610   57.1330 O.2   127  GLY127     -0.2717
     13  N         18.8940    8.3090   57.3330 N.am  128  GLY128     -0.1942
     14  CA        18.4880    8.6960   58.6810 C.3   128  GLY128      0.2014
     15  C         19.4130    8.1510   59.7440 C.2   128  GLY128      0.2639
     16  O         20.1870    7.2430   59.4850 O.2   128  GLY128     -0.2714
     17  N         19.3400    8.7250   60.9450 N.am  129  HIS129     -0.1959
     18  CA        20.1810    8.3170   62.0660 C.3   129  HIS129      0.1787
     19  C         19.6180    7.1650   62.8550 C.2   129  HIS129      0.2620
     20  O         18.4430    6.8620   62.7740 O.2   129  HIS129     -0.2715
     21  CB        20.4780    9.5050   62.9990 C.3   129  HIS129      0.0785
     22  CG        21.7120    9.3110   63.8350 C.ar  129  HIS129      0.0821
     23  ND1       21.6720    9.2100   65.2070 N.ar  129  HIS129     -0.2267
     24  CD2       23.0110    9.1300   63.4850 C.ar  129  HIS129      0.1154
     25  CE1       22.8940    9.0080   65.6700 C.ar  129  HIS129      0.1986
     26  NE2       23.7280    8.9710   64.6450 N.ar  129  HIS129     -0.2212
     27  N         20.4970    6.5160   63.6100 N.am  130  LEU130     -0.1977
     28  CA        20.1160    5.4790   64.5660 C.3   130  LEU130      0.1596
     29  C         19.0680    5.9860   65.5590 C.2   130  LEU130      0.2287
     30  O         18.1070    5.2900   65.8510 O.2   130  LEU130     -0.2864
     31  CB        21.3490    5.0040   65.3480 C.3   130  LEU130      0.0297
     32  CG        22.4470    4.3230   64.5210 C.3   130  LEU130      0.0022
     33  CD1       23.7570    4.3060   65.2890 C.3   130  LEU130      0.0001
     34  CD2       22.0370    2.9140   64.1110 C.3   130  LEU130      0.0001
     35  N         15.6500    3.6990   64.4400 N.3   134  PHE134     -0.1241
     36  CA        16.1330    2.6190   63.5980 C.3   134  PHE134      0.1605
     37  C         16.0930    1.2640   64.2590 C.2   134  PHE134      0.2264
     38  O         16.5840    1.0930   65.3800 O.2   134  PHE134     -0.2867
     39  CB        17.5550    2.8360   63.1200 C.3   134  PHE134      0.0534
     40  CG        18.0690    1.6850   62.3020 C.ar  134  PHE134     -0.0203
     41  CD1       17.5100    1.4150   61.0500 C.ar  134  PHE134     -0.0042
     42  CD2       19.0420    0.8190   62.8080 C.ar  134  PHE134     -0.0042
     43  CE1       17.9480    0.3380   60.3020 C.ar  134  PHE134     -0.0003
     44  CE2       19.4740   -0.2570   62.0560 C.ar  134  PHE134     -0.0003
     45  CZ        18.9330   -0.4930   60.8020 C.ar  134  PHE134     -0.0000
     46  N         15.9490   -3.2580   62.8750 N.3   136  ASP136     -0.1239
     47  CA        16.0380   -4.3150   61.8700 C.3   136  ASP136      0.1674
     48  C         14.9070   -5.3130   62.1690 C.2   136  ASP136      0.2266
     49  O         14.3850   -5.3380   63.2810 O.2   136  ASP136     -0.2867
     50  CB        17.3940   -5.0340   62.0170 C.3   136  ASP136      0.1410
     51  CG        18.1330   -5.1820   60.7070 C.2   136  ASP136      0.3668
     52  OD1       18.5110   -4.1430   60.1270 O.co2 136  ASP136     -0.2456
     53  OD2       18.3670   -6.3350   60.2720 O.co2 136  ASP136     -0.2456
     54  N         17.5930   -2.1040   67.2820 N.3   141  VAL141     -0.1245
     55  CA        18.9890   -1.6980   67.2820 C.3   141  VAL141      0.1561
     56  C         19.1950   -0.4070   68.0880 C.2   141  VAL141      0.2260
     57  O         20.1100   -0.3300   68.8940 O.2   141  VAL141     -0.2867
     58  CB        19.4930   -1.5250   65.8260 C.3   141  VAL141      0.0252
     59  CG1       20.8880   -0.9310   65.7810 C.3   141  VAL141      0.0019
     60  CG2       19.4550   -2.8630   65.0860 C.3   141  VAL141      0.0019
     61  N         21.6230   12.0020   58.6230 N.3   183  THR183     -0.1203
     62  CA        23.0560   11.7060   58.8370 C.3   183  THR183      0.1994
     63  C         23.8550   11.6830   57.5210 C.2   183  THR183      0.2618
     64  O         24.9210   12.2830   57.4570 O.2   183  THR183     -0.2717
     65  CB        23.3530   10.5310   59.8130 C.3   183  THR183      0.1784
     66  OG1       24.4370    9.7270   59.3190 O.3   183  THR183     -0.2211
     67  CG2       22.1980    9.6870   60.0260 C.3   183  THR183      0.0376
     68  N         23.3130   11.0850   56.4670 N.am  184  SER184     -0.1951
     69  CA        23.9930   11.0450   55.1670 C.3   184  SER184      0.1924
     70  C         22.9970   11.2560   54.0340 C.2   184  SER184      0.2314
     71  O         22.7750   10.3850   53.1890 O.2   184  SER184     -0.2863
     72  CB        24.7340    9.7090   55.0160 C.3   184  SER184      0.2116
     73  OG        23.8050    8.6460   55.0970 O.3   184  SER184     -0.2180
     74  N         34.1300    7.1480   55.3380 N.3   354  ASN354     -0.1225
     75  CA        33.3430    6.0470   55.8610 C.3   354  ASN354      0.1785
     76  C         32.4530    5.3670   54.8340 C.2   354  ASN354      0.2597
     77  O         31.9400    5.9860   53.8980 O.2   354  ASN354     -0.2718
     78  CB        32.5250    6.4920   57.0850 C.3   354  ASN354      0.1169
     79  CG        31.3560    7.3790   56.7300 C.2   354  ASN354      0.2627
     80  OD1       31.4760    8.6020   56.7690 O.2   354  ASN354     -0.2716
     81  ND2       30.2340    6.7760   56.3680 N.am  354  ASN354     -0.0877
     82  N         32.2720    4.0730   55.0450 N.am  355  LYS355     -0.1966
     83  CA        31.2900    3.2980   54.3040 C.3   355  LYS355      0.1728
     84  C         29.8920    3.8270   54.5520 C.2   355  LYS355      0.2616
     85  O         29.5930    4.3930   55.6160 O.2   355  LYS355     -0.2715
     86  CB        31.3370    1.7930   54.6330 C.3   355  LYS355      0.0311
     87  CG        31.7810    1.4340   56.0500 C.3   355  LYS355      0.0038
     88  CD        31.3080    0.0570   56.4840 C.3   355  LYS355      0.0206
     89  CE        32.2640   -0.5880   57.4870 C.3   355  LYS355      0.1093
     90  NZ        31.4900   -1.4400   58.4300 N.3   355  LYS355     -0.1314
     91  N         29.0390    3.6260   53.5560 N.am  356  ASN356     -0.1958
     92  CA        27.6950    4.1510   53.5910 C.3   356  ASN356      0.1819
     93  C         26.7780    3.3530   52.6760 C.2   356  ASN356      0.2621
     94  O         27.1550    2.9780   51.5650 O.2   356  ASN356     -0.2715
     95  CB        27.7150    5.6240   53.1950 C.3   356  ASN356      0.1195
     96  CG        26.6600    6.4350   53.9390 C.2   356  ASN356      0.2630
     97  OD1       26.9510    7.1030   54.9490 O.2   356  ASN356     -0.2716
     98  ND2       25.4370    6.3430   53.4800 N.am  356  ASN356     -0.0877
     99  N         25.5640    3.0980   53.1520 N.am  357  THR357     -0.1951
    100  CA        24.5100    2.5090   52.3430 C.3   357  THR357      0.1897
    101  C         24.0870    3.4190   51.1780 C.2   357  THR357      0.2313
    102  O         24.4180    4.6260   51.1320 O.2   357  THR357     -0.2863
    103  CB        23.2550    2.2730   53.1930 C.3   357  THR357      0.1794
    104  OG1       22.9140    3.5000   53.8520 O.3   357  THR357     -0.2208
    105  CG2       23.4860    1.1830   54.2330 C.3   357  THR357      0.0378
    106  N         22.9590   -3.4700   55.4670 N.3   364  CYS364     -0.1235
    107  CA        23.9960   -2.6110   56.0610 C.3   364  CYS364      0.1677
    108  C         25.3550   -3.3120   56.1820 C.2   364  CYS364      0.2270
    109  O         26.3690   -2.6490   56.4120 O.2   364  CYS364     -0.2867
    110  CB        23.5560   -2.1370   57.4440 C.3   364  CYS364      0.0956
    111  SG        21.8930   -1.4320   57.4510 S.3   364  CYS364     -0.0801
    112  N         27.7270   -2.4540   52.4310 N.3   367  PRO367     -0.2116
    113  CA        27.2570   -1.1530   51.8970 C.3   367  PRO367      0.1372
    114  C         27.9460   -0.7920   50.5760 C.2   367  PRO367      0.2244
    115  O         29.1670   -0.9880   50.4340 O.2   367  PRO367     -0.2868
    116  CB        27.6590   -0.1560   52.9780 C.3   367  PRO367      0.0268
    117  CG        28.8390   -0.7780   53.6340 C.3   367  PRO367      0.0207
    118  CD        28.5870   -2.2650   53.6140 C.3   367  PRO367      0.0892
    119  N         30.6550    7.7390   52.0060 N.3   371  ARG371     -0.1245
    120  CA        30.3120    9.1150   52.1410 C.3   371  ARG371      0.1563
    121  C         31.5790    9.9070   52.3820 C.2   371  ARG371      0.2260
    122  O         32.4500    9.4590   53.1350 O.2   371  ARG371     -0.2867
    123  CB        29.3320    9.2920   53.2870 C.3   371  ARG371      0.0307
    124  CG        28.9460   10.7320   53.5880 C.3   371  ARG371      0.0489
    125  CD        28.2510   10.8370   54.9440 C.3   371  ARG371      0.2205
    126  NE        29.2020   10.7440   56.0530 N.pl3 371  ARG371     -0.0865
    127  CZ        28.8670   10.6550   57.3370 C.cat 371  ARG371      0.5346
    128  NH1       27.5870   10.6510   57.7240 N.pl3 371  ARG371      0.1354
    129  NH2       29.8120   10.5700   58.2410 N.pl3 371  ARG371      0.1354
@<TRIPOS>BOND
     1   115   114    2
     2   114   113    1
     3   102   101    2
     4   101   100    1
     5    94    93    2
     6   113   112    1
     7   113   116    1
     8   119   120    1
     9   120   121    1
    10   120   123    1
    11   100    99    1
    12   100   103    1
    13   121   122    2
    14   112   118    1
    15    93    99   am
    16    93    92    1
    17   116   117    1
    18    71    70    2
    19   103   104    1
    20   103   105    1
    21    95    92    1
    22    95    96    1
    23   123   124    1
    24    98    96   am
    25    91    92    1
    26    91    84   am
    27   124   125    1
    28   118   117    1
    29    77    76    2
    30    96    97    2
    31    70    69    1
    32    83    84    1
    33    83    86    1
    34    83    82    1
    35    84    85    2
    36    86    87    1
    37     9    10    1
    38    76    82   am
    39    76    75    1
    40   125   126    1
    41    72    73    1
    42    72    69    1
    43    69    68    1
    44    10    11    1
    45    74    75    1
    46   106   107    1
    47    75    78    1
    48    87    88    1
    49   126   127    2
    50   107   108    1
    51   107   110    1
    52   108   109    2
    53    81    79   am
    54     4     3    2
    55    68    63   am
    56    88    89    1
    57    11    12    2
    58    11    13   am
    59    79    80    2
    60    79    78    1
    61     3     2    1
    62    13    14    1
    63   127   128    1
    64   127   129    1
    65   110   111    1
    66    64    63    2
    67    89    90    1
    68    63    62    1
    69     2     1    1
    70     2     5    1
    71    61    62    1
    72    14    15    1
    73    62    65    1
    74     8     6    1
    75     5     6    1
    76    66    65    1
    77     6     7    1
    78    16    15    2
    79    15    17   am
    80    65    67    1
    81    52    51   ar
    82    53    51   ar
    83    43    45   ar
    84    43    41   ar
    85    51    50    1
    86    45    44   ar
    87    17    18    1
    88    41    40   ar
    89    47    50    1
    90    47    48    1
    91    47    46    1
    92    44    42   ar
    93    18    19    1
    94    18    21    1
    95    48    49    2
    96    40    42   ar
    97    40    39    1
    98    20    19    2
    99    19    27   am
   100    21    22    1
   101    39    36    1
   102    24    22   ar
   103    24    26   ar
   104    36    37    1
   105    36    35    1
   106    27    28    1
   107    22    23   ar
   108    34    32    1
   109    37    38    2
   110    32    33    1
   111    32    31    1
   112    28    31    1
   113    28    29    1
   114    26    25   ar
   115    60    58    1
   116    23    25   ar
   117    29    30    2
   118    59    58    1
   119    58    55    1
   120    55    54    1
   121    55    56    1
   122    56    57    2
