@<TRIPOS>MOLECULE
tmp/5yg1B03.pdb
 130 123 0 0 0
SMALL
GASTEIGER

@<TRIPOS>ATOM
      1  N         32.9050   43.6850   59.0050 N.3   124  LEU124     -0.1245
      2  CA        31.4300   43.6210   59.0370 C.3   124  LEU124      0.1561
      3  C         30.8010   43.8220   57.6620 C.2   124  LEU124      0.2260
      4  O         29.9920   42.9960   57.2420 O.2   124  LEU124     -0.2867
      5  CB        30.8640   44.6480   60.0290 C.3   124  LEU124      0.0270
      6  CG        29.3450   44.7900   60.2610 C.3   124  LEU124      0.0019
      7  CD1       28.7810   43.6930   61.1560 C.3   124  LEU124      0.0001
      8  CD2       29.0220   46.1420   60.8740 C.3   124  LEU124      0.0001
      9  N         31.0590   40.7580   55.4920 N.3   127  GLY127     -0.1210
     10  CA        30.3270   39.5680   55.9340 C.3   127  GLY127      0.1956
     11  C         30.7260   38.9940   57.2830 C.2   127  GLY127      0.2612
     12  O         30.1970   37.9750   57.6870 O.2   127  GLY127     -0.2717
     13  N         31.6450   39.6430   57.9860 N.am  128  GLY128     -0.1942
     14  CA        32.0060   39.2430   59.3320 C.3   128  GLY128      0.2014
     15  C         31.0080   39.6690   60.3940 C.2   128  GLY128      0.2639
     16  O         30.1330   40.5110   60.1410 O.2   128  GLY128     -0.2714
     17  N         31.1390   39.0700   61.5840 N.am  129  HIS129     -0.1959
     18  CA        30.3290   39.4500   62.7240 C.3   129  HIS129      0.1787
     19  C         30.9510   40.5760   63.5150 C.2   129  HIS129      0.2620
     20  O         32.1370   40.8610   63.3980 O.2   129  HIS129     -0.2715
     21  CB        30.0630   38.2660   63.6630 C.3   129  HIS129      0.0785
     22  CG        28.8720   38.4770   64.5480 C.ar  129  HIS129      0.0821
     23  ND1       28.9860   38.6030   65.9120 N.ar  129  HIS129     -0.2267
     24  CD2       27.5610   38.6790   64.2650 C.ar  129  HIS129      0.1154
     25  CE1       27.7990   38.8330   66.4410 C.ar  129  HIS129      0.1986
     26  NE2       26.9100   38.8650   65.4630 N.ar  129  HIS129     -0.2212
     27  N         30.1120   41.2160   64.3190 N.am  130  LEU130     -0.1977
     28  CA        30.5290   42.2620   65.2500 C.3   130  LEU130      0.1596
     29  C         31.5810   41.7600   66.2270 C.2   130  LEU130      0.2287
     30  O         32.5580   42.4500   66.5200 O.2   130  LEU130     -0.2864
     31  CB        29.3330   42.7420   66.0600 C.3   130  LEU130      0.0297
     32  CG        28.1830   43.3090   65.2420 C.3   130  LEU130      0.0022
     33  CD1       26.9230   43.2230   66.0720 C.3   130  LEU130      0.0001
     34  CD2       28.4860   44.7310   64.7930 C.3   130  LEU130      0.0001
     35  N         34.9440   44.0100   64.9750 N.3   134  PHE134     -0.1241
     36  CA        34.4520   45.1370   64.1940 C.3   134  PHE134      0.1605
     37  C         34.5980   46.4840   64.8690 C.2   134  PHE134      0.2264
     38  O         34.1600   46.6750   66.0050 O.2   134  PHE134     -0.2867
     39  CB        32.9900   45.0140   63.8120 C.3   134  PHE134      0.0534
     40  CG        32.5220   46.1820   63.0240 C.ar  134  PHE134     -0.0203
     41  CD1       33.0520   46.4350   61.7600 C.ar  134  PHE134     -0.0042
     42  CD2       31.6430   47.0930   63.5860 C.ar  134  PHE134     -0.0042
     43  CE1       32.6570   47.5550   61.0480 C.ar  134  PHE134     -0.0003
     44  CE2       31.2480   48.2040   62.8740 C.ar  134  PHE134     -0.0003
     45  CZ        31.7500   48.4380   61.6070 C.ar  134  PHE134     -0.0000
     46  N         34.5460   55.0680   65.9170 N.3   139  LYS139     -0.1245
     47  CA        34.3010   54.3980   67.2060 C.3   139  LYS139      0.1561
     48  C         34.5900   52.8860   67.1880 C.2   139  LYS139      0.2260
     49  O         34.3380   52.2060   66.1990 O.2   139  LYS139     -0.2867
     50  CB        32.8400   54.6200   67.6540 C.3   139  LYS139      0.0271
     51  CG        32.6470   54.6140   69.1750 C.3   139  LYS139      0.0035
     52  CD        31.3910   53.8580   69.6080 C.3   139  LYS139      0.0206
     53  CE        31.3290   53.6320   71.1170 C.3   139  LYS139      0.1093
     54  NZ        32.5270   52.9610   71.7070 N.3   139  LYS139     -0.1314
     55  N         33.2150   49.8310   67.8630 N.3   141  VAL141     -0.1245
     56  CA        31.8170   49.4610   67.9380 C.3   141  VAL141      0.1561
     57  C         31.6480   48.2190   68.8090 C.2   141  VAL141      0.2260
     58  O         30.7440   48.1560   69.6340 O.2   141  VAL141     -0.2867
     59  CB        31.2380   49.2140   66.5220 C.3   141  VAL141      0.0252
     60  CG1       29.7680   48.8000   66.5810 C.3   141  VAL141      0.0019
     61  CG2       31.3900   50.4650   65.6520 C.3   141  VAL141      0.0019
     62  N         29.0020   35.8130   59.1430 N.3   183  THR183     -0.1203
     63  CA        27.5820   36.0440   59.4050 C.3   183  THR183      0.1994
     64  C         26.8080   36.0830   58.1060 C.2   183  THR183      0.2618
     65  O         25.7200   35.4890   58.0310 O.2   183  THR183     -0.2717
     66  CB        27.2540   37.2300   60.3150 C.3   183  THR183      0.1784
     67  OG1       26.7400   38.3300   59.5690 O.3   183  THR183     -0.2211
     68  CG2       28.3910   37.6270   61.0590 C.3   183  THR183      0.0376
     69  N         27.3700   36.7160   57.0750 N.am  184  SER184     -0.1951
     70  CA        26.7190   36.7110   55.7740 C.3   184  SER184      0.1924
     71  C         27.6540   36.4040   54.5950 C.2   184  SER184      0.2314
     72  O         27.8180   37.1930   53.6970 O.2   184  SER184     -0.2863
     73  CB        25.9620   38.0260   55.5850 C.3   184  SER184      0.2116
     74  OG        26.8720   39.0830   55.3810 O.3   184  SER184     -0.2180
     75  N         16.6890   40.7170   55.4970 N.3   354  ASN354     -0.1225
     76  CA        17.4360   41.8190   56.0900 C.3   354  ASN354      0.1785
     77  C         18.3480   42.4580   55.0850 C.2   354  ASN354      0.2597
     78  O         18.8830   41.7930   54.1820 O.2   354  ASN354     -0.2718
     79  CB        18.2070   41.3900   57.3470 C.3   354  ASN354      0.1169
     80  CG        19.3420   40.4310   57.0550 C.2   354  ASN354      0.2627
     81  OD1       19.1670   39.2200   57.1240 O.2   354  ASN354     -0.2716
     82  ND2       20.5130   40.9700   56.7240 N.am  354  ASN354     -0.0877
     83  N         18.5020   43.7590   55.2360 N.am  355  LYS355     -0.1966
     84  CA        19.4520   44.5090   54.4430 C.3   355  LYS355      0.1728
     85  C         20.8610   44.0400   54.7650 C.2   355  LYS355      0.2616
     86  O         21.1600   43.6180   55.8800 O.2   355  LYS355     -0.2715
     87  CB        19.3230   46.0380   54.6360 C.3   355  LYS355      0.0311
     88  CG        18.9740   46.5000   56.0470 C.3   355  LYS355      0.0038
     89  CD        19.4830   47.8910   56.3440 C.3   355  LYS355      0.0206
     90  CE        18.9020   48.3980   57.6650 C.3   355  LYS355      0.1093
     91  NZ        19.7200   49.5010   58.2500 N.3   355  LYS355     -0.1314
     92  N         21.7250   44.1330   53.7640 N.am  356  ASN356     -0.1958
     93  CA        23.0730   43.6190   53.8460 C.3   356  ASN356      0.1819
     94  C         23.9750   44.4150   52.9150 C.2   356  ASN356      0.2621
     95  O         23.5750   44.7920   51.8060 O.2   356  ASN356     -0.2715
     96  CB        23.0720   42.1250   53.4640 C.3   356  ASN356      0.1195
     97  CG        24.1390   41.3250   54.2000 C.2   356  ASN356      0.2630
     98  OD1       23.8490   40.6610   55.1820 O.2   356  ASN356     -0.2716
     99  ND2       25.3630   41.4090   53.7470 N.am  356  ASN356     -0.0877
    100  N         25.2030   44.6450   53.3520 N.am  357  THR357     -0.1951
    101  CA        26.2050   45.2680   52.5150 C.3   357  THR357      0.1897
    102  C         26.6810   44.3270   51.4100 C.2   357  THR357      0.2313
    103  O         26.4140   43.1090   51.4400 O.2   357  THR357     -0.2863
    104  CB        27.4110   45.7080   53.3560 C.3   357  THR357      0.1794
    105  OG1       27.7590   44.6550   54.2590 O.3   357  THR357     -0.2208
    106  CG2       27.0680   46.9700   54.1670 C.3   357  THR357      0.0378
    107  N         27.4260   51.3330   55.9210 N.3   364  CYS364     -0.1235
    108  CA        26.3660   50.5460   56.5750 C.3   364  CYS364      0.1677
    109  C         25.0600   51.3420   56.7650 C.2   364  CYS364      0.2270
    110  O         24.1150   50.8620   57.3970 O.2   364  CYS364     -0.2867
    111  CB        26.8750   50.0210   57.9160 C.3   364  CYS364      0.0956
    112  SG        28.1950   48.8030   57.7140 S.3   364  CYS364     -0.0801
    113  N         23.1620   50.2830   52.5020 N.3   367  PRO367     -0.2116
    114  CA        23.7420   49.0720   51.9130 C.3   367  PRO367      0.1372
    115  C         22.9980   48.6310   50.6260 C.2   367  PRO367      0.2244
    116  O         21.7680   48.7860   50.5210 O.2   367  PRO367     -0.2868
    117  CB        23.5540   48.0370   53.0160 C.3   367  PRO367      0.0268
    118  CG        22.3160   48.4700   53.6750 C.3   367  PRO367      0.0207
    119  CD        22.5170   49.9500   53.7830 C.3   367  PRO367      0.0892
    120  N         20.0460   40.0220   52.3280 N.3   371  ARG371     -0.1245
    121  CA        20.4580   38.6780   52.5580 C.3   371  ARG371      0.1563
    122  C         19.2370   37.8320   52.8240 C.2   371  ARG371      0.2260
    123  O         18.3780   38.2150   53.6010 O.2   371  ARG371     -0.2867
    124  CB        21.3600   38.6480   53.7780 C.3   371  ARG371      0.0307
    125  CG        21.9480   37.2910   54.1250 C.3   371  ARG371      0.0489
    126  CD        22.6090   37.3630   55.4810 C.3   371  ARG371      0.2205
    127  NE        21.6310   37.4700   56.5460 N.pl3 371  ARG371     -0.0865
    128  CZ        21.8920   37.4210   57.8480 C.cat 371  ARG371      0.5346
    129  NH1       23.1310   37.2430   58.2720 N.pl3 371  ARG371      0.1354
    130  NH2       20.8980   37.5470   58.7400 N.pl3 371  ARG371      0.1354
@<TRIPOS>BOND
     1   116   115    2
     2   115   114    1
     3   102   103    2
     4   102   101    1
     5    95    94    2
     6   114   113    1
     7   114   117    1
     8   120   121    1
     9   113   119    1
    10   101   100    1
    11   101   104    1
    12   121   122    1
    13   121   124    1
    14   122   123    2
    15    94   100   am
    16    94    93    1
    17   117   118    1
    18   104   106    1
    19   104   105    1
    20    96    93    1
    21    96    97    1
    22   118   119    1
    23    72    71    2
    24    99    97   am
    25    92    93    1
    26    92    85   am
    27   124   125    1
    28   125   126    1
    29    78    77    2
    30    97    98    2
    31    84    87    1
    32    84    85    1
    33    84    83    1
    34    71    70    1
    35    87    88    1
    36    85    86    2
    37    77    83   am
    38    77    76    1
    39    74    73    1
    40   126   127    1
    41     9    10    1
    42    75    76    1
    43    73    70    1
    44    70    69    1
    45   107   108    1
    46    10    11    1
    47    88    89    1
    48    76    79    1
    49    89    90    1
    50   127   128    2
    51   108   109    1
    52   108   111    1
    53    82    80   am
    54   109   110    2
    55    80    81    2
    56    80    79    1
    57    69    64   am
    58     4     3    2
    59    11    12    2
    60    11    13   am
    61     3     2    1
    62    90    91    1
    63   112   111    1
    64   128   129    1
    65   128   130    1
    66    13    14    1
    67    65    64    2
    68    64    63    1
    69     1     2    1
    70     2     5    1
    71    62    63    1
    72    14    15    1
    73    63    66    1
    74    67    66    1
    75     5     6    1
    76    16    15    2
    77     6     8    1
    78     6     7    1
    79    66    68    1
    80    15    17   am
    81    43    45   ar
    82    43    41   ar
    83    17    18    1
    84    45    44   ar
    85    41    40   ar
    86    18    19    1
    87    18    21    1
    88    44    42   ar
    89    40    42   ar
    90    40    39    1
    91    20    19    2
    92    19    27   am
    93    21    22    1
    94    39    36    1
    95    36    37    1
    96    36    35    1
    97    24    22   ar
    98    24    26   ar
    99    27    28    1
   100    22    23   ar
   101    34    32    1
   102    37    38    2
   103    32    31    1
   104    32    33    1
   105    28    31    1
   106    28    29    1
   107    26    25   ar
   108    61    59    1
   109    23    25   ar
   110    46    47    1
   111    49    48    2
   112    29    30    2
   113    59    60    1
   114    59    56    1
   115    48    47    1
   116    47    50    1
   117    50    51    1
   118    55    56    1
   119    56    57    1
   120    57    58    2
   121    51    52    1
   122    52    53    1
   123    53    54    1
