@<TRIPOS>MOLECULE
tmp/5yg2A01.pdb
 138 130 0 0 0
SMALL
GASTEIGER

@<TRIPOS>ATOM
      1  N         35.0670   36.7970   19.8250 N.3   124  LEU124     -0.1245
      2  CA        34.2180   37.9940   19.8990 C.3   124  LEU124      0.1561
      3  C         34.0300   38.6390   18.5360 C.2   124  LEU124      0.2260
      4  O         32.9050   38.8600   18.1210 O.2   124  LEU124     -0.2867
      5  CB        34.7980   39.0070   20.8900 C.3   124  LEU124      0.0270
      6  CG        34.0450   40.3340   21.1140 C.3   124  LEU124      0.0019
      7  CD1       32.9870   40.2060   22.1960 C.3   124  LEU124      0.0001
      8  CD2       35.0110   41.4520   21.4830 C.3   124  LEU124      0.0001
      9  N         31.5820   36.9190   16.3560 N.3   127  GLY127     -0.1210
     10  CA        30.1960   36.9600   16.8190 C.3   127  GLY127      0.1956
     11  C         29.9030   36.2900   18.1550 C.2   127  GLY127      0.2612
     12  O         28.7530   36.2830   18.5840 O.2   127  GLY127     -0.2717
     13  N         30.9300   35.7550   18.8150 N.am  128  GLY128     -0.1942
     14  CA        30.7900   35.2270   20.1600 C.3   128  GLY128      0.2014
     15  C         30.6660   36.3350   21.1970 C.2   128  GLY128      0.2639
     16  O         30.8710   37.5140   20.8900 O.2   128  GLY128     -0.2714
     17  N         30.2810   35.9590   22.4170 N.am  129  HIS129     -0.1959
     18  CA        30.1730   36.9000   23.5100 C.3   129  HIS129      0.1787
     19  C         31.4610   36.9570   24.2980 C.2   129  HIS129      0.2620
     20  O         32.2640   36.0300   24.2690 O.2   129  HIS129     -0.2715
     21  CB        29.0090   36.5470   24.4300 C.3   129  HIS129      0.0785
     22  CG        28.5640   37.6830   25.3030 C.ar  129  HIS129      0.0821
     23  ND1       28.6840   37.6510   26.6740 N.ar  129  HIS129     -0.2267
     24  CD2       28.0430   38.8970   24.9990 C.ar  129  HIS129      0.1154
     25  CE1       28.2410   38.7860   27.1810 C.ar  129  HIS129      0.1986
     26  NE2       27.8390   39.5580   26.1840 N.ar  129  HIS129     -0.2212
     27  N         31.6320   38.0610   25.0070 N.am  130  LEU130     -0.1977
     28  CA        32.7210   38.2130   25.9830 C.3   130  LEU130      0.1596
     29  C         32.8240   37.0390   26.9570 C.2   130  LEU130      0.2287
     30  O         33.9080   36.5110   27.1910 O.2   130  LEU130     -0.2864
     31  CB        32.5050   39.4950   26.7920 C.3   130  LEU130      0.0297
     32  CG        32.7250   40.8150   26.0450 C.3   130  LEU130      0.0022
     33  CD1       32.1250   41.9500   26.8430 C.3   130  LEU130      0.0001
     34  CD2       34.1990   41.1020   25.8360 C.3   130  LEU130      0.0001
     35  N         36.4170   35.3050   25.9120 N.3   134  PHE134     -0.1241
     36  CA        37.1420   36.3130   25.1660 C.3   134  PHE134      0.1605
     37  C         38.4230   36.7960   25.8410 C.2   134  PHE134      0.2264
     38  O         38.3970   37.2510   26.9970 O.2   134  PHE134     -0.2867
     39  CB        36.3050   37.5380   24.8400 C.3   134  PHE134      0.0534
     40  CG        37.0630   38.5330   24.0340 C.ar  134  PHE134     -0.0203
     41  CD1       37.4890   38.2080   22.7410 C.ar  134  PHE134     -0.0042
     42  CD2       37.4520   39.7420   24.5880 C.ar  134  PHE134     -0.0042
     43  CE1       38.2400   39.1040   21.9940 C.ar  134  PHE134     -0.0003
     44  CE2       38.2150   40.6280   23.8470 C.ar  134  PHE134     -0.0003
     45  CZ        38.6020   40.3100   22.5470 C.ar  134  PHE134     -0.0000
     46  N         42.5430   38.6140   24.3180 N.3   136  ASP136     -0.1239
     47  CA        43.3410   39.0960   23.1850 C.3   136  ASP136      0.1674
     48  C         44.8210   39.1430   23.6210 C.2   136  ASP136      0.2266
     49  O         45.1080   39.2650   24.8100 O.2   136  ASP136     -0.2867
     50  CB        42.7690   40.4490   22.6610 C.3   136  ASP136      0.1410
     51  CG        43.5940   41.6780   23.0680 C.2   136  ASP136      0.3668
     52  OD1       44.2570   42.2650   22.1800 O.co2 136  ASP136     -0.2456
     53  OD2       43.5580   42.0820   24.2510 O.co2 136  ASP136     -0.2456
     54  N         45.6340   41.0800   26.7510 N.3   139  LYS139     -0.1245
     55  CA        44.9600   40.8030   28.0290 C.3   139  LYS139      0.1561
     56  C         43.8930   39.7070   28.0010 C.2   139  LYS139      0.2260
     57  O         43.2210   39.4790   26.9980 O.2   139  LYS139     -0.2867
     58  CB        44.3290   42.0970   28.5840 C.3   139  LYS139      0.0271
     59  CG        45.0110   42.6390   29.8370 C.3   139  LYS139      0.0035
     60  CD        44.2620   43.8250   30.4320 C.3   139  LYS139      0.0206
     61  CE        42.9480   43.4390   31.1050 C.3   139  LYS139      0.1093
     62  NZ        43.0890   42.4300   32.1980 N.3   139  LYS139     -0.1314
     63  N         40.7070   39.5900   28.7240 N.3   141  VAL141     -0.1245
     64  CA        39.6740   40.6220   28.7980 C.3   141  VAL141      0.1561
     65  C         38.4580   40.1480   29.6140 C.2   141  VAL141      0.2260
     66  O         37.9470   40.8700   30.4570 O.2   141  VAL141     -0.2867
     67  CB        39.2390   41.0540   27.3640 C.3   141  VAL141      0.0252
     68  CG1       38.0330   41.9870   27.3630 C.3   141  VAL141      0.0019
     69  CG2       40.3900   41.7260   26.6310 C.3   141  VAL141      0.0019
     70  N         26.3440   36.2490   19.9230 N.3   183  THR183     -0.1203
     71  CA        25.8330   37.6270   20.0960 C.3   183  THR183      0.1994
     72  C         25.5000   38.3220   18.7780 C.2   183  THR183      0.2618
     73  O         24.4850   38.9960   18.6960 O.2   183  THR183     -0.2717
     74  CB        26.6080   38.4950   21.1130 C.3   183  THR183      0.1784
     75  OG1       26.9610   39.7730   20.5490 O.3   183  THR183     -0.2211
     76  CG2       27.8000   37.8280   21.5820 C.3   183  THR183      0.0376
     77  N         26.2930   38.1090   17.7370 N.am  184  SER184     -0.1951
     78  CA        25.9640   38.6540   16.4210 C.3   184  SER184      0.1924
     79  C         26.2170   37.5940   15.3740 C.2   184  SER184      0.2314
     80  O         27.1920   37.6410   14.6420 O.2   184  SER184     -0.2863
     81  CB        26.7530   39.9380   16.1640 C.3   184  SER184      0.2116
     82  OG        28.1240   39.7340   16.4160 O.3   184  SER184     -0.2180
     83  N         24.4290   49.3250   16.4640 N.3   354  ASN354     -0.1225
     84  CA        25.7850   49.2570   16.9720 C.3   354  ASN354      0.1785
     85  C         26.7740   48.8350   15.9190 C.2   354  ASN354      0.2597
     86  O         26.4410   48.1610   14.9490 O.2   354  ASN354     -0.2718
     87  CB        25.8850   48.4100   18.2610 C.3   354  ASN354      0.1169
     88  CG        25.4920   46.9670   18.0600 C.2   354  ASN354      0.2627
     89  OD1       24.3480   46.6010   18.2900 O.2   354  ASN354     -0.2716
     90  ND2       26.4220   46.1570   17.6110 N.am  354  ASN354     -0.0877
     91  N         27.9970   49.2910   16.1100 N.am  355  LYS355     -0.1966
     92  CA        29.1130   48.8670   15.3100 C.3   355  LYS355      0.1728
     93  C         29.4170   47.4040   15.6220 C.2   355  LYS355      0.2616
     94  O         29.1790   46.9290   16.7360 O.2   355  LYS355     -0.2715
     95  CB        30.3350   49.7760   15.5290 C.3   355  LYS355      0.0311
     96  CG        30.9150   49.8000   16.9370 C.3   355  LYS355      0.0038
     97  CD        32.3090   50.4320   16.9390 C.3   355  LYS355      0.0206
     98  CE        33.0700   50.1900   18.2340 C.3   355  LYS355      0.1093
     99  NZ        32.7170   51.1630   19.3070 N.3   355  LYS355     -0.1314
    100  N         29.9350   46.6860   14.6370 N.am  356  ASN356     -0.1958
    101  CA        30.0580   45.2320   14.7570 C.3   356  ASN356      0.1819
    102  C         31.0990   44.7370   13.7850 C.2   356  ASN356      0.2621
    103  O         31.1190   45.1380   12.6240 O.2   356  ASN356     -0.2715
    104  CB        28.7000   44.5750   14.4680 C.3   356  ASN356      0.1195
    105  CG        28.5200   43.2370   15.1870 C.2   356  ASN356      0.2630
    106  OD1       27.9600   43.1810   16.2940 O.2   356  ASN356     -0.2716
    107  ND2       28.9970   42.1820   14.5860 N.am  356  ASN356     -0.0877
    108  N         31.9600   43.8500   14.2510 N.am  357  THR357     -0.1951
    109  CA        32.9670   43.2290   13.4010 C.3   357  THR357      0.1897
    110  C         32.3780   42.3750   12.2700 C.2   357  THR357      0.2313
    111  O         31.2140   41.9890   12.3130 O.2   357  THR357     -0.2863
    112  CB        33.8650   42.3230   14.2440 C.3   357  THR357      0.1794
    113  OG1       33.0350   41.4900   15.0600 O.3   357  THR357     -0.2208
    114  CG2       34.7650   43.1500   15.1370 C.3   357  THR357      0.0378
    115  N         39.4790   43.6330   16.6250 N.3   364  CYS364     -0.1235
    116  CA        38.2050   44.2520   17.0490 C.3   364  CYS364      0.1677
    117  C         38.2880   45.8050   17.0840 C.2   364  CYS364      0.2270
    118  O         37.3440   46.4850   17.5160 O.2   364  CYS364     -0.2867
    119  CB        37.7790   43.7050   18.4180 C.3   364  CYS364      0.0956
    120  SG        36.0580   43.1520   18.4630 S.3   364  CYS364     -0.0801
    121  N         35.8400   48.1920   13.6420 N.3   367  PRO367     -0.2116
    122  CA        35.0020   47.1700   12.9720 C.3   367  PRO367      0.1372
    123  C         34.3050   47.6980   11.7220 C.2   367  PRO367      0.2244
    124  O         33.9210   48.8720   11.6730 O.2   367  PRO367     -0.2868
    125  CB        33.9630   46.8030   14.0390 C.3   367  PRO367      0.0268
    126  CG        33.8680   48.0070   14.8860 C.3   367  PRO367      0.0207
    127  CD        35.2700   48.5720   14.9460 C.3   367  PRO367      0.0892
    128  N         25.4050   46.0940   13.2070 N.3   371  ARG371     -0.1245
    129  CA        24.4330   45.1030   13.4640 C.3   371  ARG371      0.1563
    130  C         23.1280   45.8000   13.7190 C.2   371  ARG371      0.2260
    131  O         23.0770   46.7910   14.4840 O.2   371  ARG371     -0.2867
    132  CB        24.8720   44.3070   14.6890 C.3   371  ARG371      0.0307
    133  CG        23.9990   43.1200   15.0350 C.3   371  ARG371      0.0489
    134  CD        24.4120   42.5800   16.3810 C.3   371  ARG371      0.2205
    135  NE        23.9770   43.4720   17.4460 N.pl3 371  ARG371     -0.0865
    136  CZ        23.9810   43.1930   18.7370 C.cat 371  ARG371      0.5346
    137  NH1       24.4020   42.0030   19.1960 N.pl3 371  ARG371      0.1354
    138  NH2       23.5480   44.1230   19.5800 N.pl3 371  ARG371      0.1354
@<TRIPOS>BOND
     1   124   123    2
     2   123   122    1
     3   110   111    2
     4   110   109    1
     5   103   102    2
     6   122   121    1
     7   122   125    1
     8   128   129    1
     9   109   112    1
    10   109   108    1
    11   129   130    1
    12   129   132    1
    13   121   127    1
    14   130   131    2
    15   102   108   am
    16   102   101    1
    17   125   126    1
    18   112   113    1
    19   112   114    1
    20   104   101    1
    21   104   105    1
    22   107   105   am
    23   100   101    1
    24   100    93   am
    25    80    79    2
    26   132   133    1
    27   126   127    1
    28    86    85    2
    29   133   134    1
    30   105   106    2
    31    92    95    1
    32    92    93    1
    33    92    91    1
    34    79    78    1
    35    95    96    1
    36    93    94    2
    37    85    91   am
    38    85    84    1
    39    81    82    1
    40    81    78    1
    41     9    10    1
    42   134   135    1
    43    78    77    1
    44    83    84    1
    45   115   116    1
    46    10    11    1
    47    96    97    1
    48    97    98    1
    49    84    87    1
    50   116   117    1
    51   116   119    1
    52   117   118    2
    53   135   136    2
    54    90    88   am
    55    77    72   am
    56    88    87    1
    57    88    89    2
    58     4     3    2
    59    11    12    2
    60    11    13   am
    61    98    99    1
    62   119   120    1
    63     3     2    1
    64    73    72    2
    65   136   137    1
    66   136   138    1
    67    72    71    1
    68    13    14    1
    69     1     2    1
    70     2     5    1
    71    70    71    1
    72    71    74    1
    73    14    15    1
    74    75    74    1
    75     5     6    1
    76    16    15    2
    77    74    76    1
    78     6     8    1
    79     6     7    1
    80    15    17   am
    81    43    45   ar
    82    43    41   ar
    83    52    51   ar
    84    17    18    1
    85    45    44   ar
    86    50    51    1
    87    50    47    1
    88    41    40   ar
    89    51    53   ar
    90    47    48    1
    91    47    46    1
    92    18    19    1
    93    18    21    1
    94    48    49    2
    95    44    42   ar
    96    40    42   ar
    97    40    39    1
    98    20    19    2
    99    19    27   am
   100    21    22    1
   101    39    36    1
   102    24    22   ar
   103    24    26   ar
   104    27    28    1
   105    36    37    1
   106    36    35    1
   107    22    23   ar
   108    34    32    1
   109    37    38    2
   110    28    31    1
   111    28    29    1
   112    32    31    1
   113    32    33    1
   114    26    25   ar
   115    69    67    1
   116    23    25   ar
   117    54    55    1
   118    29    30    2
   119    57    56    2
   120    68    67    1
   121    67    64    1
   122    56    55    1
   123    55    58    1
   124    58    59    1
   125    63    64    1
   126    64    65    1
   127    65    66    2
   128    59    60    1
   129    60    61    1
   130    61    62    1
