@<TRIPOS>MOLECULE
tmp/5yg3A01.pdb
 129 122 0 0 0
SMALL
GASTEIGER

@<TRIPOS>ATOM
      1  N        136.0740   -8.0910   98.1750 N.3   124  LEU124     -0.1245
      2  CA       135.2620   -9.3150   98.1230 C.3   124  LEU124      0.1561
      3  C        135.0680   -9.9280   99.5020 C.2   124  LEU124      0.2260
      4  O        133.9390  -10.1690   99.9220 O.2   124  LEU124     -0.2867
      5  CB       135.9370  -10.3320   97.1970 C.3   124  LEU124      0.0270
      6  CG       135.3040  -11.7070   96.9900 C.3   124  LEU124      0.0019
      7  CD1      134.2530  -11.6310   95.8890 C.3   124  LEU124      0.0001
      8  CD2      136.3790  -12.7420   96.6600 C.3   124  LEU124      0.0001
      9  N        132.5680   -8.0280  101.5400 N.3   127  GLY127     -0.1210
     10  CA       131.1610   -8.1090  101.1200 C.3   127  GLY127      0.1956
     11  C        130.7970   -7.5560   99.7570 C.2   127  GLY127      0.2612
     12  O        129.6360   -7.5790   99.4010 O.2   127  GLY127     -0.2717
     13  N        131.7720   -7.0640   98.9990 N.am  128  GLY128     -0.1942
     14  CA       131.5370   -6.5810   97.6480 C.3   128  GLY128      0.2014
     15  C        131.6240   -7.6510   96.5480 C.2   128  GLY128      0.2639
     16  O        132.0420   -8.8220   96.7860 O.2   128  GLY128     -0.2714
     17  N        131.2000   -7.2610   95.3420 N.am  129  HIS129     -0.1959
     18  CA       131.2130   -8.1660   94.1980 C.3   129  HIS129      0.1787
     19  C        132.5330   -8.1940   93.4470 C.2   129  HIS129      0.2620
     20  O        133.3390   -7.2670   93.5540 O.2   129  HIS129     -0.2715
     21  CB       130.0530   -7.8670   93.2340 C.3   129  HIS129      0.0785
     22  CG       129.6390   -9.0560   92.4400 C.ar  129  HIS129      0.0821
     23  ND1      129.8070   -9.1420   91.0790 N.ar  129  HIS129     -0.2267
     24  CD2      129.1380  -10.2480   92.8320 C.ar  129  HIS129      0.1154
     25  CE1      129.4130  -10.3280   90.6600 C.ar  129  HIS129      0.1986
     26  NE2      128.9790  -11.0100   91.7030 N.ar  129  HIS129     -0.2212
     27  N        132.7400   -9.2830   92.7040 N.am  130  LEU130     -0.1977
     28  CA       133.9070   -9.4510   91.8090 C.3   130  LEU130      0.1596
     29  C        134.0230   -8.2980   90.8300 C.2   130  LEU130      0.2287
     30  O        135.1060   -7.7520   90.6020 O.2   130  LEU130     -0.2864
     31  CB       133.8030  -10.7630   91.0250 C.3   130  LEU130      0.0297
     32  CG       133.9140  -12.0510   91.8510 C.3   130  LEU130      0.0022
     33  CD1      133.3970  -13.2090   91.0260 C.3   130  LEU130      0.0001
     34  CD2      135.3520  -12.3070   92.2810 C.3   130  LEU130      0.0001
     35  N        137.5400   -6.5330   91.9580 N.3   134  PHE134     -0.1241
     36  CA       138.2390   -7.5400   92.7460 C.3   134  PHE134      0.1605
     37  C        139.4760   -8.0850   92.0570 C.2   134  PHE134      0.2264
     38  O        139.3800   -8.5880   90.9460 O.2   134  PHE134     -0.2867
     39  CB       137.3710   -8.7460   93.1050 C.3   134  PHE134      0.0534
     40  CG       138.1470   -9.7880   93.8350 C.ar  134  PHE134     -0.0203
     41  CD1      138.6120   -9.5350   95.1440 C.ar  134  PHE134     -0.0042
     42  CD2      138.5510  -10.9510   93.1880 C.ar  134  PHE134     -0.0042
     43  CE1      139.4090  -10.4700   95.8060 C.ar  134  PHE134     -0.0003
     44  CE2      139.3470  -11.8860   93.8460 C.ar  134  PHE134     -0.0003
     45  CZ       139.7830  -11.6410   95.1520 C.ar  134  PHE134     -0.0000
     46  N        143.4510  -10.2390   93.3720 N.3   136  ASP136     -0.1239
     47  CA       144.3030  -10.8420   94.3940 C.3   136  ASP136      0.1674
     48  C        145.7480  -10.4470   94.0730 C.2   136  ASP136      0.2266
     49  O        146.0240   -9.8900   93.0010 O.2   136  ASP136     -0.2867
     50  CB       144.1430  -12.3770   94.3700 C.3   136  ASP136      0.1410
     51  CG       144.3150  -13.0260   95.7440 C.2   136  ASP136      0.3668
     52  OD1      145.0180  -12.4640   96.6210 O.co2 136  ASP136     -0.2456
     53  OD2      143.7400  -14.1190   95.9460 O.co2 136  ASP136     -0.2456
     54  N        141.7770  -10.9790   89.0420 N.3   141  VAL141     -0.1245
     55  CA       140.7210  -11.9880   88.9350 C.3   141  VAL141      0.1561
     56  C        139.4890  -11.4870   88.1620 C.2   141  VAL141      0.2260
     57  O        138.8740  -12.2610   87.4310 O.2   141  VAL141     -0.2867
     58  CB       140.3450  -12.5380   90.3420 C.3   141  VAL141      0.0252
     59  CG1      139.1080  -13.4470   90.3110 C.3   141  VAL141      0.0019
     60  CG2      141.5310  -13.2970   90.9370 C.3   141  VAL141      0.0019
     61  N        127.2290   -7.5900   97.7710 N.3   183  THR183     -0.1203
     62  CA       126.8210   -8.9880   97.5930 C.3   183  THR183      0.1994
     63  C        126.4940   -9.6480   98.9320 C.2   183  THR183      0.2618
     64  O        125.4930  -10.3540   99.0300 O.2   183  THR183     -0.2717
     65  CB       127.7680   -9.8480   96.7080 C.3   183  THR183      0.1784
     66  OG1      128.1180  -11.0770   97.3770 O.3   183  THR183     -0.2211
     67  CG2      128.9870   -9.1520   96.3490 C.3   183  THR183      0.0376
     68  N        127.2890   -9.4070   99.9670 N.am  184  SER184     -0.1951
     69  CA       126.9570   -9.9540  101.2760 C.3   184  SER184      0.1924
     70  C        127.1920   -8.9710  102.3770 C.2   184  SER184      0.2314
     71  O        127.9660   -9.2050  103.2670 O.2   184  SER184     -0.2863
     72  CB       127.7200  -11.2530  101.5310 C.3   184  SER184      0.2116
     73  OG       129.0420  -11.0080  101.9400 O.3   184  SER184     -0.2180
     74  N        125.5250  -20.7530  101.7370 N.3   354  ASN354     -0.1225
     75  CA       126.8670  -20.7160  101.2050 C.3   354  ASN354      0.1785
     76  C        127.8680  -20.1720  102.1860 C.2   354  ASN354      0.2597
     77  O        127.5040  -19.4530  103.1150 O.2   354  ASN354     -0.2718
     78  CB       126.9160  -20.0060   99.8440 C.3   354  ASN354      0.1169
     79  CG       126.6240  -18.5190   99.9250 C.2   354  ASN354      0.2627
     80  OD1      125.4810  -18.1060   99.7370 O.2   354  ASN354     -0.2716
     81  ND2      127.6530  -17.7080  100.2020 N.am  354  ASN354     -0.0877
     82  N        129.1230  -20.5790  101.9850 N.am  355  LYS355     -0.1966
     83  CA       130.2320  -20.1320  102.8030 C.3   355  LYS355      0.1728
     84  C        130.5280  -18.6720  102.4910 C.2   355  LYS355      0.2616
     85  O        130.3240  -18.2200  101.3680 O.2   355  LYS355     -0.2715
     86  CB       131.4990  -20.9850  102.6050 C.3   355  LYS355      0.0311
     87  CG       131.8990  -21.2490  101.1590 C.3   355  LYS355      0.0038
     88  CD       133.3430  -21.7080  100.9840 C.3   355  LYS355      0.0206
     89  CE       133.5980  -22.1630   99.5520 C.3   355  LYS355      0.1093
     90  NZ       134.9200  -22.8360   99.4130 N.3   355  LYS355     -0.1314
     91  N        131.0480  -17.9690  103.4910 N.am  356  ASN356     -0.1958
     92  CA       131.2190  -16.5450  103.4420 C.3   356  ASN356      0.1819
     93  C        132.3110  -16.0940  104.4320 C.2   356  ASN356      0.2621
     94  O        132.3080  -16.4870  105.6140 O.2   356  ASN356     -0.2715
     95  CB       129.8600  -15.8780  103.7670 C.3   356  ASN356      0.1195
     96  CG       129.7470  -14.4700  103.2140 C.2   356  ASN356      0.2630
     97  OD1      129.0050  -14.2150  102.2810 O.2   356  ASN356     -0.2716
     98  ND2      130.5080  -13.5630  103.7760 N.am  356  ASN356     -0.0877
     99  N        133.2390  -15.2680  103.9510 N.am  357  THR357     -0.1951
    100  CA       134.3050  -14.7130  104.7870 C.3   357  THR357      0.1897
    101  C        133.7430  -13.7750  105.8610 C.2   357  THR357      0.2313
    102  O        132.5870  -13.3410  105.7850 O.2   357  THR357     -0.2863
    103  CB       135.3140  -13.8900  103.9580 C.3   357  THR357      0.1794
    104  OG1      134.5990  -12.9080  103.2030 O.3   357  THR357     -0.2208
    105  CG2      136.1090  -14.7620  103.0110 C.3   357  THR357      0.0378
    106  N        140.3930  -15.6630  101.4590 N.3   364  CYS364     -0.1235
    107  CA       139.1670  -16.3960  101.0820 C.3   364  CYS364      0.1677
    108  C        139.2490  -17.9410  101.0490 C.2   364  CYS364      0.2270
    109  O        138.2360  -18.5910  100.7640 O.2   364  CYS364     -0.2867
    110  CB       138.6560  -15.9020   99.7170 C.3   364  CYS364      0.0956
    111  SG       137.9810  -14.2260   99.7000 S.3   364  CYS364     -0.0801
    112  N        136.8630  -19.6040  104.5260 N.3   367  PRO367     -0.2116
    113  CA       136.0850  -18.5070  105.1350 C.3   367  PRO367      0.1372
    114  C        135.3350  -18.9350  106.4000 C.2   367  PRO367      0.2244
    115  O        134.7660  -20.0320  106.4400 O.2   367  PRO367     -0.2868
    116  CB       135.0830  -18.1380  104.0440 C.3   367  PRO367      0.0268
    117  CG       134.9590  -19.3410  103.2130 C.3   367  PRO367      0.0207
    118  CD       136.3210  -19.9710  103.2070 C.3   367  PRO367      0.0892
    119  N        126.5280  -17.3590  104.7300 N.3   371  ARG371     -0.1245
    120  CA       125.4970  -16.4060  104.4440 C.3   371  ARG371      0.1563
    121  C        124.1430  -17.0690  104.2430 C.2   371  ARG371      0.2260
    122  O        124.0390  -18.0700  103.5410 O.2   371  ARG371     -0.2867
    123  CB       125.8550  -15.6430  103.1810 C.3   371  ARG371      0.0307
    124  CG       124.9410  -14.4610  102.8890 C.3   371  ARG371      0.0489
    125  CD       125.2740  -13.8770  101.5400 C.3   371  ARG371      0.2205
    126  NE       125.0570  -14.8150  100.4480 N.pl3 371  ARG371     -0.0865
    127  CZ       125.2260  -14.5190   99.1650 C.cat 371  ARG371      0.5346
    128  NH1      125.6120  -13.3000   98.7990 N.pl3 371  ARG371      0.1354
    129  NH2      125.0170  -15.4500   98.2340 N.pl3 371  ARG371      0.1354
@<TRIPOS>BOND
     1    57    56    2
     2    56    55    1
     3    55    54    1
     4    55    58    1
     5    59    58    1
     6    58    60    1
     7    30    29    2
     8    25    23   ar
     9    25    26   ar
    10    29    28    1
    11    38    37    2
    12    31    28    1
    13    31    32    1
    14    33    32    1
    15    23    22   ar
    16    26    24   ar
    17    28    27    1
    18    32    34    1
    19    35    36    1
    20    37    36    1
    21    22    24   ar
    22    22    21    1
    23    27    19   am
    24    36    39    1
    25    49    48    2
    26    39    40    1
    27    42    40   ar
    28    42    44   ar
    29    21    18    1
    30    46    47    1
    31    19    20    2
    32    19    18    1
    33    40    41   ar
    34    44    45   ar
    35    48    47    1
    36    18    17    1
    37    50    47    1
    38    50    51    1
    39    41    43   ar
    40    45    43   ar
    41    17    15   am
    42    51    53   ar
    43    51    52   ar
    44     7     6    1
    45    67    65    1
    46    15    16    2
    47    15    14    1
    48     8     6    1
    49    65    66    1
    50    65    62    1
    51     6     5    1
    52     5     2    1
    53    62    61    1
    54    62    63    1
    55    14    13    1
    56     2     1    1
    57     2     3    1
    58   129   127    1
    59   128   127    1
    60    63    64    2
    61    63    68   am
    62    13    11   am
    63   127   126    2
    64    12    11    2
    65    90    89    1
    66     3     4    2
    67    89    88    1
    68   111   110    1
    69   110   107    1
    70    80    79    2
    71    11    10    1
    72    78    79    1
    73    78    75    1
    74    79    81   am
    75    68    69    1
    76   126   125    1
    77   109   108    2
    78    88    87    1
    79   108   107    1
    80   107   106    1
    81    10     9    1
    82    87    86    1
    83    75    74    1
    84    75    76    1
    85    69    72    1
    86    69    70    1
    87    85    84    2
    88    72    73    1
    89   125   124    1
    90    82    76   am
    91    82    83    1
    92    76    77    2
    93    97    96    2
    94    70    71    2
    95    84    83    1
    96    84    91   am
    97    86    83    1
    98   124   123    1
    99   105   103    1
   100   123   120    1
   101   104   103    1
   102   118   117    1
   103   118   112    1
   104   117   116    1
   105    96    95    1
   106    96    98   am
   107    92    91    1
   108    92    95    1
   109    92    93    1
   110   122   121    2
   111    99    93   am
   112    99   100    1
   113   103   100    1
   114   116   113    1
   115   121   120    1
   116    93    94    2
   117   120   119    1
   118   112   113    1
   119   100   101    1
   120   113   114    1
   121   102   101    2
   122   114   115    2
