@<TRIPOS>MOLECULE
tmp/5yg4B03.pdb
 136 129 0 0 0
SMALL
GASTEIGER

@<TRIPOS>ATOM
      1  N         83.2270   24.3540   58.7760 N.3   124  LEU124     -0.1245
      2  CA        81.7750   24.1900   58.7450 C.3   124  LEU124      0.1561
      3  C         81.2010   24.2370   57.3460 C.2   124  LEU124      0.2260
      4  O         80.4930   23.3230   56.9440 O.2   124  LEU124     -0.2867
      5  CB        81.0700   25.2270   59.6000 C.3   124  LEU124      0.0270
      6  CG        79.5920   24.8370   59.8050 C.3   124  LEU124      0.0019
      7  CD1       79.3190   24.4550   61.2540 C.3   124  LEU124      0.0001
      8  CD2       78.6620   25.9470   59.3580 C.3   124  LEU124      0.0001
      9  N         81.2980   21.1020   55.2390 N.3   127  GLY127     -0.1210
     10  CA        80.6520   19.8990   55.7710 C.3   127  GLY127      0.1956
     11  C         80.9870   19.5510   57.2210 C.2   127  GLY127      0.2612
     12  O         80.3480   18.6820   57.7980 O.2   127  GLY127     -0.2717
     13  N         81.9910   20.2030   57.8130 N.am  128  GLY128     -0.1942
     14  CA        82.3690   19.9540   59.2180 C.3   128  GLY128      0.2014
     15  C         81.3480   20.4240   60.2460 C.2   128  GLY128      0.2639
     16  O         80.5250   21.3190   59.9610 O.2   128  GLY128     -0.2714
     17  N         81.3890   19.8140   61.4340 N.am  129  HIS129     -0.1959
     18  CA        80.5300   20.2140   62.5570 C.3   129  HIS129      0.1787
     19  C         81.1460   21.3520   63.3290 C.2   129  HIS129      0.2620
     20  O         82.3440   21.6090   63.2200 O.2   129  HIS129     -0.2715
     21  CB        80.2410   19.0270   63.5030 C.3   129  HIS129      0.0785
     22  CG        79.0480   19.2490   64.3790 C.ar  129  HIS129      0.0821
     23  ND1       79.1330   19.3440   65.7530 N.ar  129  HIS129     -0.2267
     24  CD2       77.7530   19.4830   64.0650 C.ar  129  HIS129      0.1154
     25  CE1       77.9360   19.5960   66.2450 C.ar  129  HIS129      0.1986
     26  NE2       77.0800   19.6800   65.2400 N.ar  129  HIS129     -0.2212
     27  N         80.3120   22.0410   64.1010 N.am  130  LEU130     -0.1977
     28  CA        80.7680   23.1070   64.9930 C.3   130  LEU130      0.1596
     29  C         81.8040   22.6170   65.9820 C.2   130  LEU130      0.2287
     30  O         82.7690   23.3160   66.2570 O.2   130  LEU130     -0.2864
     31  CB        79.5920   23.7140   65.7610 C.3   130  LEU130      0.0297
     32  CG        78.6390   24.5860   64.9460 C.3   130  LEU130      0.0022
     33  CD1       77.3860   24.8760   65.7730 C.3   130  LEU130      0.0001
     34  CD2       79.2830   25.9120   64.5220 C.3   130  LEU130      0.0001
     35  N         85.1320   24.9170   65.0720 N.3   134  PHE134     -0.1241
     36  CA        84.6790   26.0190   64.2310 C.3   134  PHE134      0.1605
     37  C         84.8150   27.4020   64.8320 C.2   134  PHE134      0.2264
     38  O         84.3330   27.6580   65.9390 O.2   134  PHE134     -0.2867
     39  CB        83.2380   25.9000   63.7530 C.3   134  PHE134      0.0534
     40  CG        82.8890   26.9620   62.7360 C.ar  134  PHE134     -0.0203
     41  CD1       83.6020   27.0460   61.5410 C.ar  134  PHE134     -0.0042
     42  CD2       81.9370   27.9300   63.0090 C.ar  134  PHE134     -0.0042
     43  CE1       83.3270   28.0290   60.6180 C.ar  134  PHE134     -0.0003
     44  CE2       81.6680   28.9230   62.0910 C.ar  134  PHE134     -0.0003
     45  CZ        82.3540   28.9710   60.8950 C.ar  134  PHE134     -0.0000
     46  N         85.1260   31.7960   63.0820 N.3   136  ASP136     -0.1239
     47  CA        85.2420   32.7080   61.9450 C.3   136  ASP136      0.1674
     48  C         86.0350   33.9490   62.3830 C.2   136  ASP136      0.2266
     49  O         86.4740   34.0190   63.5320 O.2   136  ASP136     -0.2867
     50  CB        83.8600   33.0410   61.3410 C.3   136  ASP136      0.1410
     51  CG        82.8830   33.7170   62.3280 C.2   136  ASP136      0.3668
     52  OD1       83.2970   34.3480   63.3260 O.co2 136  ASP136     -0.2456
     53  OD2       81.6580   33.6360   62.0670 O.co2 136  ASP136     -0.2456
     54  N         83.3320   30.7060   67.5460 N.3   141  VAL141     -0.1245
     55  CA        81.9280   30.2890   67.6520 C.3   141  VAL141      0.1561
     56  C         81.7350   29.0650   68.5580 C.2   141  VAL141      0.2260
     57  O         80.8430   29.0600   69.4230 O.2   141  VAL141     -0.2867
     58  CB        81.3230   30.0410   66.2360 C.3   141  VAL141      0.0252
     59  CG1       79.9530   29.3800   66.2870 C.3   141  VAL141      0.0019
     60  CG2       81.2260   31.3670   65.4770 C.3   141  VAL141      0.0019
     61  N         79.1810   16.5860   59.1410 N.3   183  THR183     -0.1203
     62  CA        77.7320   16.8590   59.2790 C.3   183  THR183      0.1994
     63  C         76.9730   16.9630   57.9490 C.2   183  THR183      0.2618
     64  O         75.8460   16.5230   57.8890 O.2   183  THR183     -0.2717
     65  CB        77.3690   18.0370   60.2180 C.3   183  THR183      0.1784
     66  OG1       76.5360   18.9820   59.5260 O.3   183  THR183     -0.2211
     67  CG2       78.5300   18.6940   60.6990 C.3   183  THR183      0.0376
     68  N         77.6060   17.5070   56.9090 N.am  184  SER184     -0.1951
     69  CA        77.0280   17.6290   55.5710 C.3   184  SER184      0.1924
     70  C         78.0100   17.2330   54.4790 C.2   184  SER184      0.2314
     71  O         78.2680   17.9980   53.5620 O.2   184  SER184     -0.2863
     72  CB        76.5750   19.0720   55.3260 C.3   184  SER184      0.2116
     73  OG        75.8740   19.5600   56.4390 O.3   184  SER184     -0.2180
     74  N         66.9760   21.6760   55.4540 N.3   354  ASN354     -0.1225
     75  CA        67.7180   22.7990   55.9990 C.3   354  ASN354      0.1785
     76  C         68.6290   23.4310   54.9750 C.2   354  ASN354      0.2597
     77  O         69.1670   22.7460   54.1050 O.2   354  ASN354     -0.2718
     78  CB        68.4680   22.4120   57.2880 C.3   354  ASN354      0.1169
     79  CG        69.5600   21.3880   57.0590 C.2   354  ASN354      0.2627
     80  OD1       69.3210   20.1680   57.1300 O.2   354  ASN354     -0.2716
     81  ND2       70.7580   21.8670   56.7430 N.am  354  ASN354     -0.0877
     82  N         68.7740   24.7500   55.0820 N.am  355  LYS355     -0.1966
     83  CA        69.7720   25.5000   54.3180 C.3   355  LYS355      0.1728
     84  C         71.1860   25.0160   54.6390 C.2   355  LYS355      0.2616
     85  O         71.4470   24.5330   55.7200 O.2   355  LYS355     -0.2715
     86  CB        69.6500   27.0080   54.5550 C.3   355  LYS355      0.0311
     87  CG        69.6280   27.4620   56.0180 C.3   355  LYS355      0.0038
     88  CD        70.3850   28.7650   56.2270 C.3   355  LYS355      0.0206
     89  CE        70.1910   29.3240   57.6270 C.3   355  LYS355      0.1093
     90  NZ        68.9870   30.2020   57.7100 N.3   355  LYS355     -0.1314
     91  N         72.0830   25.1200   53.6750 N.am  356  ASN356     -0.1958
     92  CA        73.3960   24.5290   53.8090 C.3   356  ASN356      0.1819
     93  C         74.3870   25.2050   52.8800 C.2   356  ASN356      0.2621
     94  O         74.0930   25.4570   51.7080 O.2   356  ASN356     -0.2715
     95  CB        73.3530   23.0160   53.5050 C.3   356  ASN356      0.1195
     96  CG        74.5570   22.2800   54.0780 C.2   356  ASN356      0.2630
     97  OD1       74.5100   21.7550   55.1830 O.2   356  ASN356     -0.2716
     98  ND2       75.6600   22.3080   53.3600 N.am  356  ASN356     -0.0877
     99  N         75.5840   25.4450   53.3970 N.am  357  THR357     -0.1951
    100  CA        76.6500   26.0540   52.6010 C.3   357  THR357      0.1897
    101  C         77.1660   25.0910   51.5180 C.2   357  THR357      0.2313
    102  O         77.0590   23.8660   51.6620 O.2   357  THR357     -0.2863
    103  CB        77.8320   26.4700   53.4900 C.3   357  THR357      0.1794
    104  OG1       78.3480   25.3100   54.1450 O.3   357  THR357     -0.2208
    105  CG2       77.3970   27.5010   54.5520 C.3   357  THR357      0.0378
    106  N         78.5110   31.8440   56.1480 N.3   364  CYS364     -0.1221
    107  CA        77.4080   30.9340   56.5220 C.3   364  CYS364      0.1808
    108  C         75.9760   31.5070   56.4980 C.2   364  CYS364      0.2601
    109  O         75.0200   30.7310   56.4410 O.2   364  CYS364     -0.2717
    110  CB        77.6450   30.3430   57.9130 C.3   364  CYS364      0.0970
    111  SG        78.9980   29.1630   58.0410 S.3   364  CYS364     -0.0800
    112  N         75.8220   32.8270   56.6190 N.am  365  VAL365     -0.1979
    113  CA        74.5210   33.4910   56.3850 C.3   365  VAL365      0.1595
    114  C         74.3510   33.6560   54.8770 C.2   365  VAL365      0.2287
    115  O         75.2930   34.0530   54.1760 O.2   365  VAL365     -0.2864
    116  CB        74.4030   34.8620   57.1200 C.3   365  VAL365      0.0276
    117  CG1       73.4000   35.8080   56.4490 C.3   365  VAL365      0.0022
    118  CG2       74.0220   34.6410   58.5840 C.3   365  VAL365      0.0022
    119  N         73.4990   30.9150   52.7060 N.3   367  PRO367     -0.2116
    120  CA        74.1350   29.8120   51.9610 C.3   367  PRO367      0.1372
    121  C         73.3680   29.3910   50.7140 C.2   367  PRO367      0.2244
    122  O         72.1420   29.5880   50.6250 O.2   367  PRO367     -0.2868
    123  CB        74.1810   28.6720   52.9640 C.3   367  PRO367      0.0268
    124  CG        73.1170   28.9610   53.9300 C.3   367  PRO367      0.0207
    125  CD        72.9320   30.4510   53.9770 C.3   367  PRO367      0.0892
    126  N         70.3650   20.8710   52.2860 N.3   371  ARG371     -0.1245
    127  CA        70.6900   19.5130   52.5350 C.3   371  ARG371      0.1563
    128  C         69.4130   18.7100   52.7110 C.2   371  ARG371      0.2260
    129  O         68.4640   19.1340   53.3900 O.2   371  ARG371     -0.2867
    130  CB        71.5440   19.4350   53.7820 C.3   371  ARG371      0.0307
    131  CG        72.1110   18.0630   54.0600 C.3   371  ARG371      0.0489
    132  CD        72.7530   18.0620   55.4380 C.3   371  ARG371      0.2205
    133  NE        71.7860   18.2450   56.5370 N.pl3 371  ARG371     -0.0865
    134  CZ        72.1090   18.2230   57.8190 C.cat 371  ARG371      0.5346
    135  NH1       73.3790   18.0290   58.1830 N.pl3 371  ARG371      0.1354
    136  NH2       71.1770   18.3910   58.7470 N.pl3 371  ARG371      0.1354
@<TRIPOS>BOND
     1   122   121    2
     2   121   120    1
     3   101   102    2
     4   101   100    1
     5    94    93    2
     6   120   119    1
     7   120   123    1
     8   126   127    1
     9   127   128    1
    10   127   130    1
    11   100    99    1
    12   100   103    1
    13   119   125    1
    14   128   129    2
    15    93    99   am
    16    93    92    1
    17   123   124    1
    18    98    96   am
    19   103   104    1
    20   103   105    1
    21    95    92    1
    22    95    96    1
    23    71    70    2
    24    91    92    1
    25    91    84   am
    26   130   131    1
    27   124   125    1
    28   131   132    1
    29    96    97    2
    30    77    76    2
    31   115   114    2
    32    83    86    1
    33    83    84    1
    34    83    82    1
    35    70    69    1
    36    86    87    1
    37    84    85    2
    38   114   113    1
    39    76    82   am
    40    76    75    1
    41     9    10    1
    42    72    69    1
    43    72    73    1
    44   132   133    1
    45    74    75    1
    46    69    68    1
    47    10    11    1
    48    75    78    1
    49    87    88    1
    50   106   107    1
    51    88    89    1
    52   113   112    1
    53   113   116    1
    54   109   108    2
    55   117   116    1
    56   108   107    1
    57   108   112   am
    58   107   110    1
    59   133   134    2
    60    81    79   am
    61    68    63   am
    62     4     3    2
    63    79    80    2
    64    79    78    1
    65   116   118    1
    66    11    12    2
    67    11    13   am
    68     3     2    1
    69    89    90    1
    70    13    14    1
    71   134   135    1
    72   134   136    1
    73    64    63    2
    74   110   111    1
    75    63    62    1
    76     2     1    1
    77     2     5    1
    78    61    62    1
    79    14    15    1
    80    62    65    1
    81     8     6    1
    82    66    65    1
    83     5     6    1
    84     6     7    1
    85    16    15    2
    86    65    67    1
    87    15    17   am
    88    43    45   ar
    89    43    41   ar
    90    45    44   ar
    91    50    47    1
    92    50    51    1
    93    17    18    1
    94    41    40   ar
    95    47    48    1
    96    47    46    1
    97    53    51   ar
    98    44    42   ar
    99    51    52   ar
   100    48    49    2
   101    18    19    1
   102    18    21    1
   103    40    42   ar
   104    40    39    1
   105    20    19    2
   106    19    27   am
   107    21    22    1
   108    39    36    1
   109    24    22   ar
   110    24    26   ar
   111    27    28    1
   112    36    37    1
   113    36    35    1
   114    22    23   ar
   115    34    32    1
   116    37    38    2
   117    32    31    1
   118    32    33    1
   119    28    31    1
   120    28    29    1
   121    26    25   ar
   122    60    58    1
   123    23    25   ar
   124    29    30    2
   125    58    59    1
   126    58    55    1
   127    54    55    1
   128    55    56    1
   129    56    57    2
