@<TRIPOS>MOLECULE
tmp/5yg7B02.pdb
 97 90 0 0 0
SMALL
GASTEIGER

@<TRIPOS>ATOM
      1  N         69.7890   73.5180  307.8140 N.3   205  THR205     -0.1218
      2  CA        70.1650   72.8500  306.5910 C.3   205  THR205      0.1862
      3  C         70.7000   73.8000  305.5420 C.2   205  THR205      0.2287
      4  O         70.5400   75.0250  305.6340 O.2   205  THR205     -0.2866
      5  CB        68.9640   72.1120  306.0170 C.3   205  THR205      0.1770
      6  OG1       68.0350   73.0700  305.4830 O.3   205  THR205     -0.2211
      7  CG2       68.3100   71.2970  307.0990 C.3   205  THR205      0.0375
      8  N         69.7040   74.6720  302.5850 N.3   207  ASN207     -0.1240
      9  CA        68.7690   75.6410  301.9800 C.3   207  ASN207      0.1653
     10  C         68.1010   76.5360  303.0060 C.2   207  ASN207      0.2266
     11  O         67.3170   77.3850  302.6220 O.2   207  ASN207     -0.2867
     12  CB        67.7190   74.9370  301.1570 C.3   207  ASN207      0.1155
     13  CG        66.7450   74.2190  302.0150 C.2   207  ASN207      0.2627
     14  OD1       67.1040   73.2850  302.7360 O.2   207  ASN207     -0.2716
     15  ND2       65.5230   74.6910  302.0010 N.am  207  ASN207     -0.0877
     16  N         66.4370   75.5960  306.1190 N.3   209  ALA209     -0.1245
     17  CA        65.3210   75.1170  306.9250 C.3   209  ALA209      0.1562
     18  C         65.8580   74.8960  308.3490 C.2   209  ALA209      0.2260
     19  O         67.0100   74.6270  308.5360 O.2   209  ALA209     -0.2867
     20  CB        64.7010   73.8180  306.3480 C.3   209  ALA209      0.0290
     21  N         65.2850   72.7750  311.8310 N.3   211  ILE211     -0.1245
     22  CA        64.7280   71.6350  312.4870 C.3   211  ILE211      0.1561
     23  C         64.8630   71.9870  313.9410 C.2   211  ILE211      0.2260
     24  O         65.9570   72.2900  314.4060 O.2   211  ILE211     -0.2867
     25  CB        65.5060   70.3800  312.1250 C.3   211  ILE211      0.0252
     26  CG1       65.3960   70.1880  310.5970 C.3   211  ILE211      0.0019
     27  CG2       64.9610   69.1670  312.8120 C.3   211  ILE211      0.0019
     28  CD1       66.1830   69.0340  310.0180 C.3   211  ILE211      0.0001
     29  N         73.9090   68.0470  304.8040 N.3   243  THR243     -0.1218
     30  CA        72.8380   68.5430  303.9370 C.3   243  THR243      0.1862
     31  C         73.3360   69.2220  302.6900 C.2   243  THR243      0.2287
     32  O         72.5910   69.2010  301.7060 O.2   243  THR243     -0.2866
     33  CB        71.7690   69.4080  304.6560 C.3   243  THR243      0.1770
     34  OG1       72.2910   70.7080  304.9780 O.3   243  THR243     -0.2211
     35  CG2       71.2320   68.6550  305.9010 C.3   243  THR243      0.0375
     36  N         71.8070   65.2330  302.0320 N.3   247  GLN247     -0.1231
     37  CA        71.3540   64.4150  303.1350 C.3   247  GLN247      0.1698
     38  C         70.0910   65.0220  303.7170 C.2   247  GLN247      0.2592
     39  O         70.0430   66.2630  303.9560 O.2   247  GLN247     -0.2718
     40  CB        72.4290   64.3610  304.2340 C.3   247  GLN247      0.0381
     41  CG        72.1640   63.4230  305.4080 C.3   247  GLN247      0.0905
     42  CD        72.2650   61.9670  305.0180 C.2   247  GLN247      0.2608
     43  OE1       73.2380   61.5270  304.3840 O.2   247  GLN247     -0.2717
     44  NE2       71.2580   61.1970  305.4030 N.am  247  GLN247     -0.0878
     45  N         69.0840   64.1470  303.9060 N.am  248  LEU248     -0.1966
     46  CA        67.9040   64.4740  304.7010 C.3   248  LEU248      0.1728
     47  C         68.1850   64.1870  306.1340 C.2   248  LEU248      0.2616
     48  O         68.7770   63.1490  306.4350 O.2   248  LEU248     -0.2715
     49  CB        66.7260   63.6130  304.3210 C.3   248  LEU248      0.0311
     50  CG        66.1050   63.9670  303.0010 C.3   248  LEU248      0.0022
     51  CD1       64.9710   63.0020  302.7440 C.3   248  LEU248      0.0001
     52  CD2       65.6100   65.4050  302.9370 C.3   248  LEU248      0.0001
     53  N         67.7020   65.0710  307.0090 N.am  249  VAL249     -0.1977
     54  CA        67.8770   64.9350  308.4520 C.3   249  VAL249      0.1596
     55  C         66.8120   64.0430  309.0950 C.2   249  VAL249      0.2287
     56  O         65.6310   64.3280  309.0220 O.2   249  VAL249     -0.2864
     57  CB        67.8240   66.2880  309.1720 C.3   249  VAL249      0.0276
     58  CG1       68.2020   66.0830  310.6500 C.3   249  VAL249      0.0022
     59  CG2       68.7370   67.3200  308.4970 C.3   249  VAL249      0.0022
     60  N         64.2990   62.7450  311.5870 N.3   251  ILE251     -0.1245
     61  CA        63.4570   63.2310  312.6460 C.3   251  ILE251      0.1561
     62  C         63.2470   62.1170  313.6850 C.2   251  ILE251      0.2260
     63  O         62.7340   61.0400  313.3710 O.2   251  ILE251     -0.2867
     64  CB        62.1030   63.6570  312.0840 C.3   251  ILE251      0.0252
     65  CG1       62.2880   64.7400  311.0190 C.3   251  ILE251      0.0019
     66  CG2       61.1690   64.0950  313.2150 C.3   251  ILE251      0.0019
     67  CD1       62.9360   66.0110  311.4710 C.3   251  ILE251      0.0001
     68  N         60.2610   70.4370  310.7290 N.3   281  VAL281     -0.1245
     69  CA        61.0380   71.2730  309.8370 C.3   281  VAL281      0.1561
     70  C         60.2560   72.5220  309.5270 C.2   281  VAL281      0.2260
     71  O         59.1220   72.4430  309.0690 O.2   281  VAL281     -0.2867
     72  CB        61.3100   70.5230  308.5260 C.3   281  VAL281      0.0252
     73  CG1       62.2960   71.2770  307.6560 C.3   281  VAL281      0.0019
     74  CG2       61.8400   69.1280  308.8450 C.3   281  VAL281      0.0019
     75  N         60.2450   75.7250  307.1660 N.3   283  PRO283     -0.2103
     76  CA        60.8870   76.2060  305.9250 C.3   283  PRO283      0.1489
     77  C         61.4290   77.6010  305.9990 C.2   283  PRO283      0.2418
     78  O         60.9210   78.4100  306.7380 O.2   283  PRO283     -0.2734
     79  CB        59.7620   76.1570  304.9080 C.3   283  PRO283      0.0282
     80  CG        58.4960   76.1910  305.7120 C.3   283  PRO283      0.0208
     81  CD        58.8060   75.4570  306.9780 C.3   283  PRO283      0.0893
     82  N         62.4480   77.8900  305.2030 N.am  284  PRO284     -0.2718
     83  CA        63.1840   79.1390  305.3350 C.3   284  PRO284      0.1535
     84  C         62.3460   80.4000  305.0700 C.2   284  PRO284      0.2598
     85  O         62.6310   81.4620  305.6300 O.2   284  PRO284     -0.2715
     86  CB        64.2810   79.0010  304.2710 C.3   284  PRO284      0.0310
     87  CG        63.6910   78.1080  303.2280 C.3   284  PRO284      0.0237
     88  CD        62.8210   77.1470  303.9830 C.3   284  PRO284      0.0939
     89  N         61.3460   80.2850  304.2040 N.am  285  GLU285     -0.1978
     90  CA        60.3910   81.3900  303.9470 C.3   285  GLU285      0.1602
     91  C         59.6700   81.9070  305.1960 C.2   285  GLU285      0.2287
     92  O         59.2130   83.0350  305.1860 O.2   285  GLU285     -0.2864
     93  CB        59.3260   81.0020  302.9110 C.3   285  GLU285      0.0415
     94  CG        59.0980   79.5010  302.7160 C.3   285  GLU285      0.1163
     95  CD        57.7230   79.1820  302.1090 C.2   285  GLU285      0.3649
     96  OE1       57.5820   77.9800  301.7390 O.co2 285  GLU285     -0.2457
     97  OE2       56.8000   80.0930  302.0080 O.co2 285  GLU285     -0.2457
@<TRIPOS>BOND
     1    12     9    1
     2    12    13    1
     3    32    31    2
     4    96    95   ar
     5     9     8    1
     6     9    10    1
     7    15    13   am
     8    97    95   ar
     9    13    14    2
    10    36    37    1
    11    95    94    1
    12    11    10    2
    13    31    30    1
    14    94    93    1
    15    51    50    1
    16    93    90    1
    17    52    50    1
    18    50    49    1
    19    37    38    1
    20    37    40    1
    21    87    88    1
    22    87    86    1
    23    38    45   am
    24    38    39    2
    25    45    46    1
    26    30    33    1
    27    30    29    1
    28    90    89    1
    29    90    91    1
    30    88    82    1
    31    89    84   am
    32    40    41    1
    33    86    83    1
    34    49    46    1
    35    43    42    2
    36    33    34    1
    37    33    35    1
    38    46    47    1
    39    79    80    1
    40    79    76    1
    41    42    44   am
    42    42    41    1
    43    84    83    1
    44    84    85    2
    45    92    91    2
    46    82    83    1
    47    82    77   am
    48     6     5    1
    49     3     4    2
    50     3     2    1
    51    80    81    1
    52    76    77    1
    53    76    75    1
    54    77    78    2
    55     5     2    1
    56     5     7    1
    57    16    17    1
    58    47    48    2
    59    47    53   am
    60    20    17    1
    61     2     1    1
    62    17    18    1
    63    81    75    1
    64    53    54    1
    65    73    72    1
    66    18    19    2
    67    54    55    1
    68    54    57    1
    69    59    57    1
    70    72    74    1
    71    72    69    1
    72    56    55    2
    73    71    70    2
    74    57    58    1
    75    70    69    1
    76    69    68    1
    77    28    26    1
    78    26    25    1
    79    65    67    1
    80    65    64    1
    81    60    61    1
    82    21    22    1
    83    64    61    1
    84    64    66    1
    85    25    22    1
    86    25    27    1
    87    22    23    1
    88    61    62    1
    89    63    62    2
    90    23    24    2
