@<TRIPOS>MOLECULE
tmp/5yg9B03.pdb
 104 103 0 0 0
SMALL
GASTEIGER

@<TRIPOS>ATOM
      1  N        -10.1880   85.5960   64.9200 N.3   255  ASP255     -0.1225
      2  CA        -9.2770   86.5200   65.5620 C.3   255  ASP255      0.1790
      3  C         -7.8450   85.8990   65.6850 C.2   255  ASP255      0.2440
      4  O         -7.7120   84.7340   66.1050 O.2   255  ASP255     -0.2733
      5  CB        -9.8500   86.8780   66.9390 C.3   255  ASP255      0.1423
      6  CG        -9.4030   88.2350   67.4400 C.2   255  ASP255      0.3668
      7  OD1       -8.2120   88.6230   67.2350 O.co2 255  ASP255     -0.2456
      8  OD2      -10.2870   88.8800   68.0770 O.co2 255  ASP255     -0.2456
      9  N         -6.7860   86.6570   65.3090 N.am  256  PRO256     -0.2718
     10  CA        -5.4230   86.1540   65.5900 C.3   256  PRO256      0.1535
     11  C         -5.0730   85.9270   67.0670 C.2   256  PRO256      0.2599
     12  O         -4.2230   85.0980   67.3630 O.2   256  PRO256     -0.2715
     13  CB        -4.5040   87.1970   64.9460 C.3   256  PRO256      0.0310
     14  CG        -5.3540   88.3620   64.6240 C.3   256  PRO256      0.0237
     15  CD        -6.7490   87.8440   64.4360 C.3   256  PRO256      0.0939
     16  N         -5.7360   86.5980   67.9970 N.am  257  THR257     -0.1951
     17  CA        -5.4090   86.4260   69.4310 C.3   257  THR257      0.1897
     18  C         -5.7020   85.0480   69.9630 C.2   257  THR257      0.2313
     19  O         -5.1350   84.6720   70.9680 O.2   257  THR257     -0.2863
     20  CB        -6.0850   87.4800   70.3250 C.3   257  THR257      0.1794
     21  OG1       -7.5070   87.5060   70.0990 O.3   257  THR257     -0.2208
     22  CG2       -5.5140   88.8240   70.0090 C.3   257  THR257      0.0378
     23  N         -3.1940   88.0100   73.0770 N.3   262  GLU262     -0.1245
     24  CA        -3.0950   89.4880   73.0860 C.3   262  GLU262      0.1567
     25  C         -1.8290   90.0860   73.7510 C.2   262  GLU262      0.2260
     26  O         -1.1110   90.8860   73.1480 O.2   262  GLU262     -0.2867
     27  CB        -4.3960   90.0140   73.7560 C.3   262  GLU262      0.0388
     28  CG        -4.4480   91.4560   74.2660 C.3   262  GLU262      0.1160
     29  CD        -4.7960   92.4480   73.1850 C.2   262  GLU262      0.3649
     30  OE1       -5.9760   92.4260   72.7540 O.co2 262  GLU262     -0.2457
     31  OE2       -3.8990   93.2460   72.8000 O.co2 262  GLU262     -0.2457
     32  N          1.1060   89.1250   71.5420 N.3   265  LEU265     -0.1231
     33  CA         0.9630   89.5310   70.1500 C.3   265  LEU265      0.1693
     34  C          1.2890   91.0220   69.9870 C.2   265  LEU265      0.2591
     35  O          1.8800   91.4280   68.9890 O.2   265  LEU265     -0.2718
     36  CB        -0.4400   89.1820   69.6240 C.3   265  LEU265      0.0284
     37  CG        -0.7040   89.3420   68.1110 C.3   265  LEU265      0.0019
     38  CD1        0.2600   88.5390   67.2590 C.3   265  LEU265      0.0001
     39  CD2       -2.1460   88.9950   67.7360 C.3   265  LEU265      0.0001
     40  N          0.9550   91.8330   70.9790 N.am  266  ARG266     -0.1980
     41  CA         1.2270   93.2710   70.8780 C.3   266  ARG266      0.1597
     42  C          2.6920   93.6000   71.0480 C.2   266  ARG266      0.2287
     43  O          3.0890   94.6880   70.6570 O.2   266  ARG266     -0.2864
     44  CB         0.3500   94.1210   71.8240 C.3   266  ARG266      0.0334
     45  CG         0.6180   94.0140   73.3310 C.3   266  ARG266      0.0492
     46  CD        -0.3120   94.9580   74.1080 C.3   266  ARG266      0.2205
     47  NE        -0.2060   94.7930   75.5700 N.pl3 266  ARG266     -0.0865
     48  CZ        -1.1440   94.2910   76.3980 C.cat 266  ARG266      0.5346
     49  NH1       -0.8750   94.2010   77.7020 N.pl3 266  ARG266      0.1354
     50  NH2       -2.3420   93.8750   75.9710 N.pl3 266  ARG266      0.1354
     51  N          4.8820   91.9610   69.2820 N.3   268  TRP268     -0.1228
     52  CA         5.4850   91.6020   67.9650 C.3   268  TRP268      0.1722
     53  C          5.4940   92.7250   66.9640 C.2   268  TRP268      0.2437
     54  O          4.6640   93.6050   67.0820 O.2   268  TRP268     -0.2733
     55  CB         4.7580   90.4400   67.3040 C.3   268  TRP268      0.0563
     56  CG         4.9630   89.1480   67.9370 C.ar  268  TRP268      0.0003
     57  CD1        5.4940   88.9060   69.1500 C.ar  268  TRP268      0.0946
     58  CD2        4.5830   87.9000   67.4070 C.ar  268  TRP268      0.0152
     59  NE1        5.4750   87.5660   69.4190 N.ar  268  TRP268     -0.2442
     60  CE2        4.9130   86.9230   68.3590 C.ar  268  TRP268      0.0810
     61  CE3        4.0060   87.5020   66.2110 C.ar  268  TRP268      0.0012
     62  CZ2        4.6990   85.5720   68.1500 C.ar  268  TRP268      0.0191
     63  CZ3        3.7660   86.1340   66.0110 C.ar  268  TRP268      0.0001
     64  CH2        4.1170   85.1980   66.9730 C.ar  268  TRP268      0.0015
     65  N          6.4240   92.6890   65.9600 N.am  269  PRO269     -0.2718
     66  CA         6.4920   93.7530   64.9430 C.3   269  PRO269      0.1535
     67  C          5.2900   93.7380   64.0160 C.2   269  PRO269      0.2598
     68  O          4.7040   92.6640   63.8110 O.2   269  PRO269     -0.2715
     69  CB         7.7310   93.4080   64.1340 C.3   269  PRO269      0.0310
     70  CG         8.4840   92.4080   64.9230 C.3   269  PRO269      0.0237
     71  CD         7.4810   91.6790   65.7360 C.3   269  PRO269      0.0939
     72  N          4.9580   94.9170   63.4630 N.am  270  LYS270     -0.1978
     73  CA         3.9650   95.0760   62.4010 C.3   270  LYS270      0.1596
     74  C          4.0860   94.0900   61.2430 C.2   270  LYS270      0.2287
     75  O          3.0950   93.7690   60.6220 O.2   270  LYS270     -0.2864
     76  CB         4.0640   96.4680   61.7540 C.3   270  LYS270      0.0298
     77  CG         3.5830   97.6790   62.5650 C.3   270  LYS270      0.0038
     78  CD         3.3190   98.8960   61.6400 C.3   270  LYS270      0.0206
     79  CE         4.0090  100.1910   62.0900 C.3   270  LYS270      0.1093
     80  NZ         3.6080  100.6660   63.4500 N.3   270  LYS270     -0.1314
     81  N          4.8860   90.9250   61.0170 N.3   272  ILE272     -0.1231
     82  CA         4.3070   89.5880   61.1650 C.3   272  ILE272      0.1692
     83  C          2.7770   89.7140   61.1230 C.2   272  ILE272      0.2592
     84  O          2.1930   90.4770   61.9060 O.2   272  ILE272     -0.2718
     85  CB         4.6980   88.9070   62.4990 C.3   272  ILE272      0.0266
     86  CG1        6.2170   88.7090   62.6110 C.3   272  ILE272      0.0019
     87  CG2        4.0160   87.5490   62.6300 C.3   272  ILE272      0.0020
     88  CD1        6.6940   88.4460   64.0160 C.3   272  ILE272      0.0001
     89  N          2.1410   88.9760   60.2040 N.am  273  GLU273     -0.1966
     90  CA         0.6920   88.7610   60.1840 C.3   273  GLU273      0.1733
     91  C          0.4330   87.4000   60.7640 C.2   273  GLU273      0.2616
     92  O          1.1400   86.4610   60.4620 O.2   273  GLU273     -0.2715
     93  CB         0.1400   88.7700   58.7600 C.3   273  GLU273      0.0429
     94  CG         0.0140   90.1270   58.0960 C.3   273  GLU273      0.1163
     95  CD        -0.4000   89.9990   56.6390 C.2   273  GLU273      0.3649
     96  OE1        0.4750   89.6850   55.7740 O.co2 273  GLU273     -0.2457
     97  OE2       -1.6050   90.2050   56.3690 O.co2 273  GLU273     -0.2457
     98  N         -0.5830   87.2820   61.5900 N.am  274  VAL274     -0.1977
     99  CA        -1.0530   85.9760   62.0540 C.3   274  VAL274      0.1596
    100  C         -2.3380   85.7150   61.2880 C.2   274  VAL274      0.2287
    101  O         -3.2020   86.5730   61.3050 O.2   274  VAL274     -0.2864
    102  CB        -1.3460   86.0080   63.5720 C.3   274  VAL274      0.0276
    103  CG1       -2.0420   84.7340   64.0160 C.3   274  VAL274      0.0022
    104  CG2       -0.0630   86.2530   64.3600 C.3   274  VAL274      0.0022
@<TRIPOS>BOND
     1    96    95   ar
     2    97    95   ar
     3    95    94    1
     4    94    93    1
     5    93    90    1
     6    90    89    1
     7    90    91    1
     8    89    83   am
     9    92    91    2
    10    75    74    2
    11    91    98   am
    12    81    82    1
    13    83    82    1
    14    83    84    2
    15    82    85    1
    16    74    73    1
    17   100   101    2
    18   100    99    1
    19    98    99    1
    20    78    79    1
    21    78    77    1
    22    76    73    1
    23    76    77    1
    24    99   102    1
    25    79    80    1
    26    73    72    1
    27    85    86    1
    28    85    87    1
    29    86    88    1
    30    72    67   am
    31   102   103    1
    32   102   104    1
    33    68    67    2
    34    67    66    1
    35    69    70    1
    36    69    66    1
    37    15    14    1
    38    15     9    1
    39    14    13    1
    40     1     2    1
    41    70    71    1
    42    66    65    1
    43    13    10    1
    44     9    10    1
    45     9     3   am
    46     2     3    1
    47     2     5    1
    48    10    11    1
    49     3     4    2
    50    71    65    1
    51    65    53   am
    52    63    61   ar
    53    63    64   ar
    54    61    58   ar
    55     5     6    1
    56    53    54    2
    57    53    52    1
    58    64    62   ar
    59    11    12    2
    60    11    16   am
    61     7     6   ar
    62    38    37    1
    63    55    56    1
    64    55    52    1
    65    58    56   ar
    66    58    60   ar
    67     6     8   ar
    68    39    37    1
    69    56    57   ar
    70    52    51    1
    71    16    17    1
    72    37    36    1
    73    62    60   ar
    74    60    59   ar
    75    35    34    2
    76    57    59   ar
    77    17    18    1
    78    17    20    1
    79    36    33    1
    80    18    19    2
    81    34    33    1
    82    34    40   am
    83    22    20    1
    84    21    20    1
    85    33    32    1
    86    43    42    2
    87    41    40    1
    88    41    42    1
    89    41    44    1
    90    44    45    1
    91    30    29   ar
    92    31    29   ar
    93    23    24    1
    94    24    25    1
    95    24    27    1
    96    26    25    2
    97    29    28    1
    98    45    46    1
    99    27    28    1
   100    46    47    1
   101    47    48    2
   102    50    48    1
   103    48    49    1
