@<TRIPOS>MOLECULE
tmp/5yg9B01.pdb
 180 173 0 0 0
SMALL
GASTEIGER

@<TRIPOS>ATOM
      1  N        -17.4230   81.1490   70.5820 N.3    17  MET17      -0.1245
      2  CA       -17.1790   79.7140   70.6170 C.3    17  MET17       0.1570
      3  C        -17.3140   79.1110   72.0210 C.2    17  MET17       0.2261
      4  O        -16.9230   77.9750   72.2560 O.2    17  MET17      -0.2867
      5  CB       -15.8640   79.3370   69.9170 C.3    17  MET17       0.0387
      6  CG       -15.8980   79.5550   68.4060 C.3    17  MET17       0.0595
      7  SD       -14.3240   79.0790   67.6550 S.3    17  MET17      -0.1393
      8  CE       -14.3550   77.2940   67.7900 C.3    17  MET17       0.0692
      9  N        -20.0860   75.6010   70.6220 N.3    20  ARG20      -0.1231
     10  CA       -19.3060   75.2120   69.4520 C.3    20  ARG20       0.1694
     11  C        -19.5420   73.7590   69.0560 C.2    20  ARG20       0.2593
     12  O        -20.1490   72.9790   69.7990 O.2    20  ARG20      -0.2718
     13  CB       -17.8270   75.4490   69.7290 C.3    20  ARG20       0.0321
     14  CG       -17.3960   74.7300   70.9860 C.3    20  ARG20       0.0489
     15  CD       -16.0160   74.1990   70.9080 C.3    20  ARG20       0.2205
     16  NE       -15.8130   73.3700   69.7280 N.pl3  20  ARG20      -0.0865
     17  CZ       -16.0770   72.0740   69.6180 C.cat  20  ARG20       0.5346
     18  NH1      -15.8010   71.4770   68.4420 N.pl3  20  ARG20       0.1354
     19  NH2      -16.5920   71.3840   70.6530 N.pl3  20  ARG20       0.1354
     20  N        -19.0620   73.4260   67.8570 N.am   21  GLY21      -0.1942
     21  CA       -19.3900   72.1660   67.1990 C.3    21  GLY21       0.2014
     22  C        -20.6300   72.3790   66.3540 C.2    21  GLY21       0.2639
     23  O        -21.6160   72.9260   66.8520 O.2    21  GLY21      -0.2714
     24  N        -20.5940   71.9200   65.1060 N.am   22  ALA22      -0.1963
     25  CA       -21.5980   72.2510   64.1270 C.3    22  ALA22       0.1728
     26  C        -22.9990   71.8960   64.6170 C.2    22  ALA22       0.2617
     27  O        -23.9010   72.7340   64.5550 O.2    22  ALA22      -0.2715
     28  CB       -21.2940   71.5830   62.7790 C.3    22  ALA22       0.0334
     29  N        -23.1680   70.6820   65.1300 N.am   23  GLY23      -0.1940
     30  CA       -24.4880   70.2050   65.5240 C.3    23  GLY23       0.2014
     31  C        -25.0750   70.9890   66.6950 C.2    23  GLY23       0.2639
     32  O        -26.2120   71.4750   66.6590 O.2    23  GLY23      -0.2714
     33  N        -24.2800   71.1050   67.7370 N.am   24  ARG24      -0.1963
     34  CA       -24.6520   71.8690   68.8970 C.3    24  ARG24       0.1729
     35  C        -25.0380   73.3440   68.5450 C.2    24  ARG24       0.2616
     36  O        -26.0670   73.8310   69.0160 O.2    24  ARG24      -0.2715
     37  CB       -23.5180   71.7740   69.9390 C.3    24  ARG24       0.0348
     38  CG       -23.7290   72.6770   71.1090 C.3    24  ARG24       0.0492
     39  CD       -23.1110   72.1930   72.3760 C.3    24  ARG24       0.2205
     40  NE       -23.6080   73.0710   73.4340 N.pl3  24  ARG24      -0.0865
     41  CZ       -23.1120   73.1600   74.6600 C.cat  24  ARG24       0.5346
     42  NH1      -22.0630   72.4160   75.0180 N.pl3  24  ARG24       0.1354
     43  NH2      -23.6610   74.0120   75.5270 N.pl3  24  ARG24       0.1354
     44  N        -24.2410   74.0340   67.7250 N.am   25  ILE25      -0.1977
     45  CA       -24.5980   75.3980   67.2520 C.3    25  ILE25       0.1596
     46  C        -25.9940   75.4010   66.5780 C.2    25  ILE25       0.2287
     47  O        -26.7970   76.3110   66.7950 O.2    25  ILE25      -0.2864
     48  CB       -23.5740   75.9280   66.2290 C.3    25  ILE25       0.0276
     49  CG1      -22.1910   76.1070   66.8490 C.3    25  ILE25       0.0022
     50  CG2      -23.9780   77.2860   65.6770 C.3    25  ILE25       0.0022
     51  CD1      -21.0980   76.0760   65.7870 C.3    25  ILE25       0.0001
     52  N        -21.6360   82.8250   62.7130 N.3    63  ARG63      -0.1245
     53  CA       -20.5270   82.1160   62.1090 C.3    63  ARG63       0.1563
     54  C        -20.9920   81.4900   60.8080 C.2    63  ARG63       0.2260
     55  O        -22.0500   80.8380   60.7880 O.2    63  ARG63      -0.2867
     56  CB       -20.0050   81.0330   63.0370 C.3    63  ARG63       0.0307
     57  CG       -19.2140   81.5720   64.2130 C.3    63  ARG63       0.0489
     58  CD       -18.7150   80.4650   65.1190 C.3    63  ARG63       0.2205
     59  NE       -17.5850   79.7760   64.5140 N.pl3  63  ARG63      -0.0865
     60  CZ       -17.2240   78.5180   64.7740 C.cat  63  ARG63       0.5346
     61  NH1      -16.1750   78.0100   64.1330 N.pl3  63  ARG63       0.1354
     62  NH2      -17.8660   77.7730   65.6720 N.pl3  63  ARG63       0.1354
     63  N         -9.8030   64.0310   64.9450 N.3   132  HIS132     -0.1226
     64  CA        -9.3150   65.4040   64.8490 C.3   132  HIS132      0.1752
     65  C        -10.3770   66.3180   65.3700 C.2   132  HIS132      0.2597
     66  O        -11.5620   66.0180   65.2260 O.2   132  HIS132     -0.2718
     67  CB        -8.9120   65.7230   63.3780 C.3   132  HIS132      0.0759
     68  CG        -8.2670   67.0560   63.1820 C.ar  132  HIS132      0.0818
     69  ND1       -7.1310   67.4460   63.8520 N.ar  132  HIS132     -0.2268
     70  CD2       -8.6000   68.0960   62.3860 C.ar  132  HIS132      0.1154
     71  CE1       -6.8010   68.6790   63.4960 C.ar  132  HIS132      0.1986
     72  NE2       -7.6700   69.0890   62.5920 N.ar  132  HIS132     -0.2212
     73  N         -9.9660   67.4110   65.9960 N.am  133  SER133     -0.1938
     74  CA       -10.9020   68.3080   66.6910 C.3   133  SER133      0.2055
     75  C        -11.7960   67.5520   67.6650 C.2   133  SER133      0.2643
     76  O        -11.4290   66.4530   68.1310 O.2   133  SER133     -0.2714
     77  CB       -11.7650   69.0820   65.6730 C.3   133  SER133      0.2130
     78  OG       -12.4030   70.2250   66.2570 O.3   133  SER133     -0.2179
     79  N        -12.9670   68.1370   67.9560 N.am  134  HIS134     -0.1959
     80  CA       -14.0090   67.4960   68.7620 C.3   134  HIS134      0.1787
     81  C        -15.3180   67.4800   67.9720 C.2   134  HIS134      0.2621
     82  O        -15.9290   68.5280   67.7680 O.2   134  HIS134     -0.2715
     83  CB       -14.1730   68.2350   70.1100 C.3   134  HIS134      0.0785
     84  CG       -15.2020   67.6260   71.0110 C.ar  134  HIS134      0.0821
     85  ND1      -16.5100   68.0610   71.0550 N.ar  134  HIS134     -0.2267
     86  CD2      -15.1220   66.6070   71.8940 C.ar  134  HIS134      0.1154
     87  CE1      -17.1940   67.3290   71.9170 C.ar  134  HIS134      0.1986
     88  NE2      -16.3760   66.4380   72.4410 N.ar  134  HIS134     -0.2212
     89  N        -15.7460   66.2750   67.5820 N.am  135  SER135     -0.1936
     90  CA       -16.9820   66.0430   66.8340 C.3   135  SER135      0.2055
     91  C        -17.8530   65.0240   67.5650 C.2   135  SER135      0.2643
     92  O        -17.4710   63.8270   67.7000 O.2   135  SER135     -0.2714
     93  CB       -16.6930   65.4980   65.4230 C.3   135  SER135      0.2130
     94  OG       -17.7870   64.7460   64.8910 O.3   135  SER135     -0.2179
     95  N        -19.0420   65.4920   67.9780 N.am  136  LYS136     -0.1963
     96  CA       -20.0840   64.6500   68.5900 C.3   136  LYS136      0.1728
     97  C        -20.3750   63.4100   67.7860 C.2   136  LYS136      0.2616
     98  O        -20.5370   62.3360   68.3550 O.2   136  LYS136     -0.2715
     99  CB       -21.3690   65.4460   68.7730 C.3   136  LYS136      0.0311
    100  CG       -21.7450   65.8540   70.1820 C.3   136  LYS136      0.0038
    101  CD       -20.6000   66.2230   71.1060 C.3   136  LYS136      0.0206
    102  CE       -21.1160   66.4280   72.5360 C.3   136  LYS136      0.1093
    103  NZ       -20.2150   65.8290   73.5780 N.3   136  LYS136     -0.1314
    104  N        -20.4510   63.5710   66.4650 N.am  137  ALA137     -0.1977
    105  CA       -20.8370   62.4880   65.5840 C.3   137  ALA137      0.1597
    106  C        -19.7080   61.4740   65.5030 C.2   137  ALA137      0.2287
    107  O        -19.9570   60.2590   65.5550 O.2   137  ALA137     -0.2864
    108  CB       -21.1980   63.0240   64.2060 C.3   137  ALA137      0.0319
    109  N         -9.0860   71.8780   70.7580 N.3   164  GLN164     -0.1245
    110  CA       -10.2290   70.9880   70.7500 C.3   164  GLN164      0.1566
    111  C         -9.9460   69.5370   71.1880 C.2   164  GLN164      0.2260
    112  O        -10.8370   68.8870   71.7410 O.2   164  GLN164     -0.2867
    113  CB       -10.8900   70.9270   69.3630 C.3   164  GLN164      0.0367
    114  CG       -12.0520   71.8770   69.1130 C.3   164  GLN164      0.0905
    115  CD       -11.6550   73.0680   68.3400 C.2   164  GLN164      0.2608
    116  OE1      -10.4970   73.4430   68.3680 O.2   164  GLN164     -0.2717
    117  NE2      -12.6110   73.7030   67.6690 N.am  164  GLN164     -0.0878
    118  N        -15.3620   64.5320   62.0040 N.3   200  GLY200     -0.1210
    119  CA       -16.6590   65.1300   61.6930 C.3   200  GLY200      0.1956
    120  C        -16.6480   65.9980   60.4620 C.2   200  GLY200      0.2612
    121  O        -15.7660   65.8620   59.6410 O.2   200  GLY200     -0.2717
    122  N        -17.6370   66.8870   60.3580 N.am  201  ALA201     -0.1965
    123  CA       -17.8450   67.7570   59.1890 C.3   201  ALA201      0.1728
    124  C        -18.6940   68.8970   59.6230 C.2   201  ALA201      0.2616
    125  O        -19.6260   68.6770   60.3700 O.2   201  ALA201     -0.2715
    126  CB       -18.5800   67.0200   58.0820 C.3   201  ALA201      0.0334
    127  N        -18.3570   70.0970   59.1560 N.am  202  ASP202     -0.1971
    128  CA       -19.1180   71.3270   59.3930 C.3   202  ASP202      0.1709
    129  C        -20.0510   71.6080   58.1970 C.2   202  ASP202      0.2293
    130  O        -21.1960   71.9600   58.4090 O.2   202  ASP202     -0.2864
    131  CB       -18.1540   72.5130   59.6050 C.3   202  ASP202      0.1436
    132  CG       -17.4250   72.4500   60.9390 C.2   202  ASP202      0.3671
    133  OD1      -16.3470   71.7940   61.0130 O.co2 202  ASP202     -0.2456
    134  OD2      -17.9210   73.0750   61.9220 O.co2 202  ASP202     -0.2456
    135  N        -14.1070   71.0060   57.3040 N.3   212  ASN212     -0.1225
    136  CA       -14.0470   70.5750   58.7070 C.3   212  ASN212      0.1785
    137  C        -12.9260   71.3580   59.3880 C.2   212  ASN212      0.2597
    138  O        -12.2570   72.1630   58.7530 O.2   212  ASN212     -0.2718
    139  CB       -13.7720   69.0770   58.7830 C.3   212  ASN212      0.1169
    140  CG       -14.0660   68.4900   60.1410 C.2   212  ASN212      0.2627
    141  OD1      -15.1410   68.6950   60.6940 O.2   212  ASN212     -0.2716
    142  ND2      -13.1320   67.7510   60.6750 N.am  212  ASN212     -0.0877
    143  N        -12.7180   71.1400   60.6750 N.am  213  LYS213     -0.1980
    144  CA       -11.6140   71.7850   61.4020 C.3   213  LYS213      0.1596
    145  C        -10.2920   71.8070   60.6320 C.2   213  LYS213      0.2287
    146  O         -9.9030   70.7970   60.0740 O.2   213  LYS213     -0.2864
    147  CB       -11.3810   71.0780   62.7670 C.3   213  LYS213      0.0298
    148  CG       -10.5630   71.8580   63.7710 C.3   213  LYS213      0.0038
    149  CD       -11.0220   73.2960   63.9830 C.3   213  LYS213      0.0206
    150  CE       -12.5220   73.4690   64.2520 C.3   213  LYS213      0.1093
    151  NZ       -12.7010   74.9540   64.3890 N.3   213  LYS213     -0.1314
    152  N        -24.2750   64.2550   59.9630 N.3   235  GLU235     -0.1245
    153  CA       -25.7180   64.3580   59.8350 C.3   235  GLU235      0.1567
    154  C        -26.0510   64.9310   58.4880 C.2   235  GLU235      0.2260
    155  O        -25.3090   65.7500   57.9870 O.2   235  GLU235     -0.2867
    156  CB       -26.2970   65.2840   60.9250 C.3   235  GLU235      0.0388
    157  CG       -25.9220   64.8630   62.3590 C.3   235  GLU235      0.1160
    158  CD       -24.7560   65.6480   62.9130 C.2   235  GLU235      0.3649
    159  OE1      -23.6950   65.5310   62.3140 O.co2 235  GLU235     -0.2457
    160  OE2      -24.9020   66.3960   63.9010 O.co2 235  GLU235     -0.2457
    161  N        -25.6170   68.6090   57.8530 N.3   238  LYS238     -0.1245
    162  CA       -24.2870   69.1250   57.4940 C.3   238  LYS238      0.1561
    163  C        -24.1250   69.3560   55.9690 C.2   238  LYS238      0.2260
    164  O        -23.1260   69.9390   55.5450 O.2   238  LYS238     -0.2867
    165  CB       -23.1620   68.1710   57.9580 C.3   238  LYS238      0.0271
    166  CG       -23.1060   67.7750   59.4280 C.3   238  LYS238      0.0035
    167  CD       -22.9360   68.9850   60.3170 C.3   238  LYS238      0.0206
    168  CE       -22.9760   68.6020   61.7880 C.3   238  LYS238      0.1093
    169  NZ       -21.9670   67.5840   62.2160 N.3   238  LYS238     -0.1314
    170  N        -11.1900   76.4070   59.4110 N.3   279  PHE279     -0.1241
    171  CA       -11.4780   75.1860   58.6190 C.3   279  PHE279      0.1605
    172  C        -10.5480   75.0350   57.4100 C.2   279  PHE279      0.2264
    173  O         -9.8840   76.0000   56.9620 O.2   279  PHE279     -0.2867
    174  CB       -12.9550   75.2040   58.1320 C.3   279  PHE279      0.0534
    175  CG       -13.9290   75.5080   59.2320 C.ar  279  PHE279     -0.0203
    176  CD1      -14.4010   74.4800   60.0850 C.ar  279  PHE279     -0.0042
    177  CD2      -14.2950   76.8220   59.4880 C.ar  279  PHE279     -0.0042
    178  CE1      -15.2470   74.7780   61.1250 C.ar  279  PHE279     -0.0003
    179  CE2      -15.1260   77.1090   60.5360 C.ar  279  PHE279     -0.0003
    180  CZ       -15.6150   76.0910   61.3410 C.ar  279  PHE279     -0.0000
@<TRIPOS>BOND
     1   164   163    2
     2   163   162    1
     3   173   172    2
     4   135   136    1
     5   172   171    1
     6   162   161    1
     7   162   165    1
     8   165   166    1
     9   155   154    2
    10   126   123    1
    11   174   171    1
    12   174   175    1
    13   129   130    2
    14   129   128    1
    15   154   153    1
    16   171   170    1
    17   136   139    1
    18   136   137    1
    19   138   137    2
    20   139   140    1
    21   127   128    1
    22   127   124   am
    23   123   124    1
    24   123   122    1
    25   175   177   ar
    26   175   176   ar
    27   137   143   am
    28   128   131    1
    29   166   167    1
    30   177   179   ar
    31   131   132    1
    32   124   125    2
    33   121   120    2
    34   153   152    1
    35   153   156    1
    36   146   145    2
    37   176   178   ar
    38   140   142   am
    39   140   141    2
    40   167   168    1
    41   122   120   am
    42   120   119    1
    43   179   180   ar
    44   145   144    1
    45   143   144    1
    46    55    54    2
    47    54    53    1
    48   156   157    1
    49   132   133   ar
    50   132   134   ar
    51   178   180   ar
    52   144   147    1
    53   119   118    1
    54   168   169    1
    55    53    52    1
    56    53    56    1
    57   159   158   ar
    58   157   158    1
    59    70    72   ar
    60    70    68   ar
    61    72    71   ar
    62   147   148    1
    63    28    25    1
    64   158   160   ar
    65    56    57    1
    66    68    67    1
    67    68    69   ar
    68    67    64    1
    69    71    69   ar
    70   148   149    1
    71   149   150    1
    72    25    26    1
    73    25    24    1
    74    61    60    1
    75   108   105    1
    76    57    58    1
    77   150   151    1
    78    59    60    2
    79    59    58    1
    80    27    26    2
    81    26    29   am
    82    60    62    1
    83    64    63    1
    84    64    65    1
    85    94    93    1
    86    24    22   am
    87    29    30    1
    88    66    65    2
    89    65    73   am
    90    93    90    1
    91   106   107    2
    92   106   105    1
    93    30    31    1
    94   105   104    1
    95    77    78    1
    96    77    74    1
    97    50    48    1
    98    51    49    1
    99    73    74    1
   100    48    49    1
   101    48    45    1
   102    22    23    2
   103    22    21    1
   104   104    97   am
   105    46    47    2
   106    46    45    1
   107    32    31    2
   108    74    75    1
   109    31    33   am
   110    90    91    1
   111    90    89    1
   112    21    20    1
   113    45    44    1
   114    91    92    2
   115    91    95   am
   116    89    81   am
   117     7     8    1
   118     7     6    1
   119    75    79   am
   120    75    76    2
   121   117   115   am
   122    44    35   am
   123    33    34    1
   124    82    81    2
   125    97    98    2
   126    97    96    1
   127    20    11   am
   128    79    80    1
   129    81    80    1
   130    95    96    1
   131   115   116    2
   132   115   114    1
   133     6     5    1
   134    18    17    1
   135    35    34    1
   136    35    36    2
   137    96    99    1
   138    80    83    1
   139    99   100    1
   140    34    37    1
   141    11    10    1
   142    11    12    2
   143   114   113    1
   144   113   110    1
   145    10    13    1
   146    10     9    1
   147    17    16    2
   148    17    19    1
   149    16    15    1
   150    13    14    1
   151     5     2    1
   152    37    38    1
   153    83    84    1
   154   100   101    1
   155     1     2    1
   156     2     3    1
   157   110   109    1
   158   110   111    1
   159    15    14    1
   160    84    85   ar
   161    84    86   ar
   162    85    87   ar
   163   101   102    1
   164    38    39    1
   165   111   112    2
   166    86    88   ar
   167    87    88   ar
   168     3     4    2
   169    39    40    1
   170   102   103    1
   171    40    41    2
   172    41    42    1
   173    41    43    1
