@<TRIPOS>MOLECULE
tmp/5yg9B00.pdb
 97 90 0 0 0
SMALL
GASTEIGER

@<TRIPOS>ATOM
      1  N        -20.1790   69.2990   50.6120 N.3   205  THR205     -0.1218
      2  CA       -20.5710   70.0160   49.3850 C.3   205  THR205      0.1862
      3  C        -21.1460   69.0820   48.3460 C.2   205  THR205      0.2287
      4  O        -20.9970   67.8560   48.4280 O.2   205  THR205     -0.2866
      5  CB       -19.3890   70.8120   48.7720 C.3   205  THR205      0.1770
      6  OG1      -18.5320   69.9290   48.0630 O.3   205  THR205     -0.2211
      7  CG2      -18.5670   71.5120   49.8520 C.3   205  THR205      0.0375
      8  N        -20.1860   68.1810   45.4470 N.3   207  ASN207     -0.1240
      9  CA       -19.2370   67.2110   44.8400 C.3   207  ASN207      0.1653
     10  C        -18.5160   66.2560   45.8090 C.2   207  ASN207      0.2266
     11  O        -17.6960   65.4540   45.3710 O.2   207  ASN207     -0.2867
     12  CB       -18.2290   67.9120   43.9290 C.3   207  ASN207      0.1155
     13  CG       -17.1810   68.6680   44.6920 C.2   207  ASN207      0.2627
     14  OD1      -17.4840   69.4250   45.5920 O.2   207  ASN207     -0.2716
     15  ND2      -15.9570   68.4910   44.3170 N.am  207  ASN207     -0.0877
     16  N        -16.9030   67.2090   48.8360 N.3   209  ALA209     -0.1245
     17  CA       -15.8300   67.7710   49.6420 C.3   209  ALA209      0.1562
     18  C        -16.3050   68.0130   51.0970 C.2   209  ALA209      0.2260
     19  O        -17.4300   68.4570   51.2950 O.2   209  ALA209     -0.2867
     20  CB       -15.3100   69.0620   49.0040 C.3   209  ALA209      0.0290
     21  N        -15.6950   70.1980   54.3740 N.3   211  ILE211     -0.1245
     22  CA       -15.1300   71.3300   55.1090 C.3   211  ILE211      0.1561
     23  C        -15.1990   70.8940   56.5700 C.2   211  ILE211      0.2260
     24  O        -16.2210   70.4280   57.0220 O.2   211  ILE211     -0.2867
     25  CB       -15.9410   72.6300   54.8730 C.3   211  ILE211      0.0252
     26  CG1      -15.7020   73.1820   53.4650 C.3   211  ILE211      0.0019
     27  CG2      -15.5370   73.7450   55.7950 C.3   211  ILE211      0.0019
     28  CD1      -16.7970   72.8630   52.4940 C.3   211  ILE211      0.0001
     29  N        -24.3240   74.9640   47.3620 N.3   243  THR243     -0.1218
     30  CA       -23.2500   74.4310   46.5280 C.3   243  THR243      0.1862
     31  C        -23.7190   73.6130   45.3340 C.2   243  THR243      0.2287
     32  O        -22.9290   73.3530   44.4410 O.2   243  THR243     -0.2866
     33  CB       -22.2660   73.5770   47.3560 C.3   243  THR243      0.1770
     34  OG1      -22.8860   72.3480   47.7380 O.3   243  THR243     -0.2211
     35  CG2      -21.8020   74.3330   48.5930 C.3   243  THR243      0.0375
     36  N        -22.1240   77.7190   44.7130 N.3   247  GLN247     -0.1231
     37  CA       -21.6440   78.5370   45.8140 C.3   247  GLN247      0.1698
     38  C        -20.4310   77.8440   46.4300 C.2   247  GLN247      0.2592
     39  O        -20.4460   76.6000   46.6210 O.2   247  GLN247     -0.2718
     40  CB       -22.7420   78.6630   46.8560 C.3   247  GLN247      0.0381
     41  CG       -22.3950   79.4370   48.1210 C.3   247  GLN247      0.0905
     42  CD       -22.6250   80.9080   47.9830 C.2   247  GLN247      0.2608
     43  OE1      -23.5110   81.3600   47.2460 O.2   247  GLN247     -0.2717
     44  NE2      -21.8380   81.6760   48.7120 N.am  247  GLN247     -0.0878
     45  N        -19.3920   78.6550   46.7070 N.am  248  LEU248     -0.1966
     46  CA       -18.2340   78.2160   47.4850 C.3   248  LEU248      0.1728
     47  C        -18.5150   78.5470   48.9030 C.2   248  LEU248      0.2616
     48  O        -19.0670   79.6040   49.1920 O.2   248  LEU248     -0.2715
     49  CB       -16.9640   78.9260   47.0730 C.3   248  LEU248      0.0311
     50  CG       -16.5530   78.6240   45.6450 C.3   248  LEU248      0.0022
     51  CD1      -15.3080   79.4250   45.3240 C.3   248  LEU248      0.0001
     52  CD2      -16.3510   77.1260   45.4060 C.3   248  LEU248      0.0001
     53  N        -18.1200   77.6310   49.7820 N.am  249  VAL249     -0.1977
     54  CA       -18.2600   77.7880   51.2210 C.3   249  VAL249      0.1596
     55  C        -17.2140   78.7870   51.7650 C.2   249  VAL249      0.2287
     56  O        -16.0340   78.6680   51.5150 O.2   249  VAL249     -0.2864
     57  CB       -18.1290   76.4260   51.9300 C.3   249  VAL249      0.0276
     58  CG1      -18.3550   76.5970   53.4360 C.3   249  VAL249      0.0022
     59  CG2      -19.1080   75.4050   51.3140 C.3   249  VAL249      0.0022
     60  N        -14.7720   80.2470   54.3510 N.3   251  ILE251     -0.1245
     61  CA       -13.9230   79.7550   55.3910 C.3   251  ILE251      0.1561
     62  C        -13.6630   80.8600   56.4260 C.2   251  ILE251      0.2260
     63  O        -13.0230   81.8610   56.1460 O.2   251  ILE251     -0.2867
     64  CB       -12.6060   79.2480   54.7890 C.3   251  ILE251      0.0252
     65  CG1      -12.8840   78.1910   53.7120 C.3   251  ILE251      0.0019
     66  CG2      -11.6780   78.7230   55.8790 C.3   251  ILE251      0.0019
     67  CD1      -13.5380   76.9260   54.1820 C.3   251  ILE251      0.0001
     68  N        -10.6290   72.3710   53.5830 N.3   281  VAL281     -0.1245
     69  CA       -11.4910   71.6030   52.6980 C.3   281  VAL281      0.1561
     70  C        -10.7330   70.3870   52.2170 C.2   281  VAL281      0.2260
     71  O         -9.6530   70.5080   51.7330 O.2   281  VAL281     -0.2867
     72  CB       -11.9460   72.4550   51.4940 C.3   281  VAL281      0.0252
     73  CG1      -13.1620   71.8390   50.8290 C.3   281  VAL281      0.0019
     74  CG2      -12.3040   73.8710   51.9430 C.3   281  VAL281      0.0019
     75  N        -10.6860   67.1260   49.7930 N.3   283  PRO283     -0.2103
     76  CA       -11.3310   66.5550   48.5840 C.3   283  PRO283      0.1489
     77  C        -11.9800   65.2020   48.7350 C.2   283  PRO283      0.2418
     78  O        -11.5530   64.4290   49.5490 O.2   283  PRO283     -0.2734
     79  CB       -10.1720   66.3760   47.6170 C.3   283  PRO283      0.0282
     80  CG        -8.9340   66.5170   48.4370 C.3   283  PRO283      0.0208
     81  CD        -9.2690   67.4600   49.5390 C.3   283  PRO283      0.0893
     82  N        -12.9720   64.9040   47.9050 N.am  284  PRO284     -0.2718
     83  CA       -13.6540   63.6400   48.0060 C.3   284  PRO284      0.1535
     84  C        -12.8020   62.3930   47.7320 C.2   284  PRO284      0.2598
     85  O        -13.0900   61.3120   48.2740 O.2   284  PRO284     -0.2715
     86  CB       -14.7580   63.7660   46.9380 C.3   284  PRO284      0.0310
     87  CG       -14.3210   64.8300   46.0000 C.3   284  PRO284      0.0237
     88  CD       -13.5750   65.7790   46.8760 C.3   284  PRO284      0.0939
     89  N        -11.8000   62.5110   46.8710 N.am  285  GLU285     -0.1978
     90  CA       -10.8940   61.3830   46.6040 C.3   285  GLU285      0.1602
     91  C        -10.1640   60.8480   47.8710 C.2   285  GLU285      0.2287
     92  O         -9.8580   59.6470   47.9400 O.2   285  GLU285     -0.2864
     93  CB        -9.9170   61.7210   45.4990 C.3   285  GLU285      0.0415
     94  CG        -9.2110   63.0600   45.6360 C.3   285  GLU285      0.1163
     95  CD        -9.8500   64.2180   44.8320 C.2   285  GLU285      0.3649
     96  OE1      -11.1230   64.3530   44.7700 O.co2 285  GLU285     -0.2457
     97  OE2       -9.0330   65.0240   44.2930 O.co2 285  GLU285     -0.2457
@<TRIPOS>BOND
     1    12    13    1
     2    12     9    1
     3    97    95   ar
     4    15    13   am
     5    32    31    2
     6    13    14    2
     7    36    37    1
     8    96    95   ar
     9    95    94    1
    10     9     8    1
    11     9    10    1
    12    51    50    1
    13    31    30    1
    14    11    10    2
    15    52    50    1
    16    93    94    1
    17    93    90    1
    18    50    49    1
    19    37    38    1
    20    37    40    1
    21    87    88    1
    22    87    86    1
    23    38    39    2
    24    38    45   am
    25    30    33    1
    26    30    29    1
    27    90    89    1
    28    90    91    1
    29    45    46    1
    30    40    41    1
    31    89    84   am
    32    88    82    1
    33    86    83    1
    34    49    46    1
    35    43    42    2
    36    33    34    1
    37    33    35    1
    38    46    47    1
    39    79    80    1
    40    79    76    1
    41    84    83    1
    42    84    85    2
    43    91    92    2
    44    82    83    1
    45    82    77   am
    46    42    41    1
    47    42    44   am
    48     6     5    1
    49     3     4    2
    50     3     2    1
    51    80    81    1
    52    76    77    1
    53    76    75    1
    54    77    78    2
    55     5     2    1
    56     5     7    1
    57    16    17    1
    58    47    48    2
    59    47    53   am
    60    20    17    1
    61     2     1    1
    62    81    75    1
    63    17    18    1
    64    53    54    1
    65    73    72    1
    66    18    19    2
    67    54    55    1
    68    54    57    1
    69    59    57    1
    70    72    74    1
    71    72    69    1
    72    56    55    2
    73    71    70    2
    74    57    58    1
    75    70    69    1
    76    28    26    1
    77    69    68    1
    78    26    25    1
    79    65    67    1
    80    65    64    1
    81    60    61    1
    82    21    22    1
    83    64    61    1
    84    64    66    1
    85    25    22    1
    86    25    27    1
    87    22    23    1
    88    61    62    1
    89    63    62    2
    90    23    24    2
