@<TRIPOS>MOLECULE
tmp/5ygeA01.pdb
 91 86 0 0 0
SMALL
GASTEIGER

@<TRIPOS>ATOM
      1  N        -24.5110   23.5450  -10.7760 N.3    33  LYS33      -0.1245
      2  CA       -24.3030   22.1820  -11.2240 C.3    33  LYS33       0.1561
      3  C        -25.5870   21.5440  -11.6650 C.2    33  LYS33       0.2260
      4  O        -26.4930   21.4670  -10.9040 O.2    33  LYS33      -0.2867
      5  CB       -23.7000   21.2980  -10.1230 C.3    33  LYS33       0.0271
      6  CG       -22.4460   21.8050   -9.4660 C.3    33  LYS33       0.0035
      7  CD       -21.1970   21.3740  -10.1990 C.3    33  LYS33       0.0206
      8  CE       -20.0270   22.0750   -9.5940 C.3    33  LYS33       0.1093
      9  NZ       -18.6800   21.6460   -9.9480 N.3    33  LYS33      -0.1314
     10  N        -24.0270   16.3340  -14.3120 N.3    37  THR37      -0.1203
     11  CA       -22.7500   16.5340  -13.7110 C.3    37  THR37       0.1994
     12  C        -22.6560   15.8350  -12.3660 C.2    37  THR37       0.2617
     13  O        -21.7360   15.1520  -12.0770 O.2    37  THR37      -0.2717
     14  CB       -22.4330   18.0370  -13.6170 C.3    37  THR37       0.1784
     15  OG1      -22.4650   18.5810  -14.9170 O.3    37  THR37      -0.2211
     16  CG2      -21.1100   18.2870  -13.0300 C.3    37  THR37       0.0376
     17  N        -23.6790   16.0360  -11.5700 N.am   38  LEU38      -0.1979
     18  CA       -23.7570   15.4960  -10.2540 C.3    38  LEU38       0.1596
     19  C        -23.7810   13.9460  -10.2780 C.2    38  LEU38       0.2287
     20  O        -23.0760   13.3260   -9.5710 O.2    38  LEU38      -0.2864
     21  CB       -24.9570   16.0680   -9.5220 C.3    38  LEU38       0.0297
     22  CG       -24.8950   17.5220   -9.0720 C.3    38  LEU38       0.0022
     23  CD1      -26.1470   17.9920   -8.3640 C.3    38  LEU38       0.0001
     24  CD2      -23.6680   17.8190   -8.2710 C.3    38  LEU38       0.0001
     25  N        -22.6730   11.8940  -12.5790 N.3    40  GLU40      -0.1231
     26  CA       -21.3950   11.4280  -13.0050 C.3    40  GLU40       0.1699
     27  C        -20.3570   11.5110  -11.8610 C.2    40  GLU40       0.2592
     28  O        -19.5790   10.6470  -11.7010 O.2    40  GLU40      -0.2718
     29  CB       -20.8970   12.1780  -14.2230 C.3    40  GLU40       0.0402
     30  CG       -21.6370   11.9300  -15.5080 C.3    40  GLU40       0.1161
     31  CD       -21.2070   12.8980  -16.5970 C.2    40  GLU40       0.3649
     32  OE1      -20.1610   13.5320  -16.4450 O.co2  40  GLU40      -0.2457
     33  OE2      -21.9070   13.0400  -17.5630 O.co2  40  GLU40      -0.2457
     34  N        -20.4410   12.5570  -11.0650 N.am   41  ALA41      -0.1980
     35  CA       -19.5120   12.8070   -9.9950 C.3    41  ALA41       0.1597
     36  C        -19.8980   12.1960   -8.6620 C.2    41  ALA41       0.2287
     37  O        -19.2690   12.4500   -7.6890 O.2    41  ALA41      -0.2864
     38  CB       -19.3190   14.2970   -9.8260 C.3    41  ALA41       0.0319
     39  N        -17.5480   10.8690   -5.9660 N.3    44  GLU44      -0.1231
     40  CA       -16.6860   11.8180   -5.2950 C.3    44  GLU44       0.1699
     41  C        -17.3320   12.4670   -4.0380 C.2    44  GLU44       0.2592
     42  O        -16.6870   13.1100   -3.2770 O.2    44  GLU44      -0.2718
     43  CB       -16.2940   12.9290   -6.2900 C.3    44  GLU44       0.0402
     44  CG       -15.3800   12.5050   -7.3780 C.3    44  GLU44       0.1161
     45  CD       -14.9790   13.6080   -8.3220 C.2    44  GLU44       0.3649
     46  OE1      -15.3300   14.7510   -8.1940 O.co2  44  GLU44      -0.2457
     47  OE2      -14.2950   13.2980   -9.2290 O.co2  44  GLU44      -0.2457
     48  N        -18.6370   12.3100   -3.9330 N.am   45  PHE45      -0.1976
     49  CA       -19.4710   12.9770   -2.9710 C.3    45  PHE45       0.1639
     50  C        -19.6840   12.2280   -1.6660 C.2    45  PHE45       0.2290
     51  O        -19.8510   11.0590   -1.6610 O.2    45  PHE45      -0.2864
     52  CB       -20.8150   13.3160   -3.5740 C.3    45  PHE45       0.0560
     53  CG       -20.8600   14.6430   -4.2290 C.ar   45  PHE45      -0.0200
     54  CD1      -20.5390   14.7780   -5.5390 C.ar   45  PHE45      -0.0042
     55  CD2      -21.1370   15.7680   -3.5100 C.ar   45  PHE45      -0.0042
     56  CE1      -20.5660   16.0090   -6.1420 C.ar   45  PHE45      -0.0003
     57  CE2      -21.1660   17.0040   -4.0950 C.ar   45  PHE45      -0.0003
     58  CZ       -20.8960   17.1250   -5.4160 C.ar   45  PHE45      -0.0000
     59  N        -17.5270   17.2280   -1.7250 N.3    62  ALA62      -0.1245
     60  CA       -16.7870   16.3990   -2.6390 C.3    62  ALA62       0.1562
     61  C        -15.2740   16.6680   -2.7120 C.2    62  ALA62       0.2260
     62  O        -14.8100   17.7340   -2.4910 O.2    62  ALA62      -0.2867
     63  CB       -17.3910   16.4740   -4.0130 C.3    62  ALA62       0.0290
     64  N        -12.1720   15.9960   -5.5590 N.3    64  HIS64      -0.1241
     65  CA       -11.8370   15.7100   -6.9080 C.3    64  HIS64       0.1621
     66  C        -10.3420   15.5890   -7.0590 C.2    64  HIS64       0.2264
     67  O         -9.6530   16.4260   -6.6010 O.2    64  HIS64      -0.2867
     68  CB       -12.3770   16.7880   -7.8110 C.3    64  HIS64       0.0745
     69  CG       -12.0260   16.5810   -9.2310 C.ar   64  HIS64       0.0817
     70  ND1      -12.6600   15.6610  -10.0190 N.ar   64  HIS64      -0.2268
     71  CD2      -11.0770   17.1420  -10.0000 C.ar   64  HIS64       0.1154
     72  CE1      -12.1280   15.6900  -11.2190 C.ar   64  HIS64       0.1986
     73  NE2      -11.1470   16.5540  -11.2190 N.ar   64  HIS64      -0.2212
     74  N        -14.5180   20.5220   -3.3400 N.3    74  ARG74      -0.1231
     75  CA       -15.6080   21.1410   -4.0440 C.3    74  ARG74       0.1694
     76  C        -16.9830   20.9450   -3.4040 C.2    74  ARG74       0.2592
     77  O        -17.2160   19.9800   -2.7500 O.2    74  ARG74      -0.2718
     78  CB       -15.7020   20.6330   -5.4650 C.3    74  ARG74       0.0321
     79  CG       -14.4220   20.5690   -6.2570 C.3    74  ARG74       0.0489
     80  CD       -14.6940   20.1560   -7.6710 C.3    74  ARG74       0.2205
     81  NE       -13.5590   20.3100   -8.5270 N.pl3  74  ARG74      -0.0865
     82  CZ       -13.4320   19.7680   -9.7280 C.cat  74  ARG74       0.5346
     83  NH1      -14.3860   19.0350  -10.2460 N.pl3  74  ARG74       0.1354
     84  NH2      -12.3530   20.0020  -10.4150 N.pl3  74  ARG74       0.1354
     85  N        -17.8680   21.8740   -3.7200 N.am   75  THR75      -0.1953
     86  CA       -19.2870   21.7640   -3.4740 C.3    75  THR75       0.1897
     87  C        -19.6160   21.2940   -2.0500 C.2    75  THR75       0.2313
     88  O        -20.3590   20.3970   -1.8460 O.2    75  THR75      -0.2863
     89  CB       -19.9590   20.8480   -4.5130 C.3    75  THR75       0.1794
     90  OG1      -19.4310   21.1060   -5.7960 O.3    75  THR75      -0.2208
     91  CG2      -21.4220   21.0670   -4.5750 C.3    75  THR75       0.0378
@<TRIPOS>BOND
     1    33    31   ar
     2    31    32   ar
     3    31    30    1
     4    30    29    1
     5    15    14    1
     6    10    11    1
     7    29    26    1
     8    11    14    1
     9    11    12    1
    10    14    16    1
    11    26    25    1
    12    26    27    1
    13    12    13    2
    14    12    17   am
    15    27    28    2
    16    27    34   am
    17     3     2    1
    18     3     4    2
    19    17    18    1
    20     2     1    1
    21     2     5    1
    22    73    72   ar
    23    73    71   ar
    24    72    70   ar
    25    34    35    1
    26    84    82    1
    27    19    18    1
    28    19    20    2
    29    18    21    1
    30    83    82    1
    31     7     8    1
    32     7     6    1
    33     5     6    1
    34    70    69   ar
    35    71    69   ar
    36    35    38    1
    37    35    36    1
    38     9     8    1
    39    82    81    2
    40    21    22    1
    41    69    68    1
    42    47    45   ar
    43    22    23    1
    44    22    24    1
    45    36    37    2
    46    81    80    1
    47    45    46   ar
    48    45    44    1
    49    68    65    1
    50    80    79    1
    51    44    43    1
    52    66    65    1
    53    66    67    2
    54    65    64    1
    55    43    40    1
    56    79    78    1
    57    56    54   ar
    58    56    58   ar
    59    39    40    1
    60    90    89    1
    61    54    53   ar
    62    78    75    1
    63    58    57   ar
    64    40    41    1
    65    91    89    1
    66    89    86    1
    67    53    52    1
    68    53    55   ar
    69    57    55   ar
    70    75    76    1
    71    75    74    1
    72    41    48   am
    73    41    42    2
    74    63    60    1
    75    48    49    1
    76    85    86    1
    77    85    76   am
    78    52    49    1
    79    86    87    1
    80    76    77    2
    81    49    50    1
    82    61    60    1
    83    61    62    2
    84    60    59    1
    85    87    88    2
    86    50    51    2
