@<TRIPOS>MOLECULE
tmp/5yggA00.pdb
 125 112 0 0 0
SMALL
GASTEIGER

@<TRIPOS>ATOM
      1  N          4.6340   14.2470  122.1940 N.3    96  GLY96      -0.1225
      2  CA         6.0050   14.1600  122.6400 C.3    96  GLY96       0.1811
      3  C          6.9380   14.9010  121.7080 C.2    96  GLY96       0.2280
      4  O          6.5330   15.8480  121.0250 O.2    96  GLY96      -0.2866
      5  N         13.1360   14.4420  128.8710 N.3   161  ASN161     -0.1240
      6  CA        12.2640   15.2540  128.0300 C.3   161  ASN161      0.1653
      7  C         12.9650   15.6020  126.7210 C.2   161  ASN161      0.2266
      8  O         13.1370   16.7780  126.3770 O.2   161  ASN161     -0.2867
      9  CB        11.8620   16.5380  128.7600 C.3   161  ASN161      0.1155
     10  CG        10.3630   16.7440  128.8060 C.2   161  ASN161      0.2627
     11  OD1        9.6310   16.2980  127.9220 O.2   161  ASN161     -0.2716
     12  ND2        9.8980   17.4350  129.8460 N.am  161  ASN161     -0.0877
     13  N         12.5790   10.6440  135.8080 N.3   188  LYS188     -0.1245
     14  CA        11.3780   10.2250  135.1030 C.3   188  LYS188      0.1561
     15  C         11.6790   10.0290  133.6230 C.2   188  LYS188      0.2260
     16  O         12.2310   10.9300  132.9890 O.2   188  LYS188     -0.2867
     17  CB        10.2700   11.2620  135.2770 C.3   188  LYS188      0.0271
     18  CG         9.0180   10.9720  134.4640 C.3   188  LYS188      0.0035
     19  CD         8.9060   11.9390  133.2940 C.3   188  LYS188      0.0206
     20  CE         7.6120   11.7620  132.5420 C.3   188  LYS188      0.1093
     21  NZ         7.6540   12.4980  131.2490 N.3   188  LYS188     -0.1314
     22  N          9.8840    8.5300  129.7610 N.3   190  SER190     -0.1217
     23  CA         8.8690    7.7910  128.9980 C.3   190  SER190      0.1889
     24  C          9.4820    6.4490  128.6100 C.2   190  SER190      0.2288
     25  O         10.7070    6.3090  128.6510 O.2   190  SER190     -0.2866
     26  CB         8.4330    8.5550  127.7450 C.3   190  SER190      0.2089
     27  OG         9.4330    8.4770  126.7380 O.3   190  SER190     -0.2183
     28  N          6.8600    6.3540  132.6570 N.3   221  THR221     -0.1218
     29  CA         5.4500    6.5300  132.3210 C.3   221  THR221      0.1862
     30  C          5.0720    5.5870  131.1900 C.2   221  THR221      0.2287
     31  O          5.8830    5.3130  130.2980 O.2   221  THR221     -0.2866
     32  CB         5.1080    7.9880  131.9250 C.3   221  THR221      0.1770
     33  OG1        5.8800    8.3960  130.7890 O.3   221  THR221     -0.2211
     34  CG2        5.3570    8.9350  133.0860 C.3   221  THR221      0.0375
     35  N          1.9860    5.7770  129.3700 N.3   223  GLY223     -0.1210
     36  CA         0.8000    6.3180  128.7350 C.3   223  GLY223      0.1956
     37  C         -0.4370    6.0720  129.5770 C.2   223  GLY223      0.2611
     38  O         -0.4960    6.4740  130.7400 O.2   223  GLY223     -0.2717
     39  N         -1.4240    5.3940  128.9990 N.am  224  ALA224     -0.1979
     40  CA        -2.6860    5.1550  129.6930 C.3   224  ALA224      0.1597
     41  C         -2.5330    4.1220  130.8040 C.2   224  ALA224      0.2287
     42  O         -3.3180    4.1090  131.7530 O.2   224  ALA224     -0.2864
     43  CB        -3.7680    4.7130  128.7050 C.3   224  ALA224      0.0319
     44  N         -0.4840    3.9810  133.0920 N.3   226  GLY226     -0.1225
     45  CA         0.0210    4.5650  134.3200 C.3   226  GLY226      0.1811
     46  C          1.5330    4.7260  134.3290 C.2   226  GLY226      0.2280
     47  O          2.1010    5.3840  133.4560 O.2   226  GLY226     -0.2866
     48  N         -6.9670    6.2850  136.3430 N.3   241  LYS241     -0.1231
     49  CA        -8.0410    6.3950  135.3600 C.3   241  LYS241      0.1693
     50  C         -7.5200    6.8000  133.9930 C.2   241  LYS241      0.2592
     51  O         -6.7890    7.7770  133.8770 O.2   241  LYS241     -0.2718
     52  CB        -9.0760    7.4150  135.8120 C.3   241  LYS241      0.0285
     53  CG        -9.8240    7.0450  137.0630 C.3   241  LYS241      0.0035
     54  CD       -10.9320    8.0520  137.3110 C.3   241  LYS241      0.0206
     55  CE       -11.6420    7.7880  138.6220 C.3   241  LYS241      0.1093
     56  NZ       -12.7470    8.7710  138.7930 N.3   241  LYS241     -0.1314
     57  N         -7.9110    6.0610  132.9590 N.am  242  ALA242     -0.1966
     58  CA        -7.5400    6.4080  131.5900 C.3   242  ALA242      0.1728
     59  C         -8.5120    7.4360  131.0330 C.2   242  ALA242      0.2616
     60  O         -9.7130    7.3400  131.2520 O.2   242  ALA242     -0.2715
     61  CB        -7.5140    5.1710  130.7070 C.3   242  ALA242      0.0334
     62  N         -7.9880    8.4310  130.3280 N.am  243  VAL243     -0.1977
     63  CA        -8.8360    9.4220  129.6860 C.3   243  VAL243      0.1596
     64  C         -8.5190    9.5040  128.1990 C.2   243  VAL243      0.2287
     65  O         -7.4150    9.1620  127.7720 O.2   243  VAL243     -0.2864
     66  CB        -8.6690   10.8070  130.3240 C.3   243  VAL243      0.0276
     67  CG1       -9.0210   10.7500  131.8010 C.3   243  VAL243      0.0022
     68  CG2       -7.2480   11.3150  130.1250 C.3   243  VAL243      0.0022
     69  N         -7.3700   11.6350  125.3820 N.3   245  PRO245     -0.2116
     70  CA        -6.6690   12.9210  125.3210 C.3   245  PRO245      0.1372
     71  C         -7.1940   13.8600  124.2330 C.2   245  PRO245      0.2244
     72  O         -7.4890   13.4630  123.1100 O.2   245  PRO245     -0.2868
     73  CB        -5.2210   12.5190  125.0450 C.3   245  PRO245      0.0268
     74  CG        -5.3040   11.1560  124.4500 C.3   245  PRO245      0.0207
     75  CD        -6.4910   10.5010  125.0550 C.3   245  PRO245      0.0892
     76  N         -2.3170   16.2370  124.1130 N.3   248  CYS248     -0.1235
     77  CA        -1.3240   15.5900  124.9650 C.3   248  CYS248      0.1677
     78  C         -0.1990   16.5180  125.4290 C.2   248  CYS248      0.2270
     79  O          0.5870   16.1400  126.2960 O.2   248  CYS248     -0.2867
     80  CB        -0.7280   14.3830  124.2440 C.3   248  CYS248      0.0956
     81  SG        -0.0960   14.7560  122.6060 S.3   248  CYS248     -0.0801
     82  N          1.3870   16.6570  129.2120 N.3   251  ALA251     -0.1231
     83  CA         0.9810   15.5480  130.0910 C.3   251  ALA251      0.1694
     84  C          2.1180   15.0690  131.0100 C.2   251  ALA251      0.2592
     85  O          1.9280   14.8700  132.2130 O.2   251  ALA251     -0.2718
     86  CB         0.4410   14.3610  129.2560 C.3   251  ALA251      0.0304
     87  N          3.3040   14.8850  130.4430 N.am  252  GLY252     -0.1957
     88  CA         4.4370   14.3940  131.2030 C.3   252  GLY252      0.1869
     89  C          4.9050   15.3680  132.2680 C.2   252  GLY252      0.2309
     90  O          5.3460   14.9570  133.3410 O.2   252  GLY252     -0.2863
     91  N          2.4980   15.2930  135.1220 N.3   255  PHE255     -0.1241
     92  CA         2.8450   14.0980  135.8820 C.3   255  PHE255      0.1605
     93  C          3.9620   14.4310  136.8630 C.2   255  PHE255      0.2264
     94  O          3.8340   14.1820  138.0610 O.2   255  PHE255     -0.2867
     95  CB         3.2530   12.9660  134.9290 C.3   255  PHE255      0.0534
     96  CG         3.6420   11.6870  135.6210 C.ar  255  PHE255     -0.0203
     97  CD1        4.9260   11.5090  136.1170 C.ar  255  PHE255     -0.0042
     98  CD2        2.7320   10.6390  135.7490 C.ar  255  PHE255     -0.0042
     99  CE1        5.2860   10.3320  136.7510 C.ar  255  PHE255     -0.0003
    100  CE2        3.0920    9.4660  136.3750 C.ar  255  PHE255     -0.0003
    101  CZ         4.3710    9.3130  136.8830 C.ar  255  PHE255     -0.0000
    102  N         -0.2580   10.5220  138.1640 N.3   283  ASN283     -0.1240
    103  CA        -1.0630    9.9270  137.1070 C.3   283  ASN283      0.1653
    104  C         -2.3070   10.7650  136.8700 C.2   283  ASN283      0.2266
    105  O         -2.7180   10.9840  135.7310 O.2   283  ASN283     -0.2867
    106  CB        -1.4780    8.4960  137.4610 C.3   283  ASN283      0.1155
    107  CG        -0.4230    7.4650  137.0940 C.2   283  ASN283      0.2627
    108  OD1        0.3880    7.6810  136.2010 O.2   283  ASN283     -0.2716
    109  ND2       -0.4430    6.3310  137.7820 N.am  283  ASN283     -0.0877
    110  N         -1.3710   14.0090  135.0750 N.3   286  GLY286     -0.1210
    111  CA        -1.0720   13.7130  133.6870 C.3   286  GLY286      0.1956
    112  C         -2.3200   13.5450  132.8380 C.2   286  GLY286      0.2611
    113  O         -2.4000   14.0750  131.7300 O.2   286  GLY286     -0.2717
    114  N         -3.2970   12.8050  133.3570 N.am  287  ALA287     -0.1979
    115  CA        -4.5610   12.6140  132.6520 C.3   287  ALA287      0.1597
    116  C         -5.3210   13.9350  132.4920 C.2   287  ALA287      0.2287
    117  O         -5.8010   14.2510  131.4030 O.2   287  ALA287     -0.2864
    118  CB        -5.4380   11.5950  133.3930 C.3   287  ALA287      0.0319
    119  N         -4.3460   16.6850  129.8010 N.3   290  THR290     -0.1218
    120  CA        -4.6920   16.4510  128.3980 C.3   290  THR290      0.1862
    121  C         -6.0750   16.9850  128.0090 C.2   290  THR290      0.2287
    122  O         -6.4280   17.0040  126.8300 O.2   290  THR290     -0.2866
    123  CB        -4.6630   14.9360  128.0470 C.3   290  THR290      0.1770
    124  OG1       -5.7560   14.2590  128.7010 O.3   290  THR290     -0.2211
    125  CG2       -3.3230   14.3040  128.4640 C.3   290  THR290      0.0375
@<TRIPOS>BOND
     1     4     3    2
     2     3     2    1
     3     1     2    1
     4    81    80    1
     5    72    71    2
     6    76    77    1
     7    71    70    1
     8    80    77    1
     9    74    73    1
    10    74    75    1
    11    77    78    1
    12    73    70    1
    13    75    69    1
    14    70    69    1
    15    78    79    2
    16     8     7    2
    17     7     6    1
    18    27    26    1
    19   122   121    2
    20    26    23    1
    21    65    64    2
    22    11    10    2
    23   121   120    1
    24     6     9    1
    25     6     5    1
    26   123   120    1
    27   123   125    1
    28   123   124    1
    29    64    63    1
    30   120   119    1
    31    24    25    2
    32    24    23    1
    33    43    40    1
    34    36    35    1
    35    36    37    1
    36     9    10    1
    37    10    12   am
    38    23    22    1
    39    39    37   am
    40    39    40    1
    41    82    83    1
    42    86    83    1
    43    37    38    2
    44    63    66    1
    45    63    62    1
    46    40    41    1
    47    83    84    1
    48    68    66    1
    49    31    30    2
    50    66    67    1
    51    62    59   am
    52    87    84   am
    53    87    88    1
    54    61    58    1
    55    33    32    1
    56    41    42    2
    57    84    85    2
    58    59    60    2
    59    59    58    1
    60    30    29    1
    61    88    89    1
    62    21    20    1
    63   117   116    2
    64    58    57    1
    65   113   112    2
    66    32    29    1
    67    32    34    1
    68    89    90    2
    69    29    28    1
    70   116   115    1
    71    20    19    1
    72   115   114    1
    73   115   118    1
    74   112   114   am
    75   112   111    1
    76    57    50   am
    77    16    15    2
    78    44    45    1
    79    19    18    1
    80    47    46    2
    81    15    14    1
    82   111   110    1
    83    51    50    2
    84    50    49    1
    85    45    46    1
    86    18    17    1
    87    95    96    1
    88    95    92    1
    89    14    17    1
    90    14    13    1
    91    91    92    1
    92    49    52    1
    93    49    48    1
    94    96    98   ar
    95    96    97   ar
    96   105   104    2
    97    98   100   ar
    98    52    53    1
    99    92    93    1
   100    97    99   ar
   101   108   107    2
   102   100   101   ar
   103    99   101   ar
   104    93    94    2
   105   104   103    1
   106    53    54    1
   107   107   106    1
   108   107   109   am
   109   103   106    1
   110   103   102    1
   111    54    55    1
   112    55    56    1
