@<TRIPOS>MOLECULE
tmp/5yggA01.pdb
 124 112 0 0 0
SMALL
GASTEIGER

@<TRIPOS>ATOM
      1  N         13.8620   26.0910  130.2280 N.3    13  ASP13      -0.1239
      2  CA        13.2240   26.8820  129.1860 C.3    13  ASP13       0.1674
      3  C         11.7600   27.1570  129.4560 C.2    13  ASP13       0.2266
      4  O         10.9530   26.2530  129.5770 O.2    13  ASP13      -0.2867
      5  CB        13.3780   26.2060  127.8140 C.3    13  ASP13       0.1410
      6  CG        12.7630   24.8050  127.7460 C.2    13  ASP13       0.3668
      7  OD1       12.9560   23.9920  128.6790 O.co2  13  ASP13      -0.2456
      8  OD2       12.0950   24.5160  126.7290 O.co2  13  ASP13      -0.2456
      9  N          8.7240   28.7650  127.4260 N.3    15  VAL15      -0.1245
     10  CA         8.5480   28.9070  125.9770 C.3    15  VAL15       0.1561
     11  C          7.1030   29.2450  125.6470 C.2    15  VAL15       0.2260
     12  O          6.1940   28.9030  126.3990 O.2    15  VAL15      -0.2867
     13  CB         8.9630   27.6180  125.1800 C.3    15  VAL15       0.0252
     14  CG1       10.1650   26.9230  125.8150 C.3    15  VAL15       0.0019
     15  CG2        7.8150   26.6730  125.0230 C.3    15  VAL15       0.0019
     16  N          4.2780   28.2100  123.2470 N.3    17  ASP17      -0.1239
     17  CA         3.8360   27.1310  122.3640 C.3    17  ASP17       0.1674
     18  C          2.7500   27.6330  121.4380 C.2    17  ASP17       0.2266
     19  O          1.7000   28.0540  121.9160 O.2    17  ASP17      -0.2867
     20  CB         3.2650   25.9450  123.1630 C.3    17  ASP17       0.1410
     21  CG         4.3180   25.1500  123.8960 C.2    17  ASP17       0.3668
     22  OD1        5.4740   25.0820  123.4260 O.co2  17  ASP17      -0.2456
     23  OD2        3.9820   24.5570  124.9420 O.co2  17  ASP17      -0.2456
     24  N          4.2360   27.7790  127.9850 N.3    31  GLY31      -0.1210
     25  CA         4.7810   26.4340  128.0300 C.3    31  GLY31       0.1956
     26  C          6.2510   26.3780  128.3920 C.2    31  GLY31       0.2612
     27  O          6.7770   27.3060  129.0130 O.2    31  GLY31      -0.2717
     28  N          6.9010   25.2820  128.0060 N.am   32  GLY32      -0.1942
     29  CA         8.2920   25.0200  128.3740 C.3    32  GLY32       0.2014
     30  C          8.3150   24.1030  129.5810 C.2    32  GLY32       0.2638
     31  O          7.7680   24.4520  130.6230 O.2    32  GLY32      -0.2714
     32  N          8.9390   22.9350  129.4550 N.am   33  ALA33      -0.1977
     33  CA         8.7300   21.8720  130.4460 C.3    33  ALA33       0.1597
     34  C          8.9640   22.3140  131.9020 C.2    33  ALA33       0.2287
     35  O          8.0950   22.0840  132.7440 O.2    33  ALA33      -0.2864
     36  CB         9.5860   20.6560  130.1060 C.3    33  ALA33       0.0319
     37  N          6.1500   24.4810  132.9940 N.3    36  ASN36      -0.1240
     38  CA         4.9430   23.6740  133.1940 C.3    36  ASN36       0.1653
     39  C          4.9620   23.0110  134.5730 C.2    36  ASN36       0.2266
     40  O          3.9730   23.0540  135.3040 O.2    36  ASN36      -0.2867
     41  CB         4.8100   22.5910  132.1140 C.3    36  ASN36       0.1155
     42  CG         4.7230   23.1580  130.7110 C.2    36  ASN36       0.2627
     43  OD1        5.0930   22.4920  129.7310 O.2    36  ASN36      -0.2716
     44  ND2        4.2180   24.3700  130.5960 N.am   36  ASN36      -0.0877
     45  N          7.8500   27.7500  120.0370 N.3    88  VAL88      -0.1245
     46  CA         7.6620   26.3800  119.5700 C.3    88  VAL88       0.1561
     47  C          6.3390   26.2080  118.8430 C.2    88  VAL88       0.2260
     48  O          5.3130   26.6450  119.3460 O.2    88  VAL88      -0.2867
     49  CB         7.7130   25.4080  120.7540 C.3    88  VAL88       0.0252
     50  CG1        7.3300   24.0090  120.3110 C.3    88  VAL88       0.0019
     51  CG2        9.1040   25.4370  121.3790 C.3    88  VAL88       0.0019
     52  N          6.9510   18.8070  118.3160 N.3   100  PHE100     -0.1241
     53  CA         7.4750   20.1600  118.5100 C.3   100  PHE100      0.1605
     54  C          8.4940   20.5990  117.4550 C.2   100  PHE100      0.2264
     55  O          9.4050   19.8470  117.1090 O.2   100  PHE100     -0.2867
     56  CB         8.0970   20.2770  119.9020 C.3   100  PHE100      0.0534
     57  CG         7.1370   19.9580  121.0120 C.ar  100  PHE100     -0.0203
     58  CD1        6.0690   20.7990  121.2820 C.ar  100  PHE100     -0.0042
     59  CD2        7.2910   18.8090  121.7680 C.ar  100  PHE100     -0.0042
     60  CE1        5.1730   20.5030  122.2940 C.ar  100  PHE100     -0.0003
     61  CE2        6.4020   18.5060  122.7880 C.ar  100  PHE100     -0.0003
     62  CZ         5.3420   19.3510  123.0520 C.ar  100  PHE100     -0.0000
     63  N         11.1720   23.7140  117.0600 N.3   102  PHE102     -0.1241
     64  CA        11.7630   24.8310  117.7900 C.3   102  PHE102      0.1605
     65  C         12.2360   25.9040  116.8120 C.2   102  PHE102      0.2264
     66  O         13.1320   25.6580  116.0040 O.2   102  PHE102     -0.2867
     67  CB        12.9180   24.3400  118.6820 C.3   102  PHE102      0.0534
     68  CG        12.4440   23.4800  119.8340 C.ar  102  PHE102     -0.0203
     69  CD1       12.0320   22.1700  119.6170 C.ar  102  PHE102     -0.0042
     70  CD2       12.3460   24.0030  121.1120 C.ar  102  PHE102     -0.0042
     71  CE1       11.5630   21.3800  120.6650 C.ar  102  PHE102     -0.0003
     72  CE2       11.8690   23.2330  122.1630 C.ar  102  PHE102     -0.0003
     73  CZ        11.4720   21.9060  121.9400 C.ar  102  PHE102     -0.0000
     74  N         16.7950   19.9470  127.7610 N.3   131  ILE131     -0.1245
     75  CA        17.0540   21.1240  126.9220 C.3   131  ILE131      0.1561
     76  C         18.0690   22.0560  127.6160 C.2   131  ILE131      0.2260
     77  O         18.8880   22.7110  126.9490 O.2   131  ILE131     -0.2867
     78  CB        15.7470   21.8640  126.5760 C.3   131  ILE131      0.0252
     79  CG1       15.0750   21.1840  125.3750 C.3   131  ILE131      0.0019
     80  CG2       15.9940   23.3480  126.2830 C.3   131  ILE131      0.0019
     81  CD1       13.8190   21.9250  124.9010 C.3   131  ILE131      0.0001
     82  N         13.1360   14.4420  128.8710 N.3   161  ASN161     -0.1240
     83  CA        12.2640   15.2540  128.0300 C.3   161  ASN161      0.1653
     84  C         12.9650   15.6020  126.7210 C.2   161  ASN161      0.2266
     85  O         13.1370   16.7780  126.3770 O.2   161  ASN161     -0.2867
     86  CB        11.8620   16.5380  128.7600 C.3   161  ASN161      0.1155
     87  CG        10.3630   16.7440  128.8060 C.2   161  ASN161      0.2627
     88  OD1        9.6310   16.2980  127.9220 O.2   161  ASN161     -0.2716
     89  ND2        9.8980   17.4350  129.8460 N.am  161  ASN161     -0.0877
     90  N         14.5120   16.5600  123.2810 N.3   163  ARG163     -0.1245
     91  CA        14.1840   17.3390  122.0910 C.3   163  ARG163      0.1563
     92  C         15.4670   17.5230  121.2930 C.2   163  ARG163      0.2260
     93  O         16.1640   18.5210  121.4460 O.2   163  ARG163     -0.2867
     94  CB        13.5720   18.6860  122.4560 C.3   163  ARG163      0.0307
     95  CG        12.4130   18.6120  123.4510 C.3   163  ARG163      0.0489
     96  CD        11.0940   18.0920  122.8420 C.3   163  ARG163      0.2205
     97  NE        10.0150   18.3240  123.8010 N.pl3 163  ARG163     -0.0865
     98  CZ         9.6150   17.4420  124.7140 C.cat 163  ARG163      0.5346
     99  NH1       10.1690   16.2350  124.7730 N.pl3 163  ARG163      0.1354
    100  NH2        8.6490   17.7630  125.5640 N.pl3 163  ARG163      0.1354
    101  N         -0.1140   17.7150  124.8500 N.3   249  THR249     -0.1203
    102  CA         0.9340   18.6710  125.2110 C.3   249  THR249      0.1994
    103  C          0.9660   18.8940  126.7150 C.2   249  THR249      0.2618
    104  O         -0.0490   19.2550  127.3090 O.2   249  THR249     -0.2717
    105  CB         0.7350   20.0410  124.5250 C.3   249  THR249      0.1784
    106  OG1        0.6490   19.8660  123.1090 O.3   249  THR249     -0.2211
    107  CG2        1.9090   20.9630  124.8460 C.3   249  THR249      0.0376
    108  N          2.1270   18.6650  127.3260 N.am  250  GLY250     -0.1956
    109  CA         2.2940   18.9010  128.7490 C.3   250  GLY250      0.1869
    110  C          1.9160   17.7800  129.7120 C.2   250  GLY250      0.2309
    111  O          2.1050   17.9500  130.9200 O.2   250  GLY250     -0.2863
    112  N          4.8230   16.6620  131.9740 N.3   253  ASP253     -0.1239
    113  CA         5.2390   17.6790  132.9390 C.3   253  ASP253      0.1674
    114  C          4.2260   17.7830  134.0690 C.2   253  ASP253      0.2266
    115  O          4.5780   18.0380  135.2200 O.2   253  ASP253     -0.2867
    116  CB         5.4020   19.0390  132.2620 C.3   253  ASP253      0.1410
    117  CG         6.4340   19.0200  131.1460 C.2   253  ASP253      0.3668
    118  OD1        7.3950   18.2220  131.2300 O.co2 253  ASP253     -0.2456
    119  OD2        6.2870   19.8090  130.1890 O.co2 253  ASP253     -0.2456
    120  N         -0.0990   23.3330  127.4550 N.3   295  ALA295     -0.1245
    121  CA         0.5260   22.5430  128.5130 C.3   295  ALA295      0.1562
    122  C          0.0100   22.9010  129.9100 C.2   295  ALA295      0.2260
    123  O         -0.0970   22.0270  130.7690 O.2   295  ALA295     -0.2867
    124  CB         2.0410   22.7170  128.4700 C.3   295  ALA295      0.0290
@<TRIPOS>BOND
     1    66    65    2
     2    65    64    1
     3    63    64    1
     4    55    54    2
     5    54    53    1
     6    64    67    1
     7    52    53    1
     8    53    56    1
     9    67    68    1
    10    47    48    2
    11    47    46    1
    12    46    45    1
    13    46    49    1
    14    69    68   ar
    15    69    71   ar
    16    68    70   ar
    17    56    57    1
    18    50    49    1
    19    71    73   ar
    20    49    51    1
    21    57    58   ar
    22    57    59   ar
    23    70    72   ar
    24    58    60   ar
    25    92    93    2
    26    92    91    1
    27    18    19    2
    28    18    17    1
    29    59    61   ar
    30    73    72   ar
    31    91    94    1
    32    91    90    1
    33    60    62   ar
    34    17    20    1
    35    17    16    1
    36    94    95    1
    37    61    62   ar
    38    96    95    1
    39    96    97    1
    40   106   105    1
    41    20    21    1
    42    22    21   ar
    43    97    98    2
    44    21    23   ar
    45   105   107    1
    46   105   102    1
    47    98    99    1
    48    98   100    1
    49   101   102    1
    50    81    79    1
    51    15    13    1
    52    13    14    1
    53    13    10    1
    54   102   103    1
    55    79    78    1
    56    11    10    1
    57    11    12    2
    58    10     9    1
    59    80    78    1
    60    85    84    2
    61    78    75    1
    62   103   104    2
    63   103   108   am
    64    84    83    1
    65     8     6   ar
    66    75    76    1
    67    75    74    1
    68    77    76    2
    69   108   109    1
    70   120   121    1
    71     6     5    1
    72     6     7   ar
    73     5     2    1
    74    88    87    2
    75    24    25    1
    76    28    29    1
    77    28    26   am
    78    25    26    1
    79    83    86    1
    80    83    82    1
    81    29    30    1
    82    26    27    2
    83   124   121    1
    84   121   122    1
    85   109   110    1
    86    86    87    1
    87    87    89   am
    88     2     3    1
    89     2     1    1
    90    32    30   am
    91    32    33    1
    92     3     4    2
    93    30    31    2
    94   110   111    2
    95    43    42    2
    96   122   123    2
    97    36    33    1
    98   119   117   ar
    99    33    34    1
   100    44    42   am
   101    42    41    1
   102   117   118   ar
   103   117   116    1
   104    34    35    2
   105   112   113    1
   106    41    38    1
   107   116   113    1
   108   113   114    1
   109    37    38    1
   110    38    39    1
   111   114   115    2
   112    39    40    2
