@<TRIPOS>MOLECULE
tmp/5ygiA00.pdb
 212 198 0 0 0
SMALL
GASTEIGER

@<TRIPOS>ATOM
      1  N        -14.1120   27.3050  -17.9250 N.3    87  PHE87      -0.1227
      2  CA       -15.3420   26.5620  -17.6680 C.3    87  PHE87       0.1736
      3  C        -16.0070   27.0320  -16.3780 C.2    87  PHE87       0.2595
      4  O        -17.2060   27.3430  -16.3580 O.2    87  PHE87      -0.2718
      5  CB       -15.0140   25.0570  -17.6330 C.3    87  PHE87       0.0547
      6  CG       -15.9660   24.2140  -16.8280 C.ar   87  PHE87      -0.0202
      7  CD1      -17.3010   24.1260  -17.1660 C.ar   87  PHE87      -0.0042
      8  CD2      -15.4960   23.4540  -15.7740 C.ar   87  PHE87      -0.0042
      9  CE1      -18.1760   23.3140  -16.4390 C.ar   87  PHE87      -0.0003
     10  CE2      -16.3490   22.6380  -15.0360 C.ar   87  PHE87      -0.0003
     11  CZ       -17.6960   22.5580  -15.3660 C.ar   87  PHE87      -0.0000
     12  N        -15.2400   27.0800  -15.2840 N.am   88  PHE88      -0.1962
     13  CA       -15.7920   27.5390  -14.0170 C.3    88  PHE88       0.1771
     14  C        -16.3740   28.9400  -14.1580 C.2    88  PHE88       0.2619
     15  O        -17.4660   29.2210  -13.6590 O.2    88  PHE88      -0.2715
     16  CB       -14.7120   27.5540  -12.9310 C.3    88  PHE88       0.0574
     17  CG       -14.2230   26.1830  -12.4900 C.ar   88  PHE88      -0.0200
     18  CD1      -15.0660   25.0720  -12.4850 C.ar   88  PHE88      -0.0042
     19  CD2      -12.9150   26.0280  -12.0400 C.ar   88  PHE88      -0.0042
     20  CE1      -14.6070   23.8280  -12.0670 C.ar   88  PHE88      -0.0003
     21  CE2      -12.4410   24.7850  -11.6140 C.ar   88  PHE88      -0.0003
     22  CZ       -13.2830   23.6850  -11.6340 C.ar   88  PHE88      -0.0000
     23  N        -15.6520   29.8360  -14.8310 N.am   89  LEU89      -0.1977
     24  CA       -16.0730   31.2270  -14.8580 C.3    89  LEU89       0.1596
     25  C        -17.3490   31.4020  -15.6650 C.2    89  LEU89       0.2287
     26  O        -18.2590   32.1170  -15.2370 O.2    89  LEU89      -0.2864
     27  CB       -14.9520   32.1110  -15.4120 C.3    89  LEU89       0.0297
     28  CG       -13.8110   32.3190  -14.4150 C.3    89  LEU89       0.0022
     29  CD1      -12.8490   33.4190  -14.8810 C.3    89  LEU89       0.0001
     30  CD2      -14.3580   32.6150  -13.0080 C.3    89  LEU89       0.0001
     31  N        -19.7390   29.3940  -16.1140 N.3    91  ALA91      -0.1231
     32  CA       -20.8950   28.9020  -15.3700 C.3    91  ALA91       0.1694
     33  C        -21.1630   29.7680  -14.1500 C.2    91  ALA91       0.2592
     34  O        -22.3210   30.0210  -13.8160 O.2    91  ALA91      -0.2718
     35  CB       -20.6920   27.4450  -14.9450 C.3    91  ALA91       0.0304
     36  N        -20.1000   30.2090  -13.4700 N.am   92  ASP92      -0.1960
     37  CA       -20.2670   31.0040  -12.2590 C.3    92  ASP92       0.1840
     38  C        -20.8980   32.3550  -12.5620 C.2    92  ASP92       0.2622
     39  O        -21.6720   32.8680  -11.7520 O.2    92  ASP92      -0.2715
     40  CB       -18.9170   31.1730  -11.5620 C.3    92  ASP92       0.1450
     41  CG       -18.9940   32.0200  -10.2980 C.2    92  ASP92       0.3671
     42  OD1      -19.5990   31.5760   -9.2810 O.co2  92  ASP92      -0.2456
     43  OD2      -18.4370   33.1410  -10.3220 O.co2  92  ASP92      -0.2456
     44  N        -20.5950   32.9360  -13.7230 N.am   93  ASP93      -0.1971
     45  CA       -21.1620   34.2400  -14.0590 C.3    93  ASP93       0.1709
     46  C        -22.6710   34.1480  -14.2610 C.2    93  ASP93       0.2293
     47  O        -23.4080   35.0530  -13.8600 O.2    93  ASP93      -0.2864
     48  CB       -20.4800   34.8130  -15.3000 C.3    93  ASP93       0.1436
     49  CG       -19.0890   35.3610  -15.0080 C.2    93  ASP93       0.3671
     50  OD1      -18.7780   35.6270  -13.8210 O.co2  93  ASP93      -0.2456
     51  OD2      -18.3010   35.5220  -15.9750 O.co2  93  ASP93      -0.2456
     52  N        -24.6290   31.7960  -12.6510 N.3    95  MET95      -0.1230
     53  CA       -25.1500   31.6140  -11.2980 C.3    95  MET95       0.1702
     54  C        -24.9980   32.8560  -10.4160 C.2    95  MET95       0.2592
     55  O        -25.7660   33.0340   -9.4660 O.2    95  MET95      -0.2718
     56  CB       -24.4620   30.4260  -10.6370 C.3    95  MET95       0.0401
     57  CG       -24.9060   29.0970  -11.2190 C.3    95  MET95       0.0596
     58  SD       -23.9710   27.7210  -10.4900 S.3    95  MET95      -0.1393
     59  CE       -22.4460   27.9170  -11.3760 C.3    95  MET95       0.0692
     60  N        -24.0020   33.6960  -10.6620 N.am   96  ASP96      -0.1974
     61  CA       -23.8460   34.8890   -9.8340 C.3    96  ASP96       0.1709
     62  C        -24.5200   36.1180  -10.4280 C.2    96  ASP96       0.2293
     63  O        -24.4660   37.1860   -9.8110 O.2    96  ASP96      -0.2864
     64  CB       -22.3600   35.1750   -9.5700 C.3    96  ASP96       0.1436
     65  CG       -21.7210   34.1590   -8.5980 C.2    96  ASP96       0.3671
     66  OD1      -22.4450   33.3570   -7.9610 O.co2  96  ASP96      -0.2456
     67  OD2      -20.4890   34.1750   -8.4530 O.co2  96  ASP96      -0.2456
     68  N        -23.6080   37.8650  -12.9650 N.3    98  SER98      -0.1217
     69  CA       -22.5580   38.8260  -13.2140 C.3    98  SER98       0.1889
     70  C        -22.7820   39.5380  -14.5450 C.2    98  SER98       0.2288
     71  O        -23.5370   39.0840  -15.4090 O.2    98  SER98      -0.2866
     72  CB       -21.2080   38.1290  -13.1780 C.3    98  SER98       0.2089
     73  OG       -20.8550   37.8370  -11.8290 O.3    98  SER98      -0.2183
     74  N        -16.6600   40.2840  -17.3090 N.3   101  ARG101     -0.1245
     75  CA       -15.6150   39.3310  -16.9310 C.3   101  ARG101      0.1563
     76  C        -14.3720   39.6170  -17.7660 C.2   101  ARG101      0.2260
     77  O        -14.4460   39.6460  -19.0000 O.2   101  ARG101     -0.2867
     78  CB       -16.0860   37.8960  -17.1520 C.3   101  ARG101      0.0307
     79  CG       -14.9490   36.8850  -17.1620 C.3   101  ARG101      0.0489
     80  CD       -14.4730   36.6400  -15.7600 C.3   101  ARG101      0.2205
     81  NE       -15.5420   36.0700  -14.9460 N.pl3 101  ARG101     -0.0865
     82  CZ       -15.4180   35.8170  -13.6500 C.cat 101  ARG101      0.5346
     83  NH1      -14.2690   36.0880  -13.0310 N.pl3 101  ARG101      0.1354
     84  NH2      -16.4300   35.2930  -12.9750 N.pl3 101  ARG101      0.1354
     85  N        -19.4980   23.5360  -20.4300 N.3   122  ASN122     -0.1240
     86  CA       -19.0920   22.1480  -20.3060 C.3   122  ASN122      0.1653
     87  C        -18.2070   21.7160  -21.4670 C.2   122  ASN122      0.2266
     88  O        -17.3510   20.8450  -21.2950 O.2   122  ASN122     -0.2867
     89  CB       -20.3270   21.2600  -20.1840 C.3   122  ASN122      0.1155
     90  CG       -20.8610   21.2350  -18.7820 C.2   122  ASN122      0.2627
     91  OD1      -20.3770   20.4760  -17.9480 O.2   122  ASN122     -0.2716
     92  ND2      -21.8530   22.0660  -18.5000 N.am  122  ASN122     -0.0877
     93  N        -14.0000   21.9920   -6.5790 N.3   156  THR156     -0.1203
     94  CA       -14.5210   23.3360   -6.7590 C.3   156  THR156      0.1994
     95  C        -16.0350   23.3170   -6.7360 C.2   156  THR156      0.2617
     96  O        -16.6600   24.2110   -6.1580 O.2   156  THR156     -0.2717
     97  CB       -13.9970   23.9450   -8.0600 C.3   156  THR156      0.1784
     98  OG1      -14.0530   22.9560   -9.0860 O.3   156  THR156     -0.2211
     99  CG2      -12.5810   24.2890   -7.9240 C.3   156  THR156      0.0376
    100  N        -16.6340   22.2690   -7.3200 N.am  157  GLU157     -0.1979
    101  CA       -18.0870   22.1570   -7.3580 C.3   157  GLU157      0.1602
    102  C        -18.6490   21.9100   -5.9770 C.2   157  GLU157      0.2287
    103  O        -19.7350   22.3910   -5.6590 O.2   157  GLU157     -0.2864
    104  CB       -18.5100   21.0590   -8.3250 C.3   157  GLU157      0.0415
    105  CG       -18.3730   21.4900   -9.7680 C.3   157  GLU157      0.1163
    106  CD       -18.1670   20.3230  -10.7210 C.2   157  GLU157      0.3649
    107  OE1      -18.5520   19.1820  -10.3900 O.co2 157  GLU157     -0.2457
    108  OE2      -17.6080   20.5680  -11.8150 O.co2 157  GLU157     -0.2457
    109  N        -18.3860   25.3990   -4.6100 N.3   160  GLN160     -0.1245
    110  CA       -19.4520   26.2190   -5.1720 C.3   160  GLN160      0.1566
    111  C        -20.7910   25.9240   -4.4920 C.2   160  GLN160      0.2260
    112  O        -21.5600   26.8440   -4.1960 O.2   160  GLN160     -0.2867
    113  CB       -19.5350   25.9970   -6.6880 C.3   160  GLN160      0.0367
    114  CG       -20.5920   26.8590   -7.4220 C.3   160  GLN160      0.0905
    115  CD       -20.1140   28.2710   -7.7510 C.2   160  GLN160      0.2608
    116  OE1      -19.0300   28.6830   -7.3420 O.2   160  GLN160     -0.2717
    117  NE2      -20.9230   29.0190   -8.5080 N.am  160  GLN160     -0.0878
    118  N        -20.7540   27.7490   -1.2960 N.3   163  ASP163     -0.1239
    119  CA       -20.9910   29.1270   -1.7090 C.3   163  ASP163      0.1674
    120  C        -22.4960   29.4170   -1.8460 C.2   163  ASP163      0.2266
    121  O        -23.0370   30.2930   -1.1610 O.2   163  ASP163     -0.2867
    122  CB       -20.2220   29.3660   -3.0200 C.3   163  ASP163      0.1410
    123  CG       -20.1550   30.8300   -3.4270 C.2   163  ASP163      0.3668
    124  OD1      -21.0650   31.2900   -4.1720 O.co2 163  ASP163     -0.2456
    125  OD2      -19.1810   31.5120   -3.0340 O.co2 163  ASP163     -0.2456
    126  N        -13.6380   25.7830   -3.0650 N.3   189  LYS189     -0.1231
    127  CA       -14.0530   26.3780   -4.3280 C.3   189  LYS189      0.1693
    128  C        -12.9080   27.0460   -5.0640 C.2   189  LYS189      0.2592
    129  O        -12.9320   27.1010   -6.2980 O.2   189  LYS189     -0.2718
    130  CB       -15.1950   27.3730   -4.1120 C.3   189  LYS189      0.0285
    131  CG       -14.8120   28.7050   -3.5380 C.3   189  LYS189      0.0035
    132  CD       -15.9310   29.7300   -3.7540 C.3   189  LYS189      0.0206
    133  CE       -15.4160   31.1420   -3.4440 C.3   189  LYS189      0.1093
    134  NZ       -16.4410   32.2180   -3.6120 N.3   189  LYS189     -0.1314
    135  N        -11.8940   27.5400   -4.3530 N.am  190  THR190     -0.1953
    136  CA       -10.8260   28.2860   -4.9990 C.3   190  THR190      0.1897
    137  C         -9.4550   27.6540   -4.8100 C.2   190  THR190      0.2313
    138  O         -8.7110   27.4910   -5.7880 O.2   190  THR190     -0.2863
    139  CB       -10.8150   29.7360   -4.4780 C.3   190  THR190      0.1794
    140  OG1      -11.9730   30.4200   -4.9690 O.3   190  THR190     -0.2208
    141  CG2       -9.5700   30.4840   -4.9290 C.3   190  THR190      0.0378
    142  N         -8.0400   24.2010   -6.8720 N.3   193  TYR193     -0.1241
    143  CA        -7.7840   24.2180   -8.3040 C.3   193  TYR193      0.1605
    144  C         -6.9360   25.3890   -8.7570 C.2   193  TYR193      0.2264
    145  O         -6.3600   25.3310   -9.8490 O.2   193  TYR193     -0.2867
    146  CB        -9.0940   24.2640   -9.0800 C.3   193  TYR193      0.0534
    147  CG        -9.5930   25.6650   -9.4030 C.ar  193  TYR193     -0.0201
    148  CD1      -10.3740   26.3790   -8.4880 C.ar  193  TYR193     -0.0009
    149  CD2       -9.3290   26.2560  -10.6360 C.ar  193  TYR193     -0.0009
    150  CE1      -10.8750   27.6550   -8.7880 C.ar  193  TYR193      0.0417
    151  CE2       -9.8200   27.5350  -10.9440 C.ar  193  TYR193      0.0417
    152  CZ       -10.5970   28.2220  -10.0130 C.ar  193  TYR193      0.1957
    153  OH       -11.1010   29.4640  -10.3160 O.3   193  TYR193     -0.2866
    154  N         -8.4250   34.0410   -2.3730 N.3   229  GLN229     -0.1245
    155  CA        -9.8670   34.2850   -2.4120 C.3   229  GLN229      0.1566
    156  C        -10.2460   35.4820   -1.5440 C.2   229  GLN229      0.2260
    157  O        -11.0870   36.2990   -1.9370 O.2   229  GLN229     -0.2867
    158  CB       -10.6440   33.0460   -1.9760 C.3   229  GLN229      0.0367
    159  CG       -12.1490   33.2080   -2.1750 C.3   229  GLN229      0.0905
    160  CD       -12.5080   33.5550   -3.6120 C.2   229  GLN229      0.2608
    161  OE1      -11.8670   33.0800   -4.5500 O.2   229  GLN229     -0.2717
    162  NE2      -13.5170   34.3910   -3.7920 N.am  229  GLN229     -0.0878
    163  N         -9.7150   38.3030   -3.6370 N.3   232  ASP232     -0.1225
    164  CA       -10.8030   38.3970   -4.6080 C.3   232  ASP232      0.1805
    165  C        -12.0340   39.0530   -3.9910 C.2   232  ASP232      0.2597
    166  O        -12.6020   39.9920   -4.5580 O.2   232  ASP232     -0.2718
    167  CB       -11.1400   37.0020   -5.1500 C.3   232  ASP232      0.1424
    168  CG       -12.2380   37.0400   -6.1960 C.2   232  ASP232      0.3668
    169  OD1      -11.9700   37.5610   -7.3030 O.co2 232  ASP232     -0.2456
    170  OD2      -13.3690   36.5780   -5.9080 O.co2 232  ASP232     -0.2456
    171  N        -12.4530   38.5750   -2.8160 N.am  233  ASP233     -0.1974
    172  CA       -13.5490   39.1990   -2.0810 C.3   233  ASP233      0.1709
    173  C        -13.3020   40.6900   -1.8530 C.2   233  ASP233      0.2293
    174  O        -14.1850   41.5280   -2.0840 O.2   233  ASP233     -0.2864
    175  CB       -13.7400   38.4740   -0.7530 C.3   233  ASP233      0.1436
    176  CG       -14.2190   37.0630   -0.9420 C.2   233  ASP233      0.3671
    177  OD1      -14.5410   36.7140   -2.0920 O.co2 233  ASP233     -0.2456
    178  OD2      -14.2890   36.3100    0.0480 O.co2 233  ASP233     -0.2456
    179  N        -13.8260   42.5160   -5.0070 N.3   236  ASP236     -0.1239
    180  CA       -15.1910   42.5460   -5.5310 C.3   236  ASP236      0.1674
    181  C        -15.8200   43.9060   -5.2930 C.2   236  ASP236      0.2266
    182  O        -16.4370   44.4890   -6.1900 O.2   236  ASP236     -0.2867
    183  CB       -16.0320   41.4440   -4.8910 C.3   236  ASP236      0.1410
    184  CG       -17.3940   41.3000   -5.5420 C.2   236  ASP236      0.3668
    185  OD1      -17.4870   40.6700   -6.6250 O.co2 236  ASP236     -0.2456
    186  OD2      -18.3760   41.8190   -4.9670 O.co2 236  ASP236     -0.2456
    187  N        -14.1140   43.2300  -13.9700 N.3   246  LYS246     -0.1245
    188  CA       -15.3970   42.6490  -13.5800 C.3   246  LYS246      0.1561
    189  C        -16.0350   43.4930  -12.4890 C.2   246  LYS246      0.2260
    190  O        -15.3470   44.1230  -11.6830 O.2   246  LYS246     -0.2867
    191  CB       -15.2520   41.1950  -13.0960 C.3   246  LYS246      0.0271
    192  CG       -14.3220   41.0200  -11.8940 C.3   246  LYS246      0.0035
    193  CD       -14.0690   39.5530  -11.5470 C.3   246  LYS246      0.0206
    194  CE       -13.1900   39.4540  -10.3070 C.3   246  LYS246      0.1093
    195  NZ       -13.0390   38.0470   -9.7980 N.3   246  LYS246     -0.1314
    196  N        -21.0250   40.6210   -4.7610 N.3   250  ASP250     -0.1239
    197  CA       -21.0950   39.8270   -3.5340 C.3   250  ASP250      0.1674
    198  C        -22.2000   40.3130   -2.5960 C.2   250  ASP250      0.2266
    199  O        -22.9270   39.4990   -2.0120 O.2   250  ASP250     -0.2867
    200  CB       -19.7400   39.8380   -2.8270 C.3   250  ASP250      0.1410
    201  CG       -18.6960   39.0070   -3.5590 C.2   250  ASP250      0.3668
    202  OD1      -19.1030   38.1660   -4.4070 O.co2 250  ASP250     -0.2456
    203  OD2      -17.4850   39.1700   -3.2900 O.co2 250  ASP250     -0.2456
    204  N        -23.5190   36.9180   -0.5780 N.3   255  LYS255     -0.1245
    205  CA       -22.3900   36.0010   -0.4880 C.3   255  LYS255      0.1561
    206  C        -21.7170   36.0630    0.8710 C.2   255  LYS255      0.2260
    207  O        -21.6800   37.1030    1.5290 O.2   255  LYS255     -0.2867
    208  CB       -21.3570   36.3130   -1.5650 C.3   255  LYS255      0.0271
    209  CG       -21.7550   35.8170   -2.9260 C.3   255  LYS255      0.0035
    210  CD       -22.2940   34.3960   -2.8160 C.3   255  LYS255      0.0206
    211  CE       -22.9850   33.9900   -4.1030 C.3   255  LYS255      0.1093
    212  NZ       -22.2760   34.6300   -5.2640 N.3   255  LYS255     -0.1314
@<TRIPOS>BOND
     1    87    88    2
     2    87    86    1
     3    85    86    1
     4    86    89    1
     5    89    90    1
     6    77    76    2
     7    90    92   am
     8    90    91    2
     9     1     2    1
    10    76    75    1
    11     2     5    1
    12     2     3    1
    13     5     6    1
    14    74    75    1
    15     7     6   ar
    16     7     9   ar
    17    79    78    1
    18    79    80    1
    19    78    75    1
    20     6     8   ar
    21     9    11   ar
    22     3     4    2
    23     3    12   am
    24    31    32    1
    25    51    49   ar
    26     8    10   ar
    27    80    81    1
    28    25    26    2
    29    25    24    1
    30    27    24    1
    31    27    28    1
    32    71    70    2
    33    32    35    1
    34    32    33    1
    35    11    10   ar
    36    48    49    1
    37    48    45    1
    38    12    13    1
    39    49    50   ar
    40    81    82    2
    41    29    28    1
    42    24    23    1
    43    23    14   am
    44    70    69    1
    45    28    30    1
    46    46    45    1
    47    46    47    2
    48    14    13    1
    49    14    15    2
    50    33    34    2
    51    33    36   am
    52    45    44    1
    53    13    16    1
    54   187   188    1
    55    44    38   am
    56    82    83    1
    57    82    84    1
    58   188   191    1
    59   188   189    1
    60    36    37    1
    61    69    72    1
    62    69    68    1
    63    72    73    1
    64   191   192    1
    65    16    17    1
    66    52    53    1
    67    38    37    1
    68    38    39    2
    69    17    18   ar
    70    17    19   ar
    71   189   190    2
    72    18    20   ar
    73    37    40    1
    74    20    22   ar
    75    19    21   ar
    76   192   193    1
    77   108   106   ar
    78    22    21   ar
    79    40    41    1
    80   193   194    1
    81    59    58    1
    82    53    56    1
    83    53    54    1
    84    57    56    1
    85    57    58    1
    86   151   149   ar
    87   151   152   ar
    88   106   107   ar
    89   106   105    1
    90    60    54   am
    91    60    61    1
    92   149   147   ar
    93    62    61    1
    94    62    63    2
    95    54    55    2
    96    43    41   ar
    97   153   152    1
    98   194   195    1
    99    41    42   ar
   100   152   150   ar
   101   145   144    2
   102    61    64    1
   103   105   104    1
   104    64    65    1
   105   147   146    1
   106   147   148   ar
   107    98    97    1
   108   146   143    1
   109   150   148   ar
   110   144   143    1
   111    65    67   ar
   112    65    66   ar
   113   117   115   am
   114   104   101    1
   115   143   142    1
   116    97    99    1
   117    97    94    1
   118   115   114    1
   119   115   116    2
   120   114   113    1
   121   101   100    1
   122   101   102    1
   123   100    95   am
   124   169   168   ar
   125    94    95    1
   126    94    93    1
   127    95    96    2
   128   113   110    1
   129   185   184   ar
   130   129   128    2
   131   168   170   ar
   132   168   167    1
   133   182   181    2
   134   102   103    2
   135   138   137    2
   136   184   186   ar
   137   184   183    1
   138   180   181    1
   139   180   179    1
   140   180   183    1
   141   212   211    1
   142   110   109    1
   143   110   111    1
   144   167   164    1
   145   128   135   am
   146   128   127    1
   147   136   137    1
   148   136   139    1
   149   136   135    1
   150   140   139    1
   151   141   139    1
   152   196   197    1
   153   164   165    1
   154   164   163    1
   155   166   165    2
   156   161   160    2
   157   111   112    2
   158   202   201   ar
   159   127   130    1
   160   127   126    1
   161   124   123   ar
   162   130   131    1
   163   211   210    1
   164   165   171   am
   165   162   160   am
   166   132   131    1
   167   132   133    1
   168   134   133    1
   169   160   159    1
   170   201   203   ar
   171   201   200    1
   172   197   200    1
   173   197   198    1
   174   123   125   ar
   175   123   122    1
   176   122   119    1
   177   209   210    1
   178   209   208    1
   179   171   172    1
   180   198   199    2
   181   155   154    1
   182   155   158    1
   183   155   156    1
   184   159   158    1
   185   177   176   ar
   186   174   173    2
   187   172   173    1
   188   172   175    1
   189   157   156    2
   190   120   119    1
   191   120   121    2
   192   119   118    1
   193   208   205    1
   194   176   175    1
   195   176   178   ar
   196   204   205    1
   197   205   206    1
   198   206   207    2
