@<TRIPOS>MOLECULE
tmp/5ygkC00.pdb
 116 110 0 0 0
SMALL
GASTEIGER

@<TRIPOS>ATOM
      1  N         -6.0660   -7.1890  -12.2220 N.3     7  LEU7       -0.1231
      2  CA        -4.7040   -7.5770  -12.5700 C.3     7  LEU7        0.1678
      3  C         -4.2070   -6.5600  -13.5870 C.2     7  LEU7        0.2434
      4  O         -4.4810   -6.6930  -14.7840 O.2     7  LEU7       -0.2733
      5  CB        -4.6670   -8.9750  -13.1680 C.3     7  LEU7        0.0284
      6  CG        -4.6560  -10.2130  -12.2300 C.3     7  LEU7        0.0019
      7  CD1       -5.8560  -10.2260  -11.3030 C.3     7  LEU7        0.0001
      8  CD2       -4.6770  -11.4560  -13.0810 C.3     7  LEU7        0.0001
      9  N         -3.5010   -5.5090  -13.1670 N.am    8  PRO8       -0.2718
     10  CA        -3.0300   -4.4940  -14.1260 C.3     8  PRO8        0.1535
     11  C         -1.7720   -4.9570  -14.8350 C.2     8  PRO8        0.2598
     12  O         -0.7220   -5.1500  -14.2160 O.2     8  PRO8       -0.2715
     13  CB        -2.7840   -3.2620  -13.2430 C.3     8  PRO8        0.0310
     14  CG        -2.7840   -3.7560  -11.7940 C.3     8  PRO8        0.0237
     15  CD        -3.1440   -5.2070  -11.7720 C.3     8  PRO8        0.0939
     16  N         -1.8860   -5.1820  -16.1310 N.am    9  ASP9       -0.1972
     17  CA        -0.8060   -5.7590  -16.9110 C.3     9  ASP9        0.1709
     18  C         -0.5290   -4.8900  -18.1310 C.2     9  ASP9        0.2293
     19  O         -1.4230   -4.2140  -18.6330 O.2     9  ASP9       -0.2864
     20  CB        -1.1520   -7.1750  -17.3400 C.3     9  ASP9        0.1436
     21  CG         0.0290   -7.9160  -17.9120 C.2     9  ASP9        0.3671
     22  OD1        1.1930   -7.5270  -17.6480 O.co2   9  ASP9       -0.2456
     23  OD2       -0.2230   -8.8880  -18.6430 O.co2   9  ASP9       -0.2456
     24  N         -3.6100   -7.0060   -7.6440 N.3    51  THR51      -0.1203
     25  CA        -2.4020   -7.8070   -7.5520 C.3    51  THR51       0.1994
     26  C         -1.2120   -6.9170   -7.9140 C.2    51  THR51       0.2618
     27  O         -0.9790   -6.6040   -9.0810 O.2    51  THR51      -0.2717
     28  CB        -2.5210   -9.0310   -8.4380 C.3    51  THR51       0.1784
     29  OG1       -2.7150   -8.5970   -9.7750 O.3    51  THR51      -0.2211
     30  CG2       -3.7500   -9.8920   -8.0190 C.3    51  THR51       0.0376
     31  N         -0.4850   -6.4470   -6.9020 N.am   52  ALA52      -0.1965
     32  CA         0.7030   -5.6430   -7.1700 C.3    52  ALA52       0.1728
     33  C          1.8180   -6.4720   -7.7960 C.2    52  ALA52       0.2617
     34  O          2.5820   -5.9550   -8.6150 O.2    52  ALA52      -0.2715
     35  CB         1.1920   -4.9800   -5.8890 C.3    52  ALA52       0.0334
     36  N          1.9380   -7.7530   -7.4430 N.am   53  SER53      -0.1936
     37  CA         3.0420   -8.5130   -8.0130 C.3    53  SER53       0.2055
     38  C          2.8300   -9.9990   -7.7970 C.2    53  SER53       0.2643
     39  O          2.1440  -10.4210   -6.8600 O.2    53  SER53      -0.2714
     40  CB         4.3810   -8.0910   -7.3910 C.3    53  SER53       0.2130
     41  OG         4.3460   -8.3160   -5.9920 O.3    53  SER53      -0.2179
     42  N          3.4480  -10.7770   -8.6740 N.am   54  SER54      -0.1949
     43  CA         3.6220  -12.2060   -8.4680 C.3    54  SER54       0.1924
     44  C          4.9290  -12.4560   -7.7170 C.2    54  SER54       0.2314
     45  O          5.7980  -11.5870   -7.6280 O.2    54  SER54      -0.2863
     46  CB         3.6690  -12.9440   -9.8020 C.3    54  SER54       0.2116
     47  OG         4.8570  -12.5800  -10.4860 O.3    54  SER54      -0.2180
     48  N          7.7950  -11.8510  -10.0450 N.3    57  ASN57      -0.1240
     49  CA         8.1410  -10.4580  -10.3140 C.3    57  ASN57       0.1653
     50  C          9.1880   -9.9550   -9.3370 C.2    57  ASN57       0.2266
     51  O          9.9780   -9.0700   -9.6770 O.2    57  ASN57      -0.2867
     52  CB         6.9090   -9.5500  -10.2000 C.3    57  ASN57       0.1155
     53  CG         5.8710   -9.7960  -11.2680 C.2    57  ASN57       0.2627
     54  OD1        4.6870   -9.5810  -11.0270 O.2    57  ASN57      -0.2716
     55  ND2        6.2930  -10.2610  -12.4430 N.am   57  ASN57      -0.0877
     56  N         12.9590  -10.3010  -10.2110 N.3    60  ARG60      -0.1245
     57  CA        13.5470   -9.2750  -11.0590 C.3    60  ARG60       0.1563
     58  C         14.6390   -8.5540  -10.2790 C.2    60  ARG60       0.2260
     59  O         14.7940   -8.7820   -9.0700 O.2    60  ARG60      -0.2867
     60  CB        12.4630   -8.3000  -11.5380 C.3    60  ARG60       0.0307
     61  CG        11.4170   -8.9200  -12.4560 C.3    60  ARG60       0.0489
     62  CD        10.4260   -7.8640  -12.9430 C.3    60  ARG60       0.2205
     63  NE         9.3900   -8.4240  -13.8080 N.pl3  60  ARG60      -0.0865
     64  CZ         8.4250   -7.7050  -14.3820 C.cat  60  ARG60       0.5346
     65  NH1        8.3600   -6.3880  -14.1900 N.pl3  60  ARG60       0.1354
     66  NH2        7.5200   -8.2990  -15.1530 N.pl3  60  ARG60       0.1354
     67  N          3.2150    1.5160   -6.8810 N.3    72  PHE72      -0.1241
     68  CA         2.0620    1.0590   -6.1130 C.3    72  PHE72       0.1605
     69  C          1.9650    1.7850   -4.7780 C.2    72  PHE72       0.2264
     70  O          0.8660    2.1230   -4.3270 O.2    72  PHE72      -0.2867
     71  CB         2.1350   -0.4520   -5.8600 C.3    72  PHE72       0.0534
     72  CG         1.7390   -1.2850   -7.0390 C.ar   72  PHE72      -0.0203
     73  CD1        0.4130   -1.3620   -7.4320 C.ar   72  PHE72      -0.0042
     74  CD2        2.6850   -2.0000   -7.7470 C.ar   72  PHE72      -0.0042
     75  CE1        0.0370   -2.1350   -8.5020 C.ar   72  PHE72      -0.0003
     76  CE2        2.3160   -2.7770   -8.8260 C.ar   72  PHE72      -0.0003
     77  CZ         0.9790   -2.8360   -9.2110 C.ar   72  PHE72      -0.0000
     78  N         -8.5130   -9.1090  -15.9530 N.3   163  ARG163     -0.1245
     79  CA        -7.1110   -9.1120  -16.3290 C.3   163  ARG163      0.1563
     80  C         -6.9230   -8.2790  -17.5870 C.2   163  ARG163      0.2260
     81  O         -7.4180   -8.6510  -18.6530 O.2   163  ARG163     -0.2867
     82  CB        -6.5890  -10.5110  -16.5860 C.3   163  ARG163      0.0307
     83  CG        -5.1620  -10.3760  -17.0880 C.3   163  ARG163      0.0489
     84  CD        -4.3750  -11.6390  -17.1260 C.3   163  ARG163      0.2205
     85  NE        -2.9620  -11.3250  -17.3540 N.pl3 163  ARG163     -0.0865
     86  CZ        -1.9710  -12.1550  -17.0630 C.cat 163  ARG163      0.5346
     87  NH1       -2.2330  -13.3470  -16.5360 N.pl3 163  ARG163      0.1354
     88  NH2       -0.7150  -11.7950  -17.2920 N.pl3 163  ARG163      0.1354
     89  N         -4.7250  -16.0130  -19.4260 N.3   169  ARG169     -0.1245
     90  CA        -4.1210  -16.9120  -18.4630 C.3   169  ARG169      0.1563
     91  C         -4.1840  -16.1870  -17.1260 C.2   169  ARG169      0.2260
     92  O         -4.3620  -14.9700  -17.0800 O.2   169  ARG169     -0.2867
     93  CB        -2.6830  -17.2690  -18.8580 C.3   169  ARG169      0.0307
     94  CG        -1.8220  -16.0100  -19.1700 C.3   169  ARG169      0.0489
     95  CD        -0.3310  -16.3520  -19.3910 C.3   169  ARG169      0.2205
     96  NE         0.4920  -15.1490  -19.5710 N.pl3 169  ARG169     -0.0865
     97  CZ         0.8860  -14.6690  -20.7510 C.cat 169  ARG169      0.5346
     98  NH1        0.5620  -15.2940  -21.8740 N.pl3 169  ARG169      0.1354
     99  NH2        1.6310  -13.5730  -20.8090 N.pl3 169  ARG169      0.1354
    100  N         -1.6700  -16.5830  -14.7790 N.3   171  SER171     -0.1217
    101  CA        -0.3100  -16.4090  -14.2930 C.3   171  SER171      0.1889
    102  C         -0.3180  -16.9440  -12.8580 C.2   171  SER171      0.2288
    103  O         -0.8420  -18.0400  -12.6240 O.2   171  SER171     -0.2866
    104  CB         0.0750  -14.9560  -14.4820 C.3   171  SER171      0.2089
    105  OG        -0.0440  -14.6070  -15.8640 O.3   171  SER171     -0.2183
    106  N         -1.9600  -15.5540  -10.2770 N.3   173  PHE173     -0.1241
    107  CA        -2.8840  -14.7280   -9.5220 C.3   173  PHE173      0.1605
    108  C         -4.2260  -15.3850   -9.2360 C.2   173  PHE173      0.2264
    109  O         -5.1340  -14.6920   -8.7760 O.2   173  PHE173     -0.2867
    110  CB        -3.1140  -13.3980  -10.2470 C.3   173  PHE173      0.0534
    111  CG        -1.8410  -12.7060  -10.6000 C.ar  173  PHE173     -0.0203
    112  CD1       -1.0620  -12.1490   -9.5970 C.ar  173  PHE173     -0.0042
    113  CD2       -1.4090  -12.6220  -11.9130 C.ar  173  PHE173     -0.0042
    114  CE1        0.1270  -11.5250   -9.9000 C.ar  173  PHE173     -0.0003
    115  CE2       -0.2260  -11.9860  -12.2220 C.ar  173  PHE173     -0.0003
    116  CZ         0.5470  -11.4370  -11.2140 C.ar  173  PHE173     -0.0000
@<TRIPOS>BOND
     1    98    97    1
     2    99    97    1
     3    97    96    2
     4    96    95    1
     5    89    90    1
     6    95    94    1
     7    94    93    1
     8    93    90    1
     9    81    80    2
    10    23    21   ar
    11    19    18    2
    12    90    91    1
    13    18    17    1
    14    21    22   ar
    15    21    20    1
    16    80    79    1
    17    85    84    1
    18    85    86    2
    19    20    17    1
    20    88    86    1
    21    91    92    2
    22    84    83    1
    23    83    82    1
    24    86    87    1
    25    17    16    1
    26    82    79    1
    27    79    78    1
    28    16    11   am
    29   105   104    1
    30    66    64    1
    31    11    12    2
    32    11    10    1
    33     4     3    2
    34   100   101    1
    35   104   101    1
    36    64    65    1
    37    64    63    2
    38   101   102    1
    39    10    13    1
    40    10     9    1
    41    63    62    1
    42     3     9   am
    43     3     2    1
    44    13    14    1
    45     5     2    1
    46     5     6    1
    47     9    15    1
    48     8     6    1
    49    62    61    1
    50   102   103    2
    51     2     1    1
    52    61    60    1
    53    55    53   am
    54     6     7    1
    55   115   113   ar
    56   115   116   ar
    57   113   111   ar
    58    14    15    1
    59    60    57    1
    60    53    54    2
    61    53    52    1
    62   116   114   ar
    63    57    58    1
    64    57    56    1
    65   111   110    1
    66   111   112   ar
    67    47    46    1
    68    49    52    1
    69    49    48    1
    70    49    50    1
    71    58    59    2
    72   106   107    1
    73   110   107    1
    74   114   112   ar
    75    46    43    1
    76    29    28    1
    77    51    50    2
    78   107   108    1
    79   108   109    2
    80    77    76   ar
    81    77    75   ar
    82    27    26    2
    83    76    74   ar
    84    42    43    1
    85    42    38   am
    86    34    33    2
    87    75    73   ar
    88    43    44    1
    89    28    30    1
    90    28    25    1
    91    37    38    1
    92    37    36    1
    93    37    40    1
    94    26    25    1
    95    26    31   am
    96    38    39    2
    97    33    36   am
    98    33    32    1
    99    74    72   ar
   100    44    45    2
   101    24    25    1
   102    73    72   ar
   103    40    41    1
   104    32    31    1
   105    32    35    1
   106    72    71    1
   107    67    68    1
   108    68    71    1
   109    68    69    1
   110    69    70    2
