@<TRIPOS>MOLECULE
tmp/5ygkC01.pdb
 136 131 0 0 0
SMALL
GASTEIGER

@<TRIPOS>ATOM
      1  N         -3.5010   -5.5090  -13.1670 N.3     8  PRO8       -0.2102
      2  CA        -3.0300   -4.4940  -14.1260 C.3     8  PRO8        0.1504
      3  C         -1.7720   -4.9570  -14.8350 C.2     8  PRO8        0.2576
      4  O         -0.7220   -5.1500  -14.2160 O.2     8  PRO8       -0.2718
      5  CB        -2.7840   -3.2620  -13.2430 C.3     8  PRO8        0.0282
      6  CG        -2.7840   -3.7560  -11.7940 C.3     8  PRO8        0.0208
      7  CD        -3.1440   -5.2070  -11.7720 C.3     8  PRO8        0.0893
      8  N         -1.8860   -5.1820  -16.1310 N.am    9  ASP9       -0.1960
      9  CA        -0.8060   -5.7590  -16.9110 C.3     9  ASP9        0.1840
     10  C         -0.5290   -4.8900  -18.1310 C.2     9  ASP9        0.2623
     11  O         -1.4230   -4.2140  -18.6330 O.2     9  ASP9       -0.2715
     12  CB        -1.1520   -7.1750  -17.3400 C.3     9  ASP9        0.1450
     13  CG         0.0290   -7.9160  -17.9120 C.2     9  ASP9        0.3671
     14  OD1        1.1930   -7.5270  -17.6480 O.co2   9  ASP9       -0.2456
     15  OD2       -0.2230   -8.8880  -18.6430 O.co2   9  ASP9       -0.2456
     16  N          0.7260   -4.8950  -18.5820 N.am   10  GLY10      -0.1940
     17  CA         1.1060   -4.2330  -19.8080 C.3    10  GLY10       0.2014
     18  C          1.8560   -2.9080  -19.7030 C.2    10  GLY10       0.2639
     19  O          1.9390   -2.1900  -20.7140 O.2    10  GLY10      -0.2714
     20  N          2.3780   -2.5640  -18.5530 N.am   11  MET11      -0.1963
     21  CA         3.0810   -1.3100  -18.3840 C.3    11  MET11       0.1736
     22  C          4.3230   -1.1810  -19.2450 C.2    11  MET11       0.2616
     23  O          4.6340   -0.1390  -19.7070 O.2    11  MET11      -0.2715
     24  CB         3.4610   -1.1010  -16.9370 C.3    11  MET11       0.0427
     25  CG         2.4230   -0.3960  -16.1030 C.3    11  MET11       0.0599
     26  SD         0.7550   -0.9710  -16.2480 S.3    11  MET11      -0.1393
     27  CE         0.8640   -2.3340  -15.1790 C.3    11  MET11       0.0692
     28  N          5.0300   -2.2610  -19.4540 N.am   12  ARG12      -0.1963
     29  CA         6.2430   -2.1880  -20.2580 C.3    12  ARG12       0.1729
     30  C          5.8960   -1.9410  -21.7180 C.2    12  ARG12       0.2616
     31  O          6.4650   -1.0480  -22.3560 O.2    12  ARG12      -0.2715
     32  CB         7.0740   -3.4710  -20.0910 C.3    12  ARG12       0.0348
     33  CG         8.3990   -3.4420  -20.8420 C.3    12  ARG12       0.0492
     34  CD         9.0070   -4.8320  -20.9010 C.3    12  ARG12       0.2205
     35  NE         7.9780   -5.8200  -21.2430 N.pl3  12  ARG12      -0.0865
     36  CZ         7.5940   -6.1270  -22.4840 C.cat  12  ARG12       0.5346
     37  NH1        6.6350   -7.0320  -22.6830 N.pl3  12  ARG12       0.1354
     38  NH2        8.1680   -5.5410  -23.5300 N.pl3  12  ARG12       0.1354
     39  N          4.9360   -2.7070  -22.2550 N.am   13  ARG13      -0.1977
     40  CA         4.4980   -2.5030  -23.6310 C.3    13  ARG13       0.1597
     41  C          3.9600   -1.0940  -23.8300 C.2    13  ARG13       0.2287
     42  O          4.2150   -0.4650  -24.8640 O.2    13  ARG13      -0.2864
     43  CB         3.4420   -3.5490  -24.0120 C.3    13  ARG13       0.0334
     44  CG         4.0110   -4.9160  -24.3460 C.3    13  ARG13       0.0492
     45  CD         2.8890   -5.9630  -24.3730 C.3    13  ARG13       0.2205
     46  NE         2.3980   -6.2600  -23.0280 N.pl3  13  ARG13      -0.0865
     47  CZ         1.2790   -6.9250  -22.7890 C.cat  13  ARG13       0.5346
     48  NH1        0.8790   -7.1610  -21.5440 N.pl3  13  ARG13       0.1354
     49  NH2        0.5440   -7.3320  -23.8130 N.pl3  13  ARG13       0.1354
     50  N         10.1110    3.4270  -18.3480 N.3    22  LEU22      -0.1245
     51  CA         9.2830    2.4750  -17.6230 C.3    22  LEU22       0.1561
     52  C          8.7720    3.0970  -16.3310 C.2    22  LEU22       0.2260
     53  O          7.6430    2.8200  -15.9060 O.2    22  LEU22      -0.2867
     54  CB        10.0870    1.2090  -17.3380 C.3    22  LEU22       0.0270
     55  CG         9.4130    0.0450  -16.6240 C.3    22  LEU22       0.0019
     56  CD1        8.1790   -0.4300  -17.3990 C.3    22  LEU22       0.0001
     57  CD2       10.4140   -1.1070  -16.4060 C.3    22  LEU22       0.0001
     58  N          4.7750    3.1350  -15.1030 N.3    26  TYR26      -0.1241
     59  CA         4.2810    2.8520  -13.7660 C.3    26  TYR26       0.1605
     60  C          3.6220    4.0650  -13.1300 C.2    26  TYR26       0.2264
     61  O          2.7230    3.9030  -12.3120 O.2    26  TYR26      -0.2867
     62  CB         5.4150    2.3130  -12.8810 C.3    26  TYR26       0.0534
     63  CG         5.7490    0.8690  -13.1700 C.ar   26  TYR26      -0.0201
     64  CD1        4.8010   -0.1210  -12.9880 C.ar   26  TYR26      -0.0009
     65  CD2        7.0110    0.4870  -13.6150 C.ar   26  TYR26      -0.0009
     66  CE1        5.0780   -1.4500  -13.2500 C.ar   26  TYR26       0.0417
     67  CE2        7.3090   -0.8600  -13.8710 C.ar   26  TYR26       0.0417
     68  CZ         6.3300   -1.8190  -13.6920 C.ar   26  TYR26       0.1957
     69  OH         6.5880   -3.1570  -13.9400 O.3    26  TYR26      -0.2866
     70  N          0.3130    3.9240  -14.6110 N.3    29  MET29      -0.1245
     71  CA        -0.4370    2.8640  -13.9490 C.3    29  MET29       0.1570
     72  C         -1.0400    3.3750  -12.6450 C.2    29  MET29       0.2261
     73  O         -2.2310    3.1910  -12.3810 O.2    29  MET29      -0.2867
     74  CB         0.4720    1.6640  -13.6700 C.3    29  MET29       0.0387
     75  CG        -0.1910    0.6030  -12.8140 C.3    29  MET29       0.0595
     76  SD         1.0020   -0.5170  -12.0100 S.3    29  MET29      -0.1393
     77  CE         1.5390    0.5370  -10.6670 C.3    29  MET29       0.0692
     78  N         -3.6100   -7.0060   -7.6440 N.3    51  THR51      -0.1203
     79  CA        -2.4020   -7.8070   -7.5520 C.3    51  THR51       0.1994
     80  C         -1.2120   -6.9170   -7.9140 C.2    51  THR51       0.2618
     81  O         -0.9790   -6.6040   -9.0810 O.2    51  THR51      -0.2717
     82  CB        -2.5210   -9.0310   -8.4380 C.3    51  THR51       0.1784
     83  OG1       -2.7150   -8.5970   -9.7750 O.3    51  THR51      -0.2211
     84  CG2       -3.7500   -9.8920   -8.0190 C.3    51  THR51       0.0376
     85  N         -0.4850   -6.4470   -6.9020 N.am   52  ALA52      -0.1965
     86  CA         0.7030   -5.6430   -7.1700 C.3    52  ALA52       0.1728
     87  C          1.8180   -6.4720   -7.7960 C.2    52  ALA52       0.2616
     88  O          2.5820   -5.9550   -8.6150 O.2    52  ALA52      -0.2715
     89  CB         1.1920   -4.9800   -5.8890 C.3    52  ALA52       0.0334
     90  N          1.9380   -7.7530   -7.4430 N.am   53  SER53      -0.1950
     91  CA         3.0420   -8.5130   -8.0130 C.3    53  SER53       0.1924
     92  C          2.8300   -9.9990   -7.7970 C.2    53  SER53       0.2314
     93  O          2.1440  -10.4210   -6.8600 O.2    53  SER53      -0.2863
     94  CB         4.3810   -8.0910   -7.3910 C.3    53  SER53       0.2116
     95  OG         4.3460   -8.3160   -5.9920 O.3    53  SER53      -0.2180
     96  N          7.7950  -11.8510  -10.0450 N.3    57  ASN57      -0.1240
     97  CA         8.1410  -10.4580  -10.3140 C.3    57  ASN57       0.1653
     98  C          9.1880   -9.9550   -9.3370 C.2    57  ASN57       0.2266
     99  O          9.9780   -9.0700   -9.6770 O.2    57  ASN57      -0.2867
    100  CB         6.9090   -9.5500  -10.2000 C.3    57  ASN57       0.1155
    101  CG         5.8710   -9.7960  -11.2680 C.2    57  ASN57       0.2627
    102  OD1        4.6870   -9.5810  -11.0270 O.2    57  ASN57      -0.2716
    103  ND2        6.2930  -10.2610  -12.4430 N.am   57  ASN57      -0.0877
    104  N         12.9590  -10.3010  -10.2110 N.3    60  ARG60      -0.1245
    105  CA        13.5470   -9.2750  -11.0590 C.3    60  ARG60       0.1563
    106  C         14.6390   -8.5540  -10.2790 C.2    60  ARG60       0.2260
    107  O         14.7940   -8.7820   -9.0700 O.2    60  ARG60      -0.2867
    108  CB        12.4630   -8.3000  -11.5380 C.3    60  ARG60       0.0307
    109  CG        11.4170   -8.9200  -12.4560 C.3    60  ARG60       0.0489
    110  CD        10.4260   -7.8640  -12.9430 C.3    60  ARG60       0.2205
    111  NE         9.3900   -8.4240  -13.8080 N.pl3  60  ARG60      -0.0865
    112  CZ         8.4250   -7.7050  -14.3820 C.cat  60  ARG60       0.5346
    113  NH1        8.3600   -6.3880  -14.1900 N.pl3  60  ARG60       0.1354
    114  NH2        7.5200   -8.2990  -15.1530 N.pl3  60  ARG60       0.1354
    115  N          8.4480   -0.7920   -9.5160 N.3    68  PHE68      -0.1241
    116  CA         7.0100   -1.0160   -9.4240 C.3    68  PHE68       0.1605
    117  C          6.5120   -0.8740   -7.9880 C.2    68  PHE68       0.2264
    118  O          5.4270   -0.3270   -7.7760 O.2    68  PHE68      -0.2867
    119  CB         6.5940   -2.3410  -10.0980 C.3    68  PHE68       0.0534
    120  CG         7.0310   -3.6210   -9.4040 C.ar   68  PHE68      -0.0203
    121  CD1        6.3950   -4.0750   -8.2580 C.ar   68  PHE68      -0.0042
    122  CD2        7.9850   -4.4320   -9.9920 C.ar   68  PHE68      -0.0042
    123  CE1        6.7840   -5.2770   -7.6580 C.ar   68  PHE68      -0.0003
    124  CE2        8.3740   -5.6320   -9.4050 C.ar   68  PHE68      -0.0003
    125  CZ         7.7790   -6.0600   -8.2410 C.ar   68  PHE68      -0.0000
    126  N          3.2150    1.5160   -6.8810 N.3    72  PHE72      -0.1241
    127  CA         2.0620    1.0590   -6.1130 C.3    72  PHE72       0.1605
    128  C          1.9650    1.7850   -4.7780 C.2    72  PHE72       0.2264
    129  O          0.8660    2.1230   -4.3270 O.2    72  PHE72      -0.2867
    130  CB         2.1350   -0.4520   -5.8600 C.3    72  PHE72       0.0534
    131  CG         1.7390   -1.2850   -7.0390 C.ar   72  PHE72      -0.0203
    132  CD1        0.4130   -1.3620   -7.4320 C.ar   72  PHE72      -0.0042
    133  CD2        2.6850   -2.0000   -7.7470 C.ar   72  PHE72      -0.0042
    134  CE1        0.0370   -2.1350   -8.5020 C.ar   72  PHE72      -0.0003
    135  CE2        2.3160   -2.7770   -8.8260 C.ar   72  PHE72      -0.0003
    136  CZ         0.9790   -2.8360   -9.2110 C.ar   72  PHE72      -0.0000
@<TRIPOS>BOND
     1    42    41    2
     2    45    44    1
     3    45    46    1
     4    44    43    1
     5    43    40    1
     6    41    40    1
     7    49    47    1
     8    40    39    1
     9    38    36    1
    10    46    47    2
    11    47    48    1
    12    37    36    1
    13    36    35    2
    14    31    30    2
    15    39    30   am
    16    30    29    1
    17    35    34    1
    18    34    33    1
    19    33    32    1
    20    19    18    2
    21    29    32    1
    22    29    28    1
    23    17    18    1
    24    17    16    1
    25    23    22    2
    26    18    20   am
    27    28    22   am
    28    22    21    1
    29    15    13   ar
    30    11    10    2
    31    16    10   am
    32    20    21    1
    33    21    24    1
    34    50    51    1
    35    10     9    1
    36    13    14   ar
    37    13    12    1
    38    51    54    1
    39    51    52    1
    40    56    55    1
    41    12     9    1
    42    54    55    1
    43    24    25    1
    44     9     8    1
    45    55    57    1
    46    52    53    2
    47    26    25    1
    48    26    27    1
    49     8     3   am
    50   114   112    1
    51    58    59    1
    52     3     4    2
    53     3     2    1
    54    70    71    1
    55   112   113    1
    56   112   111    2
    57     2     5    1
    58     2     1    1
    59    71    74    1
    60    71    72    1
    61    69    68    1
    62    67    68   ar
    63    67    65   ar
    64   111   110    1
    65    59    60    1
    66    59    62    1
    67    68    66   ar
    68    74    75    1
    69    65    63   ar
    70    66    64   ar
    71     5     6    1
    72    63    64   ar
    73    63    62    1
    74     1     7    1
    75    60    61    2
    76   110   109    1
    77    75    76    1
    78    72    73    2
    79   109   108    1
    80   103   101   am
    81    76    77    1
    82     6     7    1
    83   108   105    1
    84   101   102    2
    85   101   100    1
    86   105   106    1
    87   105   104    1
    88    97   100    1
    89    97    96    1
    90    97    98    1
    91   106   107    2
    92   119   116    1
    93   119   120    1
    94   122   124   ar
    95   122   120   ar
    96    83    82    1
    97    99    98    2
    98   115   116    1
    99   116   117    1
   100   124   125   ar
   101   120   121   ar
   102   136   135   ar
   103   136   134   ar
   104    81    80    2
   105   135   133   ar
   106    88    87    2
   107   134   132   ar
   108    82    84    1
   109    82    79    1
   110   121   123   ar
   111   125   123   ar
   112    91    92    1
   113    91    90    1
   114    91    94    1
   115   117   118    2
   116    80    79    1
   117    80    85   am
   118    92    93    2
   119    87    90   am
   120    87    86    1
   121   133   131   ar
   122    78    79    1
   123   132   131   ar
   124    94    95    1
   125    86    85    1
   126    86    89    1
   127   131   130    1
   128   126   127    1
   129   127   130    1
   130   127   128    1
   131   128   129    2
