@<TRIPOS>MOLECULE
tmp/5ygsD00.pdb
 206 202 0 0 0
SMALL
GASTEIGER

@<TRIPOS>ATOM
      1  N         40.2460   -1.4170   14.2990 N.3    13  ASN13      -0.1240
      2  CA        41.1890   -1.9540   13.3330 C.3    13  ASN13       0.1653
      3  C         42.1460   -2.9510   13.9880 C.2    13  ASN13       0.2266
      4  O         42.3960   -2.9210   15.1960 O.2    13  ASN13      -0.2867
      5  CB        41.9870   -0.8300   12.6800 C.3    13  ASN13       0.1155
      6  CG        42.6740   -1.2760   11.4140 C.2    13  ASN13       0.2627
      7  OD1       42.2810   -2.2680   10.7980 O.2    13  ASN13      -0.2716
      8  ND2       43.7100   -0.5480   11.0140 N.am   13  ASN13      -0.0877
      9  N         45.3420   -3.1810   13.5770 N.3    15  ASP15      -0.1225
     10  CA        46.6370   -2.6230   13.9350 C.3    15  ASP15       0.1805
     11  C         46.6100   -1.8980   15.2740 C.2    15  ASP15       0.2597
     12  O         47.6690   -1.4830   15.7580 O.2    15  ASP15      -0.2718
     13  CB        47.1280   -1.6680   12.8390 C.3    15  ASP15       0.1424
     14  CG        46.2140   -0.4730   12.6420 C.2    15  ASP15       0.3668
     15  OD1       45.2790   -0.2860   13.4470 O.co2  15  ASP15      -0.2456
     16  OD2       46.4320    0.2800   11.6710 O.co2  15  ASP15      -0.2456
     17  N         45.4380   -1.7400   15.8800 N.am   16  LYS16      -0.1979
     18  CA        45.3020   -1.1190   17.1870 C.3    16  LYS16       0.1596
     19  C         45.2560   -2.1870   18.2780 C.2    16  LYS16       0.2287
     20  O         45.1200   -3.3830   18.0110 O.2    16  LYS16      -0.2864
     21  CB        44.0410   -0.2490   17.2360 C.3    16  LYS16       0.0298
     22  CG        43.9200    0.7660   16.0990 C.3    16  LYS16       0.0038
     23  CD        45.1090    1.7210   16.0560 C.3    16  LYS16       0.0206
     24  CE        44.8690    2.8800   15.0970 C.3    16  LYS16       0.1093
     25  NZ        44.6420    2.4270   13.7000 N.3    16  LYS16      -0.1314
     26  N         36.0170   -0.2230    7.8390 N.3    45  GLU45      -0.1231
     27  CA        35.5890    1.0920    7.3760 C.3    45  GLU45       0.1699
     28  C         34.7590    0.9850    6.1060 C.2    45  GLU45       0.2592
     29  O         33.9320    1.8610    5.8260 O.2    45  GLU45      -0.2718
     30  CB        36.8060    1.9950    7.1510 C.3    45  GLU45       0.0402
     31  CG        37.6090    1.7360    5.8670 C.3    45  GLU45       0.1161
     32  CD        38.3730    0.4220    5.8750 C.2    45  GLU45       0.3649
     33  OE1       38.3970   -0.2590    6.9230 O.co2  45  GLU45      -0.2457
     34  OE2       38.9600    0.0750    4.8250 O.co2  45  GLU45      -0.2457
     35  N         34.9710   -0.0710    5.3230 N.am   46  GLU46      -0.1979
     36  CA        34.1550   -0.3300    4.1460 C.3    46  GLU46       0.1602
     37  C         32.9520   -1.2050    4.4600 C.2    46  GLU46       0.2287
     38  O         31.9290   -1.1110    3.7710 O.2    46  GLU46      -0.2864
     39  CB        34.9940   -1.0050    3.0570 C.3    46  GLU46       0.0415
     40  CG        35.9490   -0.0810    2.3190 C.3    46  GLU46       0.1163
     41  CD        36.6770   -0.7860    1.1850 C.2    46  GLU46       0.3649
     42  OE1       36.5600   -2.0260    1.0800 O.co2  46  GLU46      -0.2457
     43  OE2       37.3600   -0.1020    0.3930 O.co2  46  GLU46      -0.2457
     44  N         37.9380    4.3790   14.4050 N.3    63  TRP63      -0.1227
     45  CA        38.6660    4.7180   13.1900 C.3    63  TRP63       0.1737
     46  C         39.1590    6.1500   13.3100 C.2    63  TRP63       0.2595
     47  O         38.7130    6.9080   14.1760 O.2    63  TRP63      -0.2718
     48  CB        37.7850    4.5600   11.9430 C.3    63  TRP63       0.0564
     49  CG        38.5550    4.4200   10.6620 C.ar   63  TRP63       0.0003
     50  CD1       38.9440    5.4230    9.8170 C.ar   63  TRP63       0.0946
     51  CD2       39.0240    3.2000   10.0780 C.ar   63  TRP63       0.0152
     52  NE1       39.6280    4.8990    8.7440 N.ar   63  TRP63      -0.2442
     53  CE2       39.6900    3.5370    8.8820 C.ar   63  TRP63       0.0810
     54  CE3       38.9460    1.8560   10.4510 C.ar   63  TRP63       0.0012
     55  CZ2       40.2730    2.5770    8.0600 C.ar   63  TRP63       0.0191
     56  CZ3       39.5270    0.9050    9.6320 C.ar   63  TRP63       0.0001
     57  CH2       40.1830    1.2700    8.4530 C.ar   63  TRP63       0.0015
     58  N         40.0930    6.5070   12.4340 N.am   64  ALA64      -0.1980
     59  CA        40.4660    7.9050   12.2960 C.3    64  ALA64       0.1597
     60  C         39.2380    8.7190   11.9040 C.2    64  ALA64       0.2287
     61  O         38.2910    8.2080   11.3000 O.2    64  ALA64      -0.2864
     62  CB        41.5760    8.0630   11.2570 C.3    64  ALA64       0.0319
     63  N         38.6230   10.8180    9.6960 N.3    66  ASP66      -0.1225
     64  CA        38.3680   11.2150    8.3160 C.3    66  ASP66       0.1805
     65  C         37.1380   10.5190    7.7430 C.2    66  ASP66       0.2597
     66  O         36.4870   11.0580    6.8410 O.2    66  ASP66      -0.2718
     67  CB        39.5900   10.9380    7.4420 C.3    66  ASP66       0.1424
     68  CG        39.9570    9.4750    7.3980 C.2    66  ASP66       0.3668
     69  OD1       40.0750    8.8570    8.4760 O.co2  66  ASP66      -0.2456
     70  OD2       40.1250    8.9410    6.2810 O.co2  66  ASP66      -0.2456
     71  N         36.7950    9.3360    8.2550 N.am   67  ARG67      -0.1979
     72  CA        35.7000    8.5490    7.7000 C.3    67  ARG67       0.1597
     73  C         34.3400    8.8910    8.2880 C.2    67  ARG67       0.2287
     74  O         33.3250    8.3930    7.7920 O.2    67  ARG67      -0.2864
     75  CB        35.9630    7.0500    7.9100 C.3    67  ARG67       0.0334
     76  CG        36.9720    6.4390    6.9530 C.3    67  ARG67       0.0492
     77  CD        36.4920    6.5030    5.5080 C.3    67  ARG67       0.2205
     78  NE        35.2350    5.7790    5.3170 N.pl3  67  ARG67      -0.0865
     79  CZ        35.0520    4.7840    4.4550 C.cat  67  ARG67       0.5346
     80  NH1       36.0350    4.3690    3.6610 N.pl3  67  ARG67       0.1354
     81  NH2       33.8640    4.2020    4.3720 N.pl3  67  ARG67       0.1354
     82  N         46.9060   10.6810   16.3080 N.3   112  GLU112     -0.1245
     83  CA        47.8630    9.8420   15.6000 C.3   112  GLU112      0.1567
     84  C         48.6730   10.6800   14.6180 C.2   112  GLU112      0.2260
     85  O         48.1460   11.6040   13.9900 O.2   112  GLU112     -0.2867
     86  CB        47.1520    8.7180   14.8440 C.3   112  GLU112      0.0388
     87  CG        46.3870    7.7430   15.7190 C.3   112  GLU112      0.1160
     88  CD        45.5990    6.7400   14.9000 C.2   112  GLU112      0.3649
     89  OE1       45.4760    6.9390   13.6740 O.co2 112  GLU112     -0.2457
     90  OE2       45.1040    5.7520   15.4810 O.co2 112  GLU112     -0.2457
     91  N         55.3490    1.0170    4.4190 N.3   151  ASN151     -0.1240
     92  CA        54.2270    0.5810    3.6000 C.3   151  ASN151      0.1653
     93  C         53.9850    1.5370    2.4420 C.2   151  ASN151      0.2266
     94  O         53.4940    2.6520    2.6390 O.2   151  ASN151     -0.2867
     95  CB        52.9600    0.4620    4.4430 C.3   151  ASN151      0.1155
     96  CG        51.8120   -0.1550    3.6740 C.2   151  ASN151      0.2627
     97  OD1       52.0090   -0.7540    2.6180 O.2   151  ASN151     -0.2716
     98  ND2       50.6030   -0.0090    4.1970 N.am  151  ASN151     -0.0877
     99  N         49.8220    1.9550    0.8280 N.3   154  GLU154     -0.1231
    100  CA        48.7970    2.7980    1.4240 C.3   154  GLU154      0.1684
    101  C         49.2440    4.2540    1.3720 C.2   154  GLU154      0.2434
    102  O         50.3000    4.5880    1.9360 O.2   154  GLU154     -0.2733
    103  CB        48.5270    2.3680    2.8650 C.3   154  GLU154      0.0402
    104  CG        47.7410    1.0690    2.9700 C.3   154  GLU154      0.1161
    105  CD        46.2740    1.2460    2.6480 C.2   154  GLU154      0.3649
    106  OE1       45.7690    2.3810    2.7750 O.co2 154  GLU154     -0.2457
    107  OE2       45.6240    0.2480    2.2730 O.co2 154  GLU154     -0.2457
    108  N         48.4920    5.1540    0.7310 N.am  155  PRO155     -0.2718
    109  CA        48.9690    6.5410    0.5850 C.3   155  PRO155      0.1535
    110  C         49.1390    7.2740    1.9000 C.2   155  PRO155      0.2599
    111  O         49.7930    8.3230    1.9290 O.2   155  PRO155     -0.2715
    112  CB        47.8810    7.1960   -0.2780 C.3   155  PRO155      0.0310
    113  CG        46.6680    6.3690   -0.0500 C.3   155  PRO155      0.0237
    114  CD        47.1580    4.9680    0.1400 C.3   155  PRO155      0.0939
    115  N         48.5570    6.7720    2.9860 N.am  156  TYR156     -0.1960
    116  CA        48.7470    7.3980    4.2870 C.3   156  TYR156      0.1771
    117  C         50.2280    7.5510    4.6010 C.2   156  TYR156      0.2619
    118  O         50.6820    8.6220    5.0210 O.2   156  TYR156     -0.2715
    119  CB        48.0450    6.5650    5.3550 C.3   156  TYR156      0.0574
    120  CG        48.1970    7.0700    6.7680 C.ar  156  TYR156     -0.0198
    121  CD1       47.5380    8.2150    7.1910 C.ar  156  TYR156     -0.0009
    122  CD2       48.9740    6.3830    7.6890 C.ar  156  TYR156     -0.0009
    123  CE1       47.6640    8.6710    8.4890 C.ar  156  TYR156      0.0417
    124  CE2       49.1040    6.8300    8.9870 C.ar  156  TYR156      0.0417
    125  CZ        48.4480    7.9740    9.3820 C.ar  156  TYR156      0.1957
    126  OH        48.5790    8.4200   10.6760 O.3   156  TYR156     -0.2866
    127  N         51.0020    6.4860    4.3830 N.am  157  PHE157     -0.1974
    128  CA        52.4220    6.4980    4.7160 C.3   157  PHE157      0.1639
    129  C         53.2480    7.2700    3.6980 C.2   157  PHE157      0.2290
    130  O         54.2910    7.8300    4.0520 O.2   157  PHE157     -0.2864
    131  CB        52.9380    5.0650    4.8230 C.3   157  PHE157      0.0560
    132  CG        52.2090    4.2370    5.8400 C.ar  157  PHE157     -0.0200
    133  CD1       51.0420    3.5720    5.5020 C.ar  157  PHE157     -0.0042
    134  CD2       52.6880    4.1280    7.1350 C.ar  157  PHE157     -0.0042
    135  CE1       50.3710    2.8130    6.4350 C.ar  157  PHE157     -0.0003
    136  CE2       52.0210    3.3700    8.0730 C.ar  157  PHE157     -0.0003
    137  CZ        50.8610    2.7120    7.7240 C.ar  157  PHE157     -0.0000
    138  N         51.0590    2.8680   17.2620 N.3   231  TRP231     -0.1241
    139  CA        50.6890    1.4610   17.3440 C.3   231  TRP231      0.1605
    140  C         51.8620    0.5280   17.0620 C.2   231  TRP231      0.2264
    141  O         51.8570   -0.6150   17.5310 O.2   231  TRP231     -0.2867
    142  CB        49.5490    1.1800   16.3680 C.3   231  TRP231      0.0550
    143  CG        49.8630    1.5810   14.9630 C.ar  231  TRP231      0.0003
    144  CD1       50.4860    0.8270   14.0210 C.ar  231  TRP231      0.0946
    145  CD2       49.5660    2.8390   14.3420 C.ar  231  TRP231      0.0152
    146  NE1       50.5970    1.5340   12.8470 N.ar  231  TRP231     -0.2442
    147  CE2       50.0390    2.7720   13.0190 C.ar  231  TRP231      0.0810
    148  CE3       48.9450    4.0130   14.7770 C.ar  231  TRP231      0.0012
    149  CZ2       49.9130    3.8330   12.1260 C.ar  231  TRP231      0.0191
    150  CZ3       48.8210    5.0680   13.8860 C.ar  231  TRP231      0.0001
    151  CH2       49.3020    4.9700   12.5770 C.ar  231  TRP231      0.0015
    152  N         45.6490   12.2050   12.1900 N.3   261  GLY261     -0.1225
    153  CA        44.3870   11.5010   12.3630 C.3   261  GLY261      0.1811
    154  C         44.0530   11.3240   13.8300 C.2   261  GLY261      0.2280
    155  O         44.9190   10.9790   14.6340 O.2   261  GLY261     -0.2866
    156  N         43.6780   15.9630    9.2940 N.3   331  MET331     -0.1245
    157  CA        42.9080   15.4440    8.1770 C.3   331  MET331      0.1570
    158  C         41.5220   16.0830    8.1550 C.2   331  MET331      0.2261
    159  O         40.8980   16.2490    9.2090 O.2   331  MET331     -0.2867
    160  CB        42.7570   13.9260    8.2730 C.3   331  MET331      0.0387
    161  CG        43.8830   13.1480    7.6470 C.3   331  MET331      0.0595
    162  SD        43.4940   11.4050    7.3930 S.3   331  MET331     -0.1393
    163  CE        43.4400   10.7930    9.0750 C.3   331  MET331      0.0692
    164  N         36.8820   10.2890    1.0340 N.3   338  SER338     -0.1217
    165  CA        36.8790    8.9590    0.4400 C.3   338  SER338      0.1889
    166  C         37.3450    9.0100   -1.0100 C.2   338  SER338      0.2288
    167  O         38.1530    8.1810   -1.4440 O.2   338  SER338     -0.2866
    168  CB        35.4770    8.3610    0.5440 C.3   338  SER338      0.2089
    169  OG        35.4510    7.0110    0.1190 O.3   338  SER338     -0.2183
    170  N         41.2450    9.5780   -0.8920 N.3   341  TRP341     -0.1227
    171  CA        42.1000    8.4560   -0.5260 C.3   341  TRP341      0.1737
    172  C         42.1280    7.3860   -1.6110 C.2   341  TRP341      0.2595
    173  O         43.1880    6.8210   -1.9040 O.2   341  TRP341     -0.2718
    174  CB        41.6370    7.8660    0.8010 C.3   341  TRP341      0.0564
    175  CG        42.1110    8.6500    1.9810 C.ar  341  TRP341      0.0003
    176  CD1       41.3440    9.2260    2.9450 C.ar  341  TRP341      0.0946
    177  CD2       43.4700    8.9540    2.3150 C.ar  341  TRP341      0.0152
    178  NE1       42.1380    9.8640    3.8660 N.ar  341  TRP341     -0.2442
    179  CE2       43.4490    9.7120    3.5000 C.ar  341  TRP341      0.0810
    180  CE3       44.7030    8.6560    1.7260 C.ar  341  TRP341      0.0012
    181  CZ2       44.6140   10.1780    4.1110 C.ar  341  TRP341      0.0191
    182  CZ3       45.8600    9.1170    2.3340 C.ar  341  TRP341      0.0001
    183  CH2       45.8070    9.8700    3.5140 C.ar  341  TRP341      0.0015
    184  N         40.9770    7.0850   -2.2150 N.am  342  TYR342     -0.1976
    185  CA        40.9480    6.0680   -3.2640 C.3   342  TYR342      0.1639
    186  C         41.7810    6.4900   -4.4680 C.2   342  TYR342      0.2290
    187  O         42.5400    5.6840   -5.0210 O.2   342  TYR342     -0.2864
    188  CB        39.5070    5.7830   -3.6940 C.3   342  TYR342      0.0560
    189  CG        38.7140    4.9220   -2.7290 C.ar  342  TYR342     -0.0198
    190  CD1       39.1010    3.6150   -2.4570 C.ar  342  TYR342     -0.0009
    191  CD2       37.5710    5.4060   -2.1090 C.ar  342  TYR342     -0.0009
    192  CE1       38.3850    2.8210   -1.5830 C.ar  342  TYR342      0.0417
    193  CE2       36.8460    4.6170   -1.2320 C.ar  342  TYR342      0.0417
    194  CZ        37.2590    3.3250   -0.9750 C.ar  342  TYR342      0.1957
    195  OH        36.5440    2.5330   -0.1060 O.3   342  TYR342     -0.2866
    196  N         45.4340    6.5100   -3.6150 N.3   345  ARG345     -0.1245
    197  CA        45.8660    5.1210   -3.5050 C.3   345  ARG345      0.1563
    198  C         46.2830    4.5790   -4.8630 C.2   345  ARG345      0.2260
    199  O         47.2220    3.7810   -4.9610 O.2   345  ARG345     -0.2867
    200  CB        44.7550    4.2520   -2.9130 C.3   345  ARG345      0.0307
    201  CG        44.9650    2.7540   -3.1750 C.3   345  ARG345      0.0489
    202  CD        44.0780    1.8540   -2.3170 C.3   345  ARG345      0.2205
    203  NE        42.7610    1.6110   -2.9090 N.pl3 345  ARG345     -0.0865
    204  CZ        41.8570    0.7630   -2.4170 C.cat 345  ARG345      0.5346
    205  NH1       42.1120    0.0670   -1.3160 N.pl3 345  ARG345      0.1354
    206  NH2       40.6900    0.6050   -3.0290 N.pl3 345  ARG345      0.1354
@<TRIPOS>BOND
     1   187   186    2
     2   199   198    2
     3   198   197    1
     4   186   185    1
     5   188   185    1
     6   188   189    1
     7   196   197    1
     8   197   200    1
     9   185   184    1
    10   201   200    1
    11   201   202    1
    12   206   204    1
    13   203   204    2
    14   203   202    1
    15   189   190   ar
    16   189   191   ar
    17   190   192   ar
    18   204   205    1
    19   184   172   am
    20   191   193   ar
    21   173   172    2
    22   172   171    1
    23   192   194   ar
    24   167   166    2
    25   193   194   ar
    26   166   165    1
    27   194   195    1
    28   170   171    1
    29   171   174    1
    30   112   113    1
    31   112   109    1
    32   113   114    1
    33   169   168    1
    34   114   108    1
    35    43    41   ar
    36   165   168    1
    37   165   164    1
    38   109   108    1
    39   109   110    1
    40   108   101   am
    41   174   175    1
    42    99   100    1
    43    42    41   ar
    44    41    40    1
    45   101   100    1
    46   101   102    2
    47   100   103    1
    48   180   177   ar
    49   180   182   ar
    50   110   111    2
    51   110   115   am
    52   175   177   ar
    53   175   176   ar
    54   107   105   ar
    55   177   179   ar
    56    40    39    1
    57   182   183   ar
    58    93    94    2
    59    93    92    1
    60    97    96    2
    61   105   106   ar
    62   105   104    1
    63   103   104    1
    64   176   178   ar
    65   115   116    1
    66    39    36    1
    67   179   178   ar
    68   179   181   ar
    69   183   181   ar
    70    92    91    1
    71    92    95    1
    72    80    79    1
    73    96    98   am
    74    96    95    1
    75   129   130    2
    76   129   128    1
    77    38    37    2
    78    36    37    1
    79    36    35    1
    80   116   117    1
    81   116   119    1
    82    81    79    1
    83   127   117   am
    84   127   128    1
    85    79    78    2
    86   117   118    2
    87   128   131    1
    88   131   132    1
    89    34    32   ar
    90    78    77    1
    91    35    28   am
    92   119   120    1
    93   133   132   ar
    94   133   135   ar
    95    77    76    1
    96    29    28    2
    97   132   134   ar
    98    31    32    1
    99    31    30    1
   100    32    33   ar
   101    28    27    1
   102    70    68   ar
   103   135   137   ar
   104   120   121   ar
   105   120   122   ar
   106    66    65    2
   107    76    75    1
   108   134   136   ar
   109    30    27    1
   110   121   123   ar
   111    27    26    1
   112   162   161    1
   113   162   163    1
   114    68    67    1
   115    68    69   ar
   116    67    64    1
   117   161   160    1
   118   122   124   ar
   119    72    75    1
   120    72    71    1
   121    72    73    1
   122   137   136   ar
   123    65    71   am
   124    65    64    1
   125    74    73    2
   126    55    57   ar
   127    55    53   ar
   128   158   157    1
   129   158   159    2
   130   157   160    1
   131   157   156    1
   132    64    63    1
   133    57    56   ar
   134   123   125   ar
   135    52    53   ar
   136    52    50   ar
   137    53    51   ar
   138   124   125   ar
   139   125   126    1
   140    56    54   ar
   141    50    49   ar
   142    51    54   ar
   143    51    49   ar
   144    49    48    1
   145     7     6    2
   146     8     6   am
   147    62    59    1
   148    61    60    2
   149     6     5    1
   150    16    14   ar
   151    60    59    1
   152    48    45    1
   153   149   151   ar
   154   149   147   ar
   155   152   153    1
   156    59    58    1
   157   153   154    1
   158    58    46   am
   159   151   150   ar
   160    14    13    1
   161    14    15   ar
   162     5     2    1
   163    13    10    1
   164   146   147   ar
   165   146   144   ar
   166   147   145   ar
   167    45    46    1
   168    45    44    1
   169    46    47    2
   170     2     3    1
   171     2     1    1
   172     9    10    1
   173    89    88   ar
   174    25    24    1
   175   154   155    2
   176   150   148   ar
   177    10    11    1
   178     3     4    2
   179    85    84    2
   180   144   143   ar
   181   145   148   ar
   182   145   143   ar
   183    84    83    1
   184    86    83    1
   185    86    87    1
   186    88    90   ar
   187    88    87    1
   188   143   142    1
   189    24    23    1
   190    11    12    2
   191    11    17   am
   192    83    82    1
   193    17    18    1
   194    23    22    1
   195    22    21    1
   196   142   139    1
   197   140   139    1
   198   140   141    2
   199    18    21    1
   200    18    19    1
   201   138   139    1
   202    20    19    2
