@<TRIPOS>MOLECULE
tmp/5ygvA00.pdb
 198 189 0 0 0
SMALL
GASTEIGER

@<TRIPOS>ATOM
      1  N         13.3800   10.6330    8.1500 N.3    56  LYS56      -0.1245
      2  CA        13.5420    9.3520    7.4580 C.3    56  LYS56       0.1561
      3  C         14.0010    9.5850    6.0180 C.2    56  LYS56       0.2260
      4  O         13.4810   10.4500    5.3120 O.2    56  LYS56      -0.2867
      5  CB        12.2810    8.4970    7.5460 C.3    56  LYS56       0.0271
      6  CG        11.9760    8.0860    8.9750 C.3    56  LYS56       0.0035
      7  CD        11.1170    6.8420    9.0760 C.3    56  LYS56       0.0206
      8  CE        10.7460    6.5760   10.5280 C.3    56  LYS56       0.1093
      9  NZ         9.8880    5.3740   10.7000 N.3    56  LYS56      -0.1314
     10  N         14.0330    8.0010    3.0490 N.3    58  PHE58      -0.1227
     11  CA        13.3120    7.6510    1.8240 C.3    58  PHE58       0.1736
     12  C         11.8490    8.1320    1.7480 C.2    58  PHE58       0.2595
     13  O         11.2040    7.9660    0.7170 O.2    58  PHE58      -0.2718
     14  CB        13.3540    6.1300    1.6540 C.3    58  PHE58       0.0547
     15  CG        14.7320    5.5860    1.4160 C.ar   58  PHE58      -0.0202
     16  CD1       15.3590    5.7770    0.1900 C.ar   58  PHE58      -0.0042
     17  CD2       15.4050    4.8790    2.4080 C.ar   58  PHE58      -0.0042
     18  CE1       16.6340    5.2760   -0.0460 C.ar   58  PHE58      -0.0003
     19  CE2       16.6770    4.3710    2.1790 C.ar   58  PHE58      -0.0003
     20  CZ        17.2930    4.5710    0.9500 C.ar   58  PHE58      -0.0000
     21  N         11.3140    8.7290    2.8090 N.am   59  ILE59      -0.1980
     22  CA         9.9090    9.1440    2.7970 C.3    59  ILE59       0.1595
     23  C          9.6960   10.3740    1.9180 C.2    59  ILE59       0.2287
     24  O         10.2890   11.4270    2.1470 O.2    59  ILE59      -0.2864
     25  CB         9.3610    9.3940    4.2170 C.3    59  ILE59       0.0276
     26  CG1        9.3860    8.0720    4.9910 C.3    59  ILE59       0.0022
     27  CG2        7.9410    9.9680    4.1590 C.3    59  ILE59       0.0022
     28  CD1        8.8370    8.1370    6.3970 C.3    59  ILE59       0.0001
     29  N          2.4030    6.3050    4.6230 N.3    78  VAL78      -0.1245
     30  CA         3.6870    6.7750    4.1150 C.3    78  VAL78       0.1561
     31  C          3.7670    6.5000    2.6260 C.2    78  VAL78       0.2260
     32  O          3.5980    5.3620    2.2040 O.2    78  VAL78      -0.2867
     33  CB         4.8620    6.0630    4.8320 C.3    78  VAL78       0.0252
     34  CG1        6.1920    6.2670    4.1080 C.3    78  VAL78       0.0019
     35  CG2        4.9770    6.5700    6.2580 C.3    78  VAL78       0.0019
     36  N          6.6180    6.5570   -0.2430 N.3    80  VAL80      -0.1245
     37  CA         8.0750    6.5190   -0.3070 C.3    80  VAL80       0.1561
     38  C          8.5400    7.0270   -1.6780 C.2    80  VAL80       0.2260
     39  O          7.7770    6.9850   -2.6460 O.2    80  VAL80      -0.2867
     40  CB         8.5850    5.0930    0.0210 C.3    80  VAL80       0.0252
     41  CG1        8.6250    4.1990   -1.2070 C.3    80  VAL80       0.0019
     42  CG2        9.9500    5.1410    0.6790 C.3    80  VAL80       0.0019
     43  N         12.4690    2.2000   -5.0590 N.3    84  LEU84      -0.1231
     44  CA        12.4950    1.1890   -4.0040 C.3    84  LEU84       0.1678
     45  C         11.5090    0.0610   -4.3080 C.2    84  LEU84       0.2434
     46  O         10.5990    0.2530   -5.1050 O.2    84  LEU84      -0.2733
     47  CB        12.1430    1.8540   -2.6800 C.3    84  LEU84       0.0284
     48  CG        12.9660    3.1090   -2.3570 C.3    84  LEU84       0.0019
     49  CD1       12.4330    3.7330   -1.0970 C.3    84  LEU84       0.0001
     50  CD2       14.4480    2.8160   -2.1930 C.3    84  LEU84       0.0001
     51  N         11.6670   -1.1130   -3.6620 N.am   85  PRO85      -0.2718
     52  CA        10.7570   -2.2400   -3.9520 C.3    85  PRO85       0.1535
     53  C          9.3370   -2.1570   -3.3660 C.2    85  PRO85       0.2598
     54  O          8.5750   -3.1160   -3.4900 O.2    85  PRO85      -0.2715
     55  CB        11.5080   -3.4680   -3.4130 C.3    85  PRO85       0.0310
     56  CG        12.5480   -2.9560   -2.4950 C.3    85  PRO85       0.0237
     57  CD        12.7430   -1.4860   -2.7230 C.3    85  PRO85       0.0939
     58  N          8.9930   -1.0470   -2.7240 N.am   86  ALA86      -0.1978
     59  CA         7.6060   -0.7170   -2.4230 C.3    86  ALA86       0.1597
     60  C          7.4020    0.7630   -2.6730 C.2    86  ALA86       0.2287
     61  O          8.3730    1.5230   -2.7230 O.2    86  ALA86      -0.2864
     62  CB         7.2870   -1.0540   -0.9820 C.3    86  ALA86       0.0319
     63  N          4.4500    2.3530   -0.9860 N.3    88  THR88      -0.1203
     64  CA         3.5870    2.8200    0.0960 C.3    88  THR88       0.1994
     65  C          3.7060    1.9050    1.3180 C.2    88  THR88       0.2618
     66  O          4.0480    0.7260    1.1840 O.2    88  THR88      -0.2717
     67  CB         2.1250    2.8790   -0.4060 C.3    88  THR88       0.1784
     68  OG1        2.0310    3.8300   -1.4750 O.3    88  THR88      -0.2211
     69  CG2        1.1680    3.3000    0.6770 C.3    88  THR88       0.0376
     70  N          3.4360    2.4710    2.4990 N.am   89  SER89      -0.1951
     71  CA         3.3800    1.7250    3.7640 C.3    89  SER89       0.1924
     72  C          2.3200    2.3050    4.7160 C.2    89  SER89       0.2314
     73  O          2.3590    3.4910    5.0410 O.2    89  SER89      -0.2863
     74  CB         4.7500    1.7640    4.4450 C.3    89  SER89       0.2116
     75  OG         4.7720    0.9540    5.6050 O.3    89  SER89      -0.2180
     76  N          1.1080    2.2520    8.5160 N.3    91  GLU91      -0.1245
     77  CA         1.8350    2.0010    9.7620 C.3    91  GLU91       0.1567
     78  C          1.0350    2.4640   10.9800 C.2    91  GLU91       0.2260
     79  O          0.3670    3.4940   10.9240 O.2    91  GLU91      -0.2867
     80  CB         3.1910    2.7180    9.7130 C.3    91  GLU91       0.0388
     81  CG         4.1820    2.0850    8.7400 C.3    91  GLU91       0.1160
     82  CD         5.3490    2.9880    8.3640 C.2    91  GLU91       0.3649
     83  OE1        5.5250    4.0520    8.9820 O.co2  91  GLU91      -0.2457
     84  OE2        6.1070    2.6270    7.4420 O.co2  91  GLU91      -0.2457
     85  N          6.4160    1.4690   16.1610 N.3   105  PHE105     -0.1241
     86  CA         5.3230    1.2670   15.2200 C.3   105  PHE105      0.1605
     87  C          5.3960   -0.0950   14.5540 C.2   105  PHE105      0.2264
     88  O          6.4050   -0.7920   14.6520 O.2   105  PHE105     -0.2867
     89  CB         5.3000    2.3850   14.1730 C.3   105  PHE105      0.0534
     90  CG         6.4010    2.2930   13.1560 C.ar  105  PHE105     -0.0203
     91  CD1        7.6730    2.7830   13.4430 C.ar  105  PHE105     -0.0042
     92  CD2        6.1690    1.7160   11.9070 C.ar  105  PHE105     -0.0042
     93  CE1        8.6970    2.6980   12.5070 C.ar  105  PHE105     -0.0003
     94  CE2        7.1900    1.6290   10.9660 C.ar  105  PHE105     -0.0003
     95  CZ         8.4580    2.1240   11.2660 C.ar  105  PHE105     -0.0000
     96  N          4.1890   -2.0880   10.7350 N.3   107  ILE107     -0.1245
     97  CA         3.6600   -2.0270    9.3670 C.3   107  ILE107      0.1561
     98  C          2.4440   -2.9540    9.2640 C.2   107  ILE107      0.2260
     99  O          2.4880   -4.0910    9.7370 O.2   107  ILE107     -0.2867
    100  CB         4.7510   -2.3780    8.3230 C.3   107  ILE107      0.0252
    101  CG1        5.7450   -1.2160    8.2470 C.3   107  ILE107      0.0019
    102  CG2        4.1490   -2.6380    6.9430 C.3   107  ILE107      0.0019
    103  CD1        6.9890   -1.4700    7.4310 C.3   107  ILE107      0.0001
    104  N          4.3290   -6.0930    1.2950 N.3   109  HIS109     -0.1226
    105  CA         5.5710   -6.2240    0.5220 C.3   109  HIS109      0.1752
    106  C          6.5590   -7.1980    1.2050 C.2   109  HIS109      0.2596
    107  O          6.1270   -8.0710    1.9630 O.2   109  HIS109     -0.2718
    108  CB         6.1710   -4.8280    0.2430 C.3   109  HIS109      0.0759
    109  CG         6.1890   -3.9230    1.4340 C.ar  109  HIS109      0.0818
    110  ND1        6.8130   -4.2540    2.6180 N.ar  109  HIS109     -0.2268
    111  CD2        5.6510   -2.6940    1.6210 C.ar  109  HIS109      0.1154
    112  CE1        6.6540   -3.2690    3.4850 C.ar  109  HIS109      0.1986
    113  NE2        5.9530   -2.3110    2.9050 N.ar  109  HIS109     -0.2212
    114  N          7.8590   -7.0780    0.9260 N.am  110  ARG110     -0.1966
    115  CA         8.8520   -8.0270    1.4320 C.3   110  ARG110      0.1729
    116  C          9.0170   -8.0270    2.9660 C.2   110  ARG110      0.2616
    117  O          9.0770   -9.0980    3.5780 O.2   110  ARG110     -0.2715
    118  CB        10.2060   -7.8120    0.7350 C.3   110  ARG110      0.0348
    119  CG        10.9720   -6.5370    1.1070 C.3   110  ARG110      0.0492
    120  CD        12.3890   -6.5640    0.5660 C.3   110  ARG110      0.2205
    121  NE        13.0630   -7.8060    0.9560 N.pl3 110  ARG110     -0.0865
    122  CZ        14.0700   -8.3840    0.3030 C.cat 110  ARG110      0.5346
    123  NH1       14.5810   -7.8420   -0.8030 N.pl3 110  ARG110      0.1354
    124  NH2       14.5750   -9.5250    0.7670 N.pl3 110  ARG110      0.1354
    125  N          9.0820   -6.8380    3.5730 N.am  111  LEU111     -0.1977
    126  CA         9.2590   -6.7030    5.0240 C.3   111  LEU111      0.1596
    127  C          7.8940   -6.8130    5.6960 C.2   111  LEU111      0.2287
    128  O          7.2790   -5.8070    6.0700 O.2   111  LEU111     -0.2864
    129  CB         9.9440   -5.3750    5.3850 C.3   111  LEU111      0.0297
    130  CG        11.3430   -5.0830    4.8290 C.3   111  LEU111      0.0022
    131  CD1       11.8160   -3.7280    5.3350 C.3   111  LEU111      0.0001
    132  CD2       12.3640   -6.1560    5.1800 C.3   111  LEU111      0.0001
    133  N          6.8790   -6.0810    9.9690 N.3   114  TYR114     -0.1241
    134  CA         7.9660   -5.2650   10.4940 C.3   114  TYR114      0.1605
    135  C          7.4230   -4.4760   11.6680 C.2   114  TYR114      0.2264
    136  O          6.4180   -3.7760   11.5360 O.2   114  TYR114     -0.2867
    137  CB         8.5080   -4.2970    9.4490 C.3   114  TYR114      0.0534
    138  CG         9.6660   -3.4460    9.9420 C.ar  114  TYR114     -0.0201
    139  CD1        9.4430   -2.2090   10.5630 C.ar  114  TYR114     -0.0009
    140  CD2       10.9850   -3.8750    9.7900 C.ar  114  TYR114     -0.0009
    141  CE1       10.4980   -1.4270   11.0150 C.ar  114  TYR114      0.0417
    142  CE2       12.0490   -3.1000   10.2410 C.ar  114  TYR114      0.0417
    143  CZ        11.8050   -1.8790   10.8530 C.ar  114  TYR114      0.1957
    144  OH        12.8640   -1.1200   11.2940 O.3   114  TYR114     -0.2866
    145  N         17.5560    1.8580   18.2100 N.3   135  GLU135     -0.1245
    146  CA        16.4090    1.3370   17.4780 C.3   135  GLU135      0.1567
    147  C         16.6070   -0.1380   17.1550 C.2   135  GLU135      0.2260
    148  O         17.6580   -0.5440   16.6460 O.2   135  GLU135     -0.2867
    149  CB        16.1620    2.1260   16.1950 C.3   135  GLU135      0.0388
    150  CG        14.8560    1.7540   15.4930 C.3   135  GLU135      0.1160
    151  CD        14.4630    2.7420   14.4070 C.2   135  GLU135      0.3649
    152  OE1       14.4240    2.3470   13.2280 O.co2 135  GLU135     -0.2457
    153  OE2       14.1940    3.9180   14.7250 O.co2 135  GLU135     -0.2457
    154  N         18.7760   -5.2750    4.3020 N.3   147  PHE147     -0.1227
    155  CA        17.9820   -4.2030    3.7060 C.3   147  PHE147      0.1736
    156  C         17.3520   -3.2990    4.7600 C.2   147  PHE147      0.2595
    157  O         17.4200   -2.0750    4.6460 O.2   147  PHE147     -0.2718
    158  CB        16.9160   -4.7840    2.7660 C.3   147  PHE147      0.0547
    159  CG        17.4840   -5.6680    1.6770 C.ar  147  PHE147     -0.0202
    160  CD1       18.5790   -5.2550    0.9210 C.ar  147  PHE147     -0.0042
    161  CD2       16.9410   -6.9250    1.4160 C.ar  147  PHE147     -0.0042
    162  CE1       19.1120   -6.0640   -0.0690 C.ar  147  PHE147     -0.0003
    163  CE2       17.4760   -7.7400    0.4240 C.ar  147  PHE147     -0.0003
    164  CZ        18.5620   -7.3070   -0.3220 C.ar  147  PHE147     -0.0000
    165  N         16.7590   -3.8960    5.7870 N.am  148  ALA148     -0.1980
    166  CA        16.2070   -3.1300    6.9080 C.3   148  ALA148      0.1597
    167  C         17.3040   -2.3720    7.6760 C.2   148  ALA148      0.2287
    168  O         17.1440   -1.1910    7.9810 O.2   148  ALA148     -0.2864
    169  CB        15.4290   -4.0450    7.8410 C.3   148  ALA148      0.0319
    170  N         20.1030   -1.1960    6.5730 N.3   150  THR150     -0.1203
    171  CA        20.4910   -0.0450    5.7660 C.3   150  THR150      0.1994
    172  C         19.5080    1.1230    5.9090 C.2   150  THR150      0.2618
    173  O         19.9390    2.2650    6.0770 O.2   150  THR150     -0.2717
    174  CB        20.6530   -0.4610    4.2920 C.3   150  THR150      0.1784
    175  OG1       21.6300   -1.5100    4.2120 O.3   150  THR150     -0.2211
    176  CG2       21.0960    0.7150    3.4060 C.3   150  THR150      0.0376
    177  N         18.2050    0.8390    5.8670 N.am  151  VAL151     -0.1965
    178  CA        17.1930    1.8880    6.0340 C.3   151  VAL151      0.1727
    179  C         17.3060    2.5000    7.4150 C.2   151  VAL151      0.2616
    180  O         17.3550    3.7250    7.5570 O.2   151  VAL151     -0.2715
    181  CB        15.7450    1.3700    5.8930 C.3   151  VAL151      0.0290
    182  CG1       14.7410    2.4870    6.1680 C.3   151  VAL151      0.0023
    183  CG2       15.4990    0.8220    4.5030 C.3   151  VAL151      0.0023
    184  N         17.3140    1.6260    8.4220 N.am  152  VAL152     -0.1977
    185  CA        17.4000    2.0290    9.8260 C.3   152  VAL152      0.1596
    186  C         18.6380    2.8970   10.0490 C.2   152  VAL152      0.2287
    187  O         18.5090    4.0290   10.5070 O.2   152  VAL152     -0.2864
    188  CB        17.3710    0.7970   10.7700 C.3   152  VAL152      0.0276
    189  CG1       17.7780    1.1460   12.1950 C.3   152  VAL152      0.0022
    190  CG2       15.9750    0.1930   10.7920 C.3   152  VAL152      0.0022
    191  N         18.2920    6.2750    8.2460 N.3   155  ASN155     -0.1240
    192  CA        17.3270    7.0710    9.0110 C.3   155  ASN155      0.1653
    193  C         17.9480    7.6630   10.2750 C.2   155  ASN155      0.2266
    194  O         17.7130    8.8320   10.5870 O.2   155  ASN155     -0.2867
    195  CB        16.0900    6.2320    9.3900 C.3   155  ASN155      0.1155
    196  CG        15.1760    5.9500    8.2100 C.2   155  ASN155      0.2627
    197  OD1       15.4280    6.3790    7.0860 O.2   155  ASN155     -0.2716
    198  ND2       14.1020    5.2210    8.4660 N.am  155  ASN155     -0.0877
@<TRIPOS>BOND
     1    46    45    2
     2    43    44    1
     3    45    44    1
     4    45    51   am
     5    44    47    1
     6    52    51    1
     7    52    55    1
     8    52    53    1
     9    51    57    1
    10    54    53    2
    11    55    56    1
    12    53    58   am
    13    58    59    1
    14    61    60    2
    15    57    56    1
    16    47    48    1
    17    60    59    1
    18    39    38    2
    19    59    62    1
    20    48    50    1
    21    48    49    1
    22    38    37    1
    23    68    67    1
    24    41    40    1
    25    63    64    1
    26   123   122    1
    27    67    64    1
    28    67    69    1
    29   164   162   ar
    30   164   163   ar
    31    37    36    1
    32    37    40    1
    33   162   160   ar
    34    18    16   ar
    35    18    20   ar
    36    40    42    1
    37    64    65    1
    38    16    15   ar
    39   108   105    1
    40   108   109    1
    41   122   124    1
    42   122   121    2
    43   163   161   ar
    44   105   106    1
    45   105   104    1
    46   120   121    1
    47   120   119    1
    48    13    12    2
    49   118   119    1
    50   118   115    1
    51   160   159   ar
    52   114   106   am
    53   114   115    1
    54    20    19   ar
    55    66    65    2
    56   106   107    2
    57    65    70   am
    58   161   159   ar
    59    15    14    1
    60    15    17   ar
    61   115   116    1
    62   109   111   ar
    63   109   110   ar
    64   111   113   ar
    65    14    11    1
    66   159   158    1
    67    12    11    1
    68    12    21   am
    69    11    10    1
    70    23    24    2
    71    23    22    1
    72    19    17   ar
    73    32    31    2
    74    70    71    1
    75   110   112   ar
    76    31    30    1
    77   158   155    1
    78    22    21    1
    79    22    25    1
    80   113   112   ar
    81   116   125   am
    82   116   117    2
    83   176   174    1
    84   125   126    1
    85   155   154    1
    86   155   156    1
    87    71    74    1
    88    71    72    1
    89    34    33    1
    90    30    29    1
    91    30    33    1
    92    27    25    1
    93   175   174    1
    94    25    26    1
    95   174   171    1
    96    74    75    1
    97   183   181    1
    98   157   156    2
    99    72    73    2
   100   156   165   am
   101   130   132    1
   102   130   131    1
   103   130   129    1
   104    33    35    1
   105    26    28    1
   106   126   129    1
   107   126   127    1
   108     4     3    2
   109   127   128    2
   110   171   172    1
   111   171   170    1
   112   165   166    1
   113   177   172   am
   114   177   178    1
   115   181   178    1
   116   181   182    1
   117   172   173    2
   118     3     2    1
   119   178   179    1
   120   166   167    1
   121   166   169    1
   122   102   100    1
   123   197   196    2
   124   179   180    2
   125   179   184   am
   126   103   101    1
   127    84    82   ar
   128     2     5    1
   129     2     1    1
   130     5     6    1
   131   167   168    2
   132   196   198   am
   133   196   195    1
   134   191   192    1
   135   101   100    1
   136   100    97    1
   137    82    81    1
   138    82    83   ar
   139   184   185    1
   140    76    77    1
   141    81    80    1
   142     6     7    1
   143   192   195    1
   144   192   193    1
   145     7     8    1
   146    98    97    1
   147    98    99    2
   148    97    96    1
   149   137   138    1
   150   137   134    1
   151    80    77    1
   152    77    78    1
   153   140   138   ar
   154   140   142   ar
   155   185   186    1
   156   185   188    1
   157   138   139   ar
   158   133   134    1
   159   186   187    2
   160   142   143   ar
   161   193   194    2
   162   134   135    1
   163     8     9    1
   164   139   141   ar
   165   188   190    1
   166   188   189    1
   167   143   141   ar
   168   143   144    1
   169    79    78    2
   170    94    95   ar
   171    94    92   ar
   172    95    93   ar
   173   136   135    2
   174    92    90   ar
   175    93    91   ar
   176    90    91   ar
   177    90    89    1
   178   152   151   ar
   179    89    86    1
   180   151   153   ar
   181   151   150    1
   182    87    88    2
   183    87    86    1
   184    86    85    1
   185   150   149    1
   186   149   146    1
   187   148   147    2
   188   147   146    1
   189   146   145    1
