@<TRIPOS>MOLECULE
tmp/5ygxA00.pdb
 226 217 0 0 0
SMALL
GASTEIGER

@<TRIPOS>ATOM
      1  N         27.7930   40.6180    2.8800 N.3    13  LYS13      -0.1231
      2  CA        28.5370   41.8750    2.8750 C.3    13  LYS13       0.1693
      3  C         27.5660   42.9590    2.4180 C.2    13  LYS13       0.2593
      4  O         26.6360   42.6700    1.6490 O.2    13  LYS13      -0.2718
      5  CB        29.7600   41.7920    1.9440 C.3    13  LYS13       0.0285
      6  CG        30.9060   40.9130    2.4480 C.3    13  LYS13       0.0035
      7  CD        31.9730   40.7330    1.3770 C.3    13  LYS13       0.0206
      8  CE        32.5040   39.3270    1.2640 C.3    13  LYS13       0.1093
      9  NZ        32.6610   38.6720    2.5830 N.3    13  LYS13      -0.1314
     10  N         27.7620   44.1880    2.9080 N.am   14  SER14      -0.1938
     11  CA        26.9200   45.3300    2.5260 C.3    14  SER14       0.2055
     12  C         26.7710   45.4030    1.0180 C.2    14  SER14       0.2644
     13  O         27.7610   45.3540    0.2710 O.2    14  SER14      -0.2714
     14  CB        27.4930   46.6640    3.0330 C.3    14  SER14       0.2130
     15  OG        27.5010   46.7050    4.4420 O.3    14  SER14      -0.2179
     16  N         25.5200   45.4840    0.5840 N.am   15  GLY15      -0.1939
     17  CA        25.2060   45.6170   -0.8280 C.3    15  GLY15       0.2014
     18  C         25.3740   44.3570   -1.6460 C.2    15  GLY15       0.2639
     19  O         25.2490   44.4220   -2.8570 O.2    15  GLY15      -0.2714
     20  N         25.6410   43.2170   -0.9990 N.am   16  GLN16      -0.1963
     21  CA        25.8530   41.9380   -1.7200 C.3    16  GLN16       0.1733
     22  C         24.8560   40.8420   -1.3200 C.2    16  GLN16       0.2617
     23  O         24.9400   39.7030   -1.8120 O.2    16  GLN16      -0.2715
     24  CB        27.2890   41.4460   -1.5160 C.3    16  GLN16       0.0408
     25  CG        28.3390   42.3390   -2.1500 C.3    16  GLN16       0.0908
     26  CD        29.7440   41.7530   -2.1230 C.2    16  GLN16       0.2608
     27  OE1       30.0300   40.7890   -1.4140 O.2    16  GLN16      -0.2717
     28  NE2       30.6290   42.3480   -2.9010 N.am   16  GLN16      -0.0878
     29  N         23.9340   41.1820   -0.4130 N.am   17  GLY17      -0.1940
     30  CA        22.8560   40.2820   -0.0290 C.3    17  GLY17       0.2014
     31  C         23.1600   39.3590    1.1330 C.2    17  GLY17       0.2638
     32  O         24.2390   39.4170    1.7270 O.2    17  GLY17      -0.2714
     33  N         22.1890   38.5170    1.4600 N.am   18  TYR18      -0.1973
     34  CA        22.2550   37.6560    2.6290 C.3    18  TYR18       0.1639
     35  C         22.1660   36.2460    2.1280 C.2    18  TYR18       0.2290
     36  O         21.2380   35.8960    1.3940 O.2    18  TYR18      -0.2864
     37  CB        21.1000   37.9740    3.6110 C.3    18  TYR18       0.0560
     38  CG        21.1570   39.3910    4.1640 C.ar   18  TYR18      -0.0198
     39  CD1       21.6500   39.6410    5.4580 C.ar   18  TYR18      -0.0009
     40  CD2       20.7380   40.4840    3.3960 C.ar   18  TYR18      -0.0009
     41  CE1       21.7010   40.9400    5.9720 C.ar   18  TYR18       0.0417
     42  CE2       20.7970   41.7800    3.8940 C.ar   18  TYR18       0.0417
     43  CZ        21.2860   42.0000    5.1820 C.ar   18  TYR18       0.1957
     44  OH        21.3560   43.2890    5.6800 O.3    18  TYR18      -0.2866
     45  N         22.2080   32.8270   -1.8730 N.3    34  LEU34      -0.1245
     46  CA        21.4860   34.0680   -1.6400 C.3    34  LEU34       0.1561
     47  C         20.0090   33.7680   -1.3310 C.2    34  LEU34       0.2260
     48  O         19.3490   33.0390   -2.0730 O.2    34  LEU34      -0.2867
     49  CB        21.6080   34.9880   -2.8520 C.3    34  LEU34       0.0270
     50  CG        20.9000   36.3530   -2.7490 C.3    34  LEU34       0.0019
     51  CD1       21.7430   37.3730   -1.9930 C.3    34  LEU34       0.0001
     52  CD2       20.5500   36.8930   -4.1180 C.3    34  LEU34       0.0001
     53  N         16.4200   34.7790   -1.4410 N.3    36  ASP36      -0.1239
     54  CA        15.7470   35.6920   -2.3630 C.3    36  ASP36       0.1674
     55  C         14.2310   35.4670   -2.4020 C.2    36  ASP36       0.2266
     56  O         13.7400   34.5500   -3.0880 O.2    36  ASP36      -0.2867
     57  CB        16.3800   35.5620   -3.7640 C.3    36  ASP36       0.1410
     58  CG        15.7590   36.5000   -4.8050 C.2    36  ASP36       0.3668
     59  OD1       15.0830   37.5010   -4.4440 O.co2  36  ASP36      -0.2456
     60  OD2       15.9830   36.2330   -6.0160 O.co2  36  ASP36      -0.2456
     61  N         12.1960   37.4000   -3.8130 N.3    38  GLY38      -0.1210
     62  CA        11.7080   37.9900   -5.0610 C.3    38  GLY38       0.1956
     63  C         11.8380   37.1390   -6.3230 C.2    38  GLY38       0.2612
     64  O         11.6630   37.6570   -7.4150 O.2    38  GLY38      -0.2717
     65  N         12.1380   35.8480   -6.1800 N.am   39  SER39      -0.1952
     66  CA        12.2300   34.9270   -7.3280 C.3    39  SER39       0.1924
     67  C         11.8660   33.5280   -6.8310 C.2    39  SER39       0.2314
     68  O         11.7010   33.3300   -5.6190 O.2    39  SER39      -0.2863
     69  CB        13.6420   34.9470   -7.9620 C.3    39  SER39       0.2116
     70  OG        14.6030   34.2680   -7.1270 O.3    39  SER39      -0.2180
     71  N         17.2230   39.0650  -17.2340 N.3    75  TYR75      -0.1227
     72  CA        16.7710   40.1520  -16.3560 C.3    75  TYR75       0.1736
     73  C         16.9410   41.4840  -17.0900 C.2    75  TYR75       0.2596
     74  O         17.4150   41.5060  -18.2420 O.2    75  TYR75      -0.2718
     75  CB        17.5940   40.1880  -15.0540 C.3    75  TYR75       0.0548
     76  CG        17.5870   38.9120  -14.2630 C.ar   75  TYR75      -0.0200
     77  CD1       16.4620   38.5260  -13.5350 C.ar   75  TYR75      -0.0009
     78  CD2       18.7080   38.0820  -14.2420 C.ar   75  TYR75      -0.0009
     79  CE1       16.4470   37.3380  -12.8180 C.ar   75  TYR75       0.0417
     80  CE2       18.7040   36.9070  -13.5170 C.ar   75  TYR75       0.0417
     81  CZ        17.5740   36.5460  -12.8060 C.ar   75  TYR75       0.1957
     82  OH        17.5590   35.3810  -12.0900 O.3    75  TYR75      -0.2866
     83  N         16.5700   42.5820  -16.4180 N.am   76  THR76      -0.1939
     84  CA        16.8050   43.9480  -16.9260 C.3    76  THR76       0.2028
     85  C         18.3080   44.2090  -17.0770 C.2    76  THR76       0.2642
     86  O         18.7620   44.6400  -18.1450 O.2    76  THR76      -0.2714
     87  CB        16.1840   45.0480  -16.0270 C.3    76  THR76       0.1808
     88  OG1       15.1140   44.5100  -15.2380 O.3    76  THR76      -0.2208
     89  CG2       15.6660   46.2100  -16.8840 C.3    76  THR76       0.0379
     90  N         19.0640   43.9240  -16.0110 N.am   77  GLN77      -0.1976
     91  CA        20.5240   44.0200  -16.0290 C.3    77  GLN77       0.1601
     92  C         21.1550   42.7660  -16.6580 C.2    77  GLN77       0.2287
     93  O         21.6590   42.8270  -17.7890 O.2    77  GLN77      -0.2864
     94  CB        21.0830   44.2990  -14.6220 C.3    77  GLN77       0.0394
     95  CG        20.7000   45.6410  -14.0020 C.3    77  GLN77       0.0908
     96  CD        21.1200   46.8100  -14.8550 C.2    77  GLN77       0.2608
     97  OE1       22.3050   46.8860  -15.2370 O.2    77  GLN77      -0.2717
     98  NE2       20.2030   47.6290  -15.2620 N.am   77  GLN77      -0.0878
     99  N         26.4300   39.4060  -15.7620 N.3   111  LYS111     -0.1231
    100  CA        26.0430   40.4340  -14.7550 C.3   111  LYS111      0.1693
    101  C         25.0970   39.8860  -13.6670 C.2   111  LYS111      0.2592
    102  O         24.1750   40.5600  -13.2230 O.2   111  LYS111     -0.2718
    103  CB        25.4980   41.7210  -15.4360 C.3   111  LYS111      0.0285
    104  CG        26.5870   42.5190  -16.1640 C.3   111  LYS111      0.0035
    105  CD        26.0820   43.7130  -16.9880 C.3   111  LYS111      0.0206
    106  CE        27.2370   44.2640  -17.8340 C.3   111  LYS111      0.1093
    107  NZ        27.0950   45.6410  -18.4030 N.3   111  LYS111     -0.1314
    108  N         25.3600   38.6400  -13.2690 N.am  112  PHE112     -0.1976
    109  CA        24.5320   37.8760  -12.3460 C.3   112  PHE112      0.1639
    110  C         25.2870   37.6690  -11.0400 C.2   112  PHE112      0.2290
    111  O         24.8690   38.1800   -9.9900 O.2   112  PHE112     -0.2864
    112  CB        24.1080   36.5320  -12.9790 C.3   112  PHE112      0.0560
    113  CG        23.3090   35.6470  -12.0620 C.ar  112  PHE112     -0.0200
    114  CD1       22.0120   35.9980  -11.6770 C.ar  112  PHE112     -0.0042
    115  CD2       23.8500   34.4520  -11.5740 C.ar  112  PHE112     -0.0042
    116  CE1       21.2800   35.1810  -10.8300 C.ar  112  PHE112     -0.0003
    117  CE2       23.1170   33.6320  -10.7330 C.ar  112  PHE112     -0.0003
    118  CZ        21.8290   33.9960  -10.3580 C.ar  112  PHE112     -0.0000
    119  N         28.2580   38.3360   -8.3960 N.3   114  ILE114     -0.1245
    120  CA        28.9570   39.5530   -8.0090 C.3   114  ILE114      0.1561
    121  C         30.4190   39.2090   -7.7830 C.2   114  ILE114      0.2260
    122  O         30.7550   38.3300   -6.9640 O.2   114  ILE114     -0.2867
    123  CB        28.3630   40.2170   -6.7440 C.3   114  ILE114      0.0252
    124  CG1       26.8720   40.5820   -6.9520 C.3   114  ILE114      0.0019
    125  CG2       29.1820   41.4480   -6.3570 C.3   114  ILE114      0.0019
    126  CD1       26.0820   40.7940   -5.6610 C.3   114  ILE114      0.0001
    127  N         28.7850   34.1760   -2.4120 N.3   119  TRP119     -0.1241
    128  CA        27.7140   33.2420   -2.7560 C.3   119  TRP119      0.1605
    129  C         27.7460   32.7840   -4.2110 C.2   119  TRP119      0.2264
    130  O         28.2170   33.5070   -5.0940 O.2   119  TRP119     -0.2867
    131  CB        26.3210   33.7790   -2.3580 C.3   119  TRP119      0.0550
    132  CG        25.9530   35.1130   -2.9240 C.ar  119  TRP119      0.0003
    133  CD1       26.0510   36.3240   -2.2970 C.ar  119  TRP119      0.0946
    134  CD2       25.3690   35.3740   -4.2110 C.ar  119  TRP119      0.0152
    135  NE1       25.5950   37.3250   -3.1220 N.ar  119  TRP119     -0.2442
    136  CE2       25.1670   36.7730   -4.2990 C.ar  119  TRP119      0.0810
    137  CE3       25.0140   34.5640   -5.3070 C.ar  119  TRP119      0.0012
    138  CZ2       24.6200   37.3810   -5.4320 C.ar  119  TRP119      0.0191
    139  CZ3       24.4680   35.1710   -6.4350 C.ar  119  TRP119      0.0001
    140  CH2       24.2770   36.5670   -6.4900 C.ar  119  TRP119      0.0015
    141  N         21.3010   31.0920   -5.8620 N.3   122  ILE122     -0.1245
    142  CA        20.1630   31.8800   -5.3890 C.3   122  ILE122      0.1561
    143  C         19.0380   30.9340   -4.9980 C.2   122  ILE122      0.2260
    144  O         18.7370   29.9810   -5.7260 O.2   122  ILE122     -0.2867
    145  CB        19.6790   32.9140   -6.4410 C.3   122  ILE122      0.0252
    146  CG1       20.8070   33.9130   -6.7730 C.3   122  ILE122      0.0019
    147  CG2       18.4580   33.6560   -5.9040 C.3   122  ILE122      0.0019
    148  CD1       20.3610   35.1960   -7.4540 C.3   122  ILE122      0.0001
    149  N         27.4130   41.7130    7.1840 N.3   166  VAL166     -0.1245
    150  CA        26.0310   41.7150    7.6310 C.3   166  VAL166      0.1561
    151  C         25.7130   40.2930    8.0710 C.2   166  VAL166      0.2260
    152  O         26.5270   39.3790    7.8790 O.2   166  VAL166     -0.2867
    153  CB        25.0560   42.2540    6.5490 C.3   166  VAL166      0.0252
    154  CG1       25.3220   43.7320    6.2660 C.3   166  VAL166      0.0019
    155  CG2       25.1170   41.4360    5.2620 C.3   166  VAL166      0.0019
    156  N          4.8000   36.6720   -6.6960 N.3   194  TYR194     -0.1241
    157  CA         5.7030   37.3590   -5.7730 C.3   194  TYR194      0.1605
    158  C          5.0550   37.3550   -4.3810 C.2   194  TYR194      0.2264
    159  O          3.8920   36.9640   -4.2330 O.2   194  TYR194     -0.2867
    160  CB         5.9040   38.8020   -6.2200 C.3   194  TYR194      0.0534
    161  CG         6.6030   38.9550   -7.5460 C.ar  194  TYR194     -0.0201
    162  CD1        7.9990   38.9740   -7.6210 C.ar  194  TYR194     -0.0009
    163  CD2        5.8690   39.0820   -8.7380 C.ar  194  TYR194     -0.0009
    164  CE1        8.6480   39.1110   -8.8450 C.ar  194  TYR194      0.0417
    165  CE2        6.5050   39.2290   -9.9610 C.ar  194  TYR194      0.0417
    166  CZ         7.8920   39.2450  -10.0040 C.ar  194  TYR194      0.1957
    167  OH         8.5240   39.3850  -11.2110 O.3   194  TYR194     -0.2866
    168  N         10.9070   41.8010   -1.0160 N.3   224  ASP224     -0.1225
    169  CA        11.9980   41.1760   -1.7700 C.3   224  ASP224      0.1805
    170  C         13.3550   41.2900   -1.0660 C.2   224  ASP224      0.2598
    171  O         13.9780   42.3430   -1.1080 O.2   224  ASP224     -0.2718
    172  CB        12.0630   41.8150   -3.1550 C.3   224  ASP224      0.1424
    173  CG        13.0680   41.1560   -4.0640 C.2   224  ASP224      0.3668
    174  OD1       13.6770   40.1100   -3.6930 O.co2 224  ASP224     -0.2456
    175  OD2       13.2440   41.7100   -5.1640 O.co2 224  ASP224     -0.2456
    176  N         13.8030   40.2000   -0.4380 N.am  225  SER225     -0.1938
    177  CA        15.1170   40.1520    0.2190 C.3   225  SER225      0.2055
    178  C         16.2740   40.2000   -0.7880 C.2   225  SER225      0.2644
    179  O         17.4040   40.4430   -0.4060 O.2   225  SER225     -0.2714
    180  CB        15.2300   38.9070    1.0950 C.3   225  SER225      0.2130
    181  OG        15.1270   37.7260    0.3160 O.3   225  SER225     -0.2179
    182  N         15.9720   39.9850   -2.0720 N.am  226  GLY226     -0.1939
    183  CA        16.9760   39.9790   -3.1290 C.3   226  GLY226      0.2014
    184  C         17.1350   41.3020   -3.8520 C.2   226  GLY226      0.2640
    185  O         17.7850   41.3410   -4.8970 O.2   226  GLY226     -0.2714
    186  N         16.5400   42.3680   -3.3000 N.am  227  THR227     -0.1936
    187  CA        16.6770   43.7400   -3.7890 C.3   227  THR227      0.2028
    188  C         17.1890   44.6000   -2.6480 C.2   227  THR227      0.2642
    189  O         16.7110   44.4760   -1.5180 O.2   227  THR227     -0.2714
    190  CB        15.3190   44.3090   -4.2710 C.3   227  THR227      0.1808
    191  OG1       14.9220   43.6400   -5.4670 O.3   227  THR227     -0.2208
    192  CG2       15.3910   45.8170   -4.5650 C.3   227  THR227      0.0379
    193  N         18.1390   45.4880   -2.9450 N.am  228  THR228     -0.1950
    194  CA        18.7090   46.3640   -1.9180 C.3   228  THR228      0.1897
    195  C         17.7760   47.5200   -1.5460 C.2   228  THR228      0.2313
    196  O         17.5020   47.7580   -0.3650 O.2   228  THR228     -0.2863
    197  CB        20.0890   46.9070   -2.3530 C.3   228  THR228      0.1794
    198  OG1       20.9930   45.8130   -2.5080 O.3   228  THR228     -0.2208
    199  CG2       20.6610   47.8880   -1.3130 C.3   228  THR228      0.0378
    200  N         12.2780   50.4710   -3.6030 N.3   231  ARG231     -0.1245
    201  CA        11.9790   50.9500   -4.9400 C.3   231  ARG231      0.1563
    202  C         10.5240   51.3840   -4.9780 C.2   231  ARG231      0.2260
    203  O          9.6490   50.6450   -4.5180 O.2   231  ARG231     -0.2867
    204  CB        12.2800   49.8750   -5.9940 C.3   231  ARG231      0.0307
    205  CG        13.7130   49.3300   -5.9220 C.3   231  ARG231      0.0489
    206  CD        14.0140   48.3540   -7.0520 C.3   231  ARG231      0.2205
    207  NE        14.0650   49.0370   -8.3370 N.pl3 231  ARG231     -0.0865
    208  CZ        13.6670   48.5290   -9.5050 C.cat 231  ARG231      0.5346
    209  NH1       13.1630   47.2970   -9.5880 N.pl3 231  ARG231      0.1354
    210  NH2       13.7670   49.2780  -10.6050 N.pl3 231  ARG231      0.1354
    211  N         22.5330   54.3980    2.7560 N.3   303  ARG303     -0.1245
    212  CA        23.3830   53.2160    2.9500 C.3   303  ARG303      0.1563
    213  C         24.8580   53.5500    2.7660 C.2   303  ARG303      0.2260
    214  O         25.2030   54.1980    1.7730 O.2   303  ARG303     -0.2867
    215  CB        22.9600   52.0890    2.0130 C.3   303  ARG303      0.0307
    216  CG        21.5560   51.6040    2.2990 C.3   303  ARG303      0.0489
    217  CD        21.1610   50.5010    1.3520 C.3   303  ARG303      0.2205
    218  NE        21.6930   49.2050    1.7690 N.pl3 303  ARG303     -0.0865
    219  CZ        21.1890   48.4630    2.7540 C.cat 303  ARG303      0.5346
    220  NH1       20.1370   48.8890    3.4730 N.pl3 303  ARG303      0.1354
    221  NH2       21.7430   47.2990    3.0220 N.pl3 303  ARG303      0.1354
    222  N         15.9320   45.2980    0.9790 N.3   331  ALA331     -0.1245
    223  CA        16.7450   45.3310    2.2070 C.3   331  ALA331      0.1562
    224  C         16.5410   46.6010    3.0330 C.2   331  ALA331      0.2260
    225  O         16.5540   46.5390    4.2590 O.2   331  ALA331     -0.2867
    226  CB        18.2300   45.1380    1.8880 C.3   331  ALA331      0.0290
@<TRIPOS>BOND
     1   107   106    1
     2    74    73    2
     3    86    85    2
     4   106   105    1
     5    93    92    2
     6    71    72    1
     7    73    83   am
     8    73    72    1
     9    85    84    1
    10    85    90   am
    11   105   104    1
    12    84    83    1
    13    84    87    1
    14    89    87    1
    15    92    91    1
    16    72    75    1
    17   104   103    1
    18    91    90    1
    19    91    94    1
    20    87    88    1
    21    99   100    1
    22   103   100    1
    23    98    96   am
    24    97    96    2
    25    75    76    1
    26    96    95    1
    27   100   101    1
    28    94    95    1
    29    76    78   ar
    30    76    77   ar
    31    78    80   ar
    32   101   108   am
    33   101   102    2
    34    77    79   ar
    35    80    81   ar
    36   108   109    1
    37   112   109    1
    38   112   113    1
    39    79    81   ar
    40    81    82    1
    41   109   110    1
    42   113   114   ar
    43   113   115   ar
    44   114   116   ar
    45   115   117   ar
    46   167   166    1
    47   110   111    2
    48   116   118   ar
    49   117   118   ar
    50   210   208    1
    51   166   165   ar
    52   166   164   ar
    53   165   163   ar
    54   209   208    1
    55   208   207    2
    56   164   162   ar
    57   163   161   ar
    58   119   120    1
    59   207   206    1
    60   120   121    1
    61   120   123    1
    62    69    66    1
    63    69    70    1
    64   121   122    2
    65   162   161   ar
    66   161   160    1
    67   148   146    1
    68    64    63    2
    69    66    67    1
    70    66    65    1
    71   206   205    1
    72   124   123    1
    73   124   126    1
    74    67    68    2
    75   146   145    1
    76   123   125    1
    77   156   157    1
    78   140   139   ar
    79   140   138   ar
    80   145   147    1
    81   145   142    1
    82   139   137   ar
    83    63    65   am
    84    63    62    1
    85   160   157    1
    86    60    58   ar
    87   204   205    1
    88   204   201    1
    89   141   142    1
    90   157   158    1
    91   144   143    2
    92   191   190    1
    93   138   136   ar
    94   142   143    1
    95   137   134   ar
    96   175   173   ar
    97   130   129    2
    98    62    61    1
    99   202   201    1
   100   202   203    2
   101   201   200    1
   102   185   184    2
   103    58    59   ar
   104    58    57    1
   105   192   190    1
   106   158   159    2
   107   136   134   ar
   108   136   135   ar
   109   190   187    1
   110   129   128    1
   111   134   132   ar
   112    52    50    1
   113   173   174   ar
   114   173   172    1
   115   184   186   am
   116   184   183    1
   117   187   186    1
   118   187   188    1
   119    57    54    1
   120   172   169    1
   121   183   182    1
   122   135   133   ar
   123    56    55    2
   124   193   188   am
   125   193   194    1
   126   132   131    1
   127   132   133   ar
   128    28    26   am
   129    19    18    2
   130    49    50    1
   131    49    46    1
   132   128   127    1
   133   128   131    1
   134    50    51    1
   135   188   189    2
   136   198   197    1
   137    55    54    1
   138    54    53    1
   139   197   194    1
   140   197   199    1
   141    25    26    1
   142    25    24    1
   143    26    27    2
   144    48    47    2
   145   182   178   am
   146   194   195    1
   147    45    46    1
   148    23    22    2
   149   169   170    1
   150   169   168    1
   151    21    24    1
   152    21    22    1
   153    21    20    1
   154    18    20   am
   155    18    17    1
   156    46    47    1
   157   195   196    2
   158    22    29   am
   159   171   170    2
   160   170   176   am
   161    17    16    1
   162   178   179    2
   163   178   177    1
   164   176   177    1
   165    29    30    1
   166    30    31    1
   167   177   180    1
   168    13    12    2
   169   181   180    1
   170    16    12   am
   171   222   223    1
   172    12    11    1
   173    31    33   am
   174    31    32    2
   175     8     7    1
   176     8     9    1
   177   217   218    1
   178   217   216    1
   179     7     6    1
   180    36    35    2
   181    33    34    1
   182     4     3    2
   183   218   219    2
   184   214   213    2
   185   226   223    1
   186     5     6    1
   187     5     2    1
   188   215   216    1
   189   215   212    1
   190    35    34    1
   191   223   224    1
   192     3     2    1
   193     3    10   am
   194    11    10    1
   195    11    14    1
   196    34    37    1
   197   219   221    1
   198   219   220    1
   199   211   212    1
   200   213   212    1
   201     2     1    1
   202    14    15    1
   203   224   225    2
   204    40    42   ar
   205    40    38   ar
   206    37    38    1
   207    42    43   ar
   208    38    39   ar
   209    43    44    1
   210    43    41   ar
   211   155   153    1
   212    39    41   ar
   213   154   153    1
   214   153   150    1
   215   149   150    1
   216   150   151    1
   217   152   151    2
