@<TRIPOS>MOLECULE
tmp/5yh3C01.pdb
 156 149 0 0 0
SMALL
GASTEIGER

@<TRIPOS>ATOM
      1  N         -5.0460   -0.7020  -53.0650 N.3    41  LYS41      -0.1245
      2  CA        -5.4380    0.0260  -54.2650 C.3    41  LYS41       0.1561
      3  C         -4.4620    1.1510  -54.5800 C.2    41  LYS41       0.2260
      4  O         -4.2860    1.5080  -55.7510 O.2    41  LYS41      -0.2867
      5  CB        -6.8560    0.5700  -54.1070 C.3    41  LYS41       0.0271
      6  CG        -7.9360   -0.4810  -54.2750 C.3    41  LYS41       0.0035
      7  CD        -8.8230   -0.1480  -55.4580 C.3    41  LYS41       0.0206
      8  CE        -8.0500   -0.2410  -56.7600 C.3    41  LYS41       0.1093
      9  NZ        -8.8830    0.1550  -57.9220 N.3    41  LYS41      -0.1314
     10  N         -1.4460   -0.7830  -56.1210 N.3    44  ARG44      -0.1231
     11  CA        -1.7330   -1.2100  -57.4870 C.3    44  ARG44       0.1694
     12  C         -1.7510   -0.0240  -58.4420 C.2    44  ARG44       0.2592
     13  O         -1.2960   -0.1340  -59.5870 O.2    44  ARG44      -0.2718
     14  CB        -3.0680   -1.9570  -57.5440 C.3    44  ARG44       0.0321
     15  CG        -3.2040   -2.8650  -58.7640 C.3    44  ARG44       0.0489
     16  CD        -4.6120   -3.4320  -58.9260 C.3    44  ARG44       0.2205
     17  NE        -5.5390   -2.4610  -59.5050 N.pl3  44  ARG44      -0.0865
     18  CZ        -5.9880   -2.5150  -60.7560 C.cat  44  ARG44       0.5346
     19  NH1       -5.5910   -3.4920  -61.5590 N.pl3  44  ARG44       0.1354
     20  NH2       -6.8320   -1.5950  -61.2040 N.pl3  44  ARG44       0.1354
     21  N         -2.2750    1.1170  -57.9910 N.am   45  TRP45      -0.1976
     22  CA        -2.3040    2.3000  -58.8420 C.3    45  TRP45       0.1640
     23  C         -0.8930    2.7520  -59.1940 C.2    45  TRP45       0.2290
     24  O         -0.5940    3.0390  -60.3580 O.2    45  TRP45      -0.2864
     25  CB        -3.0840    3.4240  -58.1600 C.3    45  TRP45       0.0576
     26  CG        -3.3760    4.5760  -59.0730 C.ar   45  TRP45       0.0006
     27  CD1       -4.5070    4.7710  -59.8120 C.ar   45  TRP45       0.0946
     28  CD2       -2.5170    5.6880  -59.3540 C.ar   45  TRP45       0.0152
     29  NE1       -4.4080    5.9370  -60.5320 N.ar   45  TRP45      -0.2442
     30  CE2       -3.1950    6.5180  -60.2690 C.ar   45  TRP45       0.0810
     31  CE3       -1.2410    6.0630  -58.9200 C.ar   45  TRP45       0.0012
     32  CZ2       -2.6410    7.7000  -60.7570 C.ar   45  TRP45       0.0191
     33  CZ3       -0.6930    7.2360  -59.4050 C.ar   45  TRP45       0.0001
     34  CH2       -1.3920    8.0410  -60.3140 C.ar   45  TRP45       0.0015
     35  N          0.5970    0.1750  -61.9180 N.3    48  ARG48      -0.1245
     36  CA        -0.0310    0.2430  -63.2300 C.3    48  ARG48       0.1563
     37  C         -0.0300    1.6490  -63.8200 C.2    48  ARG48       0.2260
     38  O         -0.2740    1.7940  -65.0230 O.2    48  ARG48      -0.2867
     39  CB        -1.4560   -0.2990  -63.1250 C.3    48  ARG48       0.0307
     40  CG        -2.0520   -0.8200  -64.4210 C.3    48  ARG48       0.0489
     41  CD        -3.3720   -1.5010  -64.1330 C.3    48  ARG48       0.2205
     42  NE        -4.1260   -0.7100  -63.1720 N.pl3  48  ARG48      -0.0865
     43  CZ        -4.8060    0.3850  -63.4870 C.cat  48  ARG48       0.5346
     44  NH1       -4.8440    0.8160  -64.7430 N.pl3  48  ARG48       0.1354
     45  NH2       -5.4490    1.0530  -62.5450 N.pl3  48  ARG48       0.1354
     46  N          3.7720    1.9880  -65.2530 N.3    51  MET51      -0.1230
     47  CA         3.8950    1.2440  -66.5030 C.3    51  MET51       0.1702
     48  C          3.3140    2.0250  -67.6760 C.2    51  MET51       0.2592
     49  O          3.9130    2.0660  -68.7560 O.2    51  MET51      -0.2718
     50  CB         3.2170   -0.1180  -66.3690 C.3    51  MET51       0.0401
     51  CG         3.8320   -0.9990  -65.2980 C.3    51  MET51       0.0596
     52  SD         3.4020   -2.7390  -65.4800 S.3    51  MET51      -0.1393
     53  CE         4.7420   -3.2980  -66.5260 C.3    51  MET51       0.0692
     54  N          2.1430    2.6430  -67.4870 N.am   52  TYR52      -0.1976
     55  CA         1.5840    3.5010  -68.5300 C.3    52  TYR52       0.1639
     56  C          2.5450    4.6300  -68.8840 C.2    52  TYR52       0.2290
     57  O          2.6850    4.9910  -70.0590 O.2    52  TYR52      -0.2864
     58  CB         0.2320    4.0670  -68.0940 C.3    52  TYR52       0.0560
     59  CG        -0.4460    4.8940  -69.1710 C.ar   52  TYR52      -0.0198
     60  CD1       -1.1910    4.2890  -70.1760 C.ar   52  TYR52      -0.0009
     61  CD2       -0.3240    6.2800  -69.1930 C.ar   52  TYR52      -0.0009
     62  CE1       -1.8060    5.0400  -71.1680 C.ar   52  TYR52       0.0417
     63  CE2       -0.9330    7.0390  -70.1800 C.ar   52  TYR52       0.0417
     64  CZ        -1.6730    6.4150  -71.1650 C.ar   52  TYR52       0.1957
     65  OH        -2.2800    7.1670  -72.1460 O.3    52  TYR52      -0.2866
     66  N          5.3190    3.0630  -71.0800 N.3    55  GLN55      -0.1231
     67  CA         4.9030    2.7530  -72.4450 C.3    55  GLN55       0.1698
     68  C          4.8190    4.0130  -73.2990 C.2    55  GLN55       0.2592
     69  O          5.3160    4.0430  -74.4310 O.2    55  GLN55      -0.2718
     70  CB         3.5570    2.0250  -72.4330 C.3    55  GLN55       0.0381
     71  CG         3.5430    0.7410  -71.6150 C.3    55  GLN55       0.0905
     72  CD         2.1930    0.0460  -71.6350 C.2    55  GLN55       0.2608
     73  OE1        1.2610    0.4870  -72.3120 O.2    55  GLN55      -0.2717
     74  NE2        2.0800   -1.0460  -70.8850 N.am   55  GLN55      -0.0878
     75  N          4.1900    5.0640  -72.7750 N.am   56  MET56      -0.1979
     76  CA         4.0440    6.3240  -73.4930 C.3    56  MET56       0.1605
     77  C          5.2730    7.2210  -73.3780 C.2    56  MET56       0.2287
     78  O          5.2020    8.3940  -73.7690 O.2    56  MET56      -0.2864
     79  CB         2.7980    7.0700  -73.0000 C.3    56  MET56       0.0413
     80  CG         1.5480    6.2020  -72.8930 C.3    56  MET56       0.0598
     81  SD         0.9740    5.5580  -74.4830 S.3    56  MET56      -0.1393
     82  CE         0.7780    7.0700  -75.4250 C.3    56  MET56       0.0692
     83  N         -6.3020   11.3370  -62.5300 N.3   107  SER107     -0.1202
     84  CA        -6.9300   10.3200  -63.3600 C.3   107  SER107      0.2020
     85  C         -8.3690   10.7260  -63.6320 C.2   107  SER107      0.2619
     86  O         -8.9970   11.4150  -62.8260 O.2   107  SER107     -0.2717
     87  CB        -6.8850    8.9410  -62.6860 C.3   107  SER107      0.2103
     88  OG        -7.9480    8.1120  -63.1310 O.3   107  SER107     -0.2182
     89  N         -8.8790   10.2850  -64.7760 N.am  108  ALA108     -0.1965
     90  CA       -10.2720   10.4940  -65.1370 C.3   108  ALA108      0.1728
     91  C        -10.6880    9.3370  -66.0270 C.2   108  ALA108      0.2616
     92  O         -9.9730    9.0050  -66.9770 O.2   108  ALA108     -0.2715
     93  CB       -10.4700   11.8320  -65.8530 C.3   108  ALA108      0.0334
     94  N        -11.8150    8.7090  -65.7150 N.am  109  ASP109     -0.1971
     95  CA       -12.2810    7.5790  -66.5050 C.3   109  ASP109      0.1709
     96  C        -13.7330    7.8360  -66.8940 C.2   109  ASP109      0.2293
     97  O        -14.2220    8.9720  -66.8880 O.2   109  ASP109     -0.2864
     98  CB       -12.0840    6.2670  -65.7360 C.3   109  ASP109      0.1436
     99  CG       -11.7610    5.0990  -66.6510 C.2   109  ASP109      0.3671
    100  OD1      -12.1170    5.1600  -67.8470 O.co2 109  ASP109     -0.2456
    101  OD2      -11.1480    4.1190  -66.1760 O.co2 109  ASP109     -0.2456
    102  N        -19.4790    1.8930  -69.3310 N.3   115  LYS115     -0.1245
    103  CA       -18.3550    0.9660  -69.4170 C.3   115  LYS115      0.1561
    104  C        -18.8500   -0.4770  -69.3270 C.2   115  LYS115      0.2260
    105  O        -18.4640   -1.3230  -70.1410 O.2   115  LYS115     -0.2867
    106  CB       -17.3360    1.2650  -68.3120 C.3   115  LYS115      0.0271
    107  CG       -15.8840    1.0550  -68.6980 C.3   115  LYS115      0.0035
    108  CD       -14.9690    1.8450  -67.7720 C.3   115  LYS115      0.0206
    109  CE       -13.5800    1.2370  -67.7180 C.3   115  LYS115      0.1093
    110  NZ       -12.6460    2.0480  -66.8940 N.3   115  LYS115     -0.1314
    111  N         -9.8290   11.6130  -59.9870 N.3   139  ARG139     -0.1245
    112  CA        -9.0110   11.1460  -58.8760 C.3   139  ARG139      0.1563
    113  C         -8.0410   12.2470  -58.4940 C.2   139  ARG139      0.2260
    114  O         -7.3650   12.8110  -59.3590 O.2   139  ARG139     -0.2867
    115  CB        -8.2360    9.8730  -59.2250 C.3   139  ARG139      0.0307
    116  CG        -9.0650    8.7960  -59.8860 C.3   139  ARG139      0.0489
    117  CD        -8.4000    7.4550  -59.7010 C.3   139  ARG139      0.2205
    118  NE        -8.1760    7.2270  -58.2810 N.pl3 139  ARG139     -0.0865
    119  CZ        -8.2550    6.0420  -57.6950 C.cat 139  ARG139      0.5346
    120  NH1       -8.5500    4.9640  -58.4040 N.pl3 139  ARG139      0.1354
    121  NH2       -8.0520    5.9430  -56.3950 N.pl3 139  ARG139      0.1354
    122  N        -11.8080   10.0560  -54.7940 N.3   145  LYS145     -0.1245
    123  CA       -12.5340   10.1280  -56.0530 C.3   145  LYS145      0.1561
    124  C        -13.7930   10.9730  -55.8980 C.2   145  LYS145      0.2260
    125  O        -14.2340   11.2830  -54.7880 O.2   145  LYS145     -0.2867
    126  CB       -12.8970    8.7260  -56.5560 C.3   145  LYS145      0.0271
    127  CG       -11.6990    7.8520  -56.8630 C.3   145  LYS145      0.0035
    128  CD       -12.0830    6.6400  -57.6860 C.3   145  LYS145      0.0206
    129  CE       -12.3070    5.4350  -56.8040 C.3   145  LYS145      0.1093
    130  NZ       -12.4070    4.1910  -57.6100 N.3   145  LYS145     -0.1314
    131  N         -6.2730    7.6390  -68.9550 N.3   209  LYS209     -0.1231
    132  CA        -5.6240    6.5370  -69.6510 C.3   209  LYS209      0.1693
    133  C         -6.5700    5.8150  -70.6020 C.2   209  LYS209      0.2592
    134  O         -6.1590    4.8500  -71.2540 O.2   209  LYS209     -0.2718
    135  CB        -5.0480    5.5380  -68.6440 C.3   209  LYS209      0.0285
    136  CG        -4.0760    6.1460  -67.6440 C.3   209  LYS209      0.0035
    137  CD        -3.5670    5.0930  -66.6670 C.3   209  LYS209      0.0206
    138  CE        -2.6360    5.7020  -65.6290 C.3   209  LYS209      0.1093
    139  NZ        -3.2620    6.8660  -64.9340 N.3   209  LYS209     -0.1314
    140  N         -7.8180    6.2640  -70.6960 N.am  210  ASN210     -0.1960
    141  CA        -8.8280    5.6010  -71.5090 C.3   210  ASN210      0.1819
    142  C         -8.7170    6.0860  -72.9490 C.2   210  ASN210      0.2621
    143  O         -8.8930    7.2790  -73.2210 O.2   210  ASN210     -0.2715
    144  CB       -10.2190    5.8830  -70.9460 C.3   210  ASN210      0.1195
    145  CG       -11.2840    4.9910  -71.5460 C.2   210  ASN210      0.2630
    146  OD1      -11.6870    5.1760  -72.6940 O.2   210  ASN210     -0.2716
    147  ND2      -11.7500    4.0190  -70.7680 N.am  210  ASN210     -0.0877
    148  N         -8.4190    5.1630  -73.8700 N.am  211  GLU211     -0.1977
    149  CA        -8.2450    5.5500  -75.2660 C.3   211  GLU211      0.1602
    150  C         -9.5310    6.1120  -75.8550 C.2   211  GLU211      0.2287
    151  O         -9.4830    6.9530  -76.7600 O.2   211  GLU211     -0.2864
    152  CB        -7.7620    4.3570  -76.0980 C.3   211  GLU211      0.0415
    153  CG        -6.6160    3.5550  -75.4770 C.3   211  GLU211      0.1163
    154  CD        -5.4770    3.2830  -76.4540 C.2   211  GLU211      0.3649
    155  OE1       -4.6310    4.1820  -76.6430 O.co2 211  GLU211     -0.2457
    156  OE2       -5.4250    2.1750  -77.0330 O.co2 211  GLU211     -0.2457
@<TRIPOS>BOND
     1   156   154   ar
     2   151   150    2
     3   155   154   ar
     4   154   153    1
     5   152   153    1
     6   152   149    1
     7   150   149    1
     8    82    81    1
     9   149   148    1
    10    81    80    1
    11    69    68    2
    12   148   142   am
    13    78    77    2
    14    76    77    1
    15    76    79    1
    16    76    75    1
    17    68    75   am
    18    68    67    1
    19   143   142    2
    20    79    80    1
    21   142   141    1
    22   146   145    2
    23    67    70    1
    24    67    66    1
    25    70    71    1
    26    73    72    2
    27    65    64    1
    28    72    71    1
    29    72    74   am
    30   145   144    1
    31   145   147   am
    32   141   144    1
    33   141   140    1
    34   134   133    2
    35    62    64   ar
    36    62    60   ar
    37    64    63   ar
    38   140   133   am
    39   133   132    1
    40    63    61   ar
    41    60    59   ar
    42   105   104    2
    43    57    56    2
    44   132   131    1
    45   132   135    1
    46   103   102    1
    47   103   104    1
    48   103   106    1
    49    61    59   ar
    50    59    58    1
    51    56    55    1
    52    49    48    2
    53   107   106    1
    54   107   108    1
    55   135   136    1
    56    55    58    1
    57    55    54    1
    58   100    99   ar
    59   108   109    1
    60   109   110    1
    61    48    54   am
    62    48    47    1
    63   136   137    1
    64    92    91    2
    65    96    97    2
    66    96    95    1
    67   137   138    1
    68    99   101   ar
    69    99    98    1
    70    53    52    1
    71    95    98    1
    72    95    94    1
    73    47    50    1
    74    47    46    1
    75    50    51    1
    76    91    94   am
    77    91    90    1
    78    93    90    1
    79   138   139    1
    80    52    51    1
    81    90    89    1
    82    38    37    2
    83    89    85   am
    84    44    43    1
    85    40    41    1
    86    40    39    1
    87    41    42    1
    88    37    36    1
    89    85    84    1
    90    85    86    2
    91    43    42    2
    92    43    45    1
    93    84    87    1
    94    84    83    1
    95    36    39    1
    96    36    35    1
    97    88    87    1
    98    19    18    1
    99    20    18    1
   100    32    34   ar
   101    32    30   ar
   102    18    17    2
   103    29    30   ar
   104    29    27   ar
   105    24    23    2
   106    34    33   ar
   107    30    28   ar
   108   111   112    1
   109   116   117    1
   110   116   115    1
   111    27    26   ar
   112   117   118    1
   113    13    12    2
   114    17    16    1
   115    33    31   ar
   116   114   113    2
   117    28    26   ar
   118    28    31   ar
   119   115   112    1
   120    23    22    1
   121    26    25    1
   122    16    15    1
   123   112   113    1
   124    22    25    1
   125    22    21    1
   126    15    14    1
   127    12    21   am
   128    12    11    1
   129   120   119    1
   130   118   119    2
   131     9     8    1
   132   119   121    1
   133   128   127    1
   134   128   129    1
   135   130   129    1
   136    14    11    1
   137    11    10    1
   138   127   126    1
   139     8     7    1
   140   126   123    1
   141   123   124    1
   142   123   122    1
   143   124   125    2
   144     4     3    2
   145     7     6    1
   146     3     2    1
   147     6     5    1
   148     2     5    1
   149     2     1    1
