@<TRIPOS>MOLECULE
tmp/5yh8A00.pdb
 91 86 0 0 0
SMALL
GASTEIGER

@<TRIPOS>ATOM
      1  N        -12.5600   14.8160  -27.8110 N.3    38  SER38      -0.1217
      2  CA       -13.6480   13.9600  -28.2350 C.3    38  SER38       0.1889
      3  C        -13.3110   13.1340  -29.4660 C.2    38  SER38       0.2288
      4  O        -14.0490   12.2550  -29.8100 O.2    38  SER38      -0.2866
      5  CB       -14.8990   14.7810  -28.5220 C.3    38  SER38       0.2089
      6  OG       -15.5160   15.0730  -27.2800 O.3    38  SER38      -0.2183
      7  N        -16.3820    8.0560  -23.4530 N.3    43  PRO43      -0.2116
      8  CA       -16.9870    7.6990  -22.1800 C.3    43  PRO43       0.1372
      9  C        -17.6700    6.3040  -22.2600 C.2    43  PRO43       0.2244
     10  O        -17.6960    5.6790  -23.3140 O.2    43  PRO43      -0.2868
     11  CB       -18.0430    8.7910  -22.0100 C.3    43  PRO43       0.0268
     12  CG       -18.5290    9.0010  -23.4200 C.3    43  PRO43       0.0207
     13  CD       -17.2650    8.9370  -24.2350 C.3    43  PRO43       0.0892
     14  N        -23.0910    7.5200  -24.2050 N.3    46  ARG46      -0.1231
     15  CA       -23.2630    8.7680  -24.9110 C.3    46  ARG46       0.1694
     16  C        -24.5880    9.4190  -24.6090 C.2    46  ARG46       0.2592
     17  O        -25.5740    8.7530  -24.5070 O.2    46  ARG46      -0.2718
     18  CB       -23.3040    8.5410  -26.4030 C.3    46  ARG46       0.0321
     19  CG       -21.9880    8.4430  -27.0960 C.3    46  ARG46       0.0489
     20  CD       -21.6880    9.5990  -28.0340 C.3    46  ARG46       0.2205
     21  NE       -20.3000    9.4740  -28.4480 N.pl3  46  ARG46      -0.0865
     22  CZ       -19.2680    9.9600  -27.7760 C.cat  46  ARG46       0.5346
     23  NH1      -19.4490   10.6660  -26.6910 N.pl3  46  ARG46       0.1354
     24  NH2      -18.0590    9.7550  -28.2150 N.pl3  46  ARG46       0.1354
     25  N        -24.5910   10.7240  -24.4600 N.am   47  ASN47      -0.1974
     26  CA       -25.8260   11.4830  -24.3170 C.3    47  ASN47       0.1688
     27  C        -26.2720   12.1300  -25.6350 C.2    47  ASN47       0.2292
     28  O        -25.6310   13.0550  -26.1150 O.2    47  ASN47      -0.2864
     29  CB       -25.6970   12.5450  -23.2270 C.3    47  ASN47       0.1181
     30  CG       -27.0240   12.9110  -22.6300 C.2    47  ASN47       0.2629
     31  OD1      -28.0680   12.4130  -23.0560 O.2    47  ASN47      -0.2716
     32  ND2      -27.0000   13.7400  -21.6190 N.am   47  ASN47      -0.0877
     33  N        -21.5390   10.6810  -19.2340 N.3   140  ALA140     -0.1231
     34  CA       -21.4670   10.9250  -20.6890 C.3   140  ALA140      0.1694
     35  C        -20.6920   12.1700  -21.1000 C.2   140  ALA140      0.2592
     36  O        -20.4460   12.3320  -22.2590 O.2   140  ALA140     -0.2718
     37  CB       -22.8670   10.9780  -21.2810 C.3   140  ALA140      0.0304
     38  N        -20.2870   13.0100  -20.1580 N.am  141  MET141     -0.1966
     39  CA       -19.5490   14.2480  -20.4810 C.3   141  MET141      0.1721
     40  C        -18.1790   13.9000  -21.1030 C.2   141  MET141      0.2458
     41  O        -17.6210   12.8140  -20.8390 O.2   141  MET141     -0.2730
     42  CB       -19.2980   15.0800  -19.2390 C.3   141  MET141      0.0427
     43  CG       -20.5050   15.5720  -18.4530 C.3   141  MET141      0.0599
     44  SD       -21.3130   16.8410  -19.4000 S.3   141  MET141     -0.1393
     45  CE       -22.4430   17.4010  -18.1180 C.3   141  MET141      0.0692
     46  N        -17.6390   14.8060  -21.9370 N.am  142  PRO142     -0.2727
     47  CA       -16.3620   14.5030  -22.5910 C.3   142  PRO142      0.1402
     48  C        -15.1870   14.6620  -21.6790 C.2   142  PRO142      0.2269
     49  O        -14.1190   14.1780  -22.0380 O.2   142  PRO142     -0.2865
     50  CB       -16.2850   15.5360  -23.7250 C.3   142  PRO142      0.0296
     51  CG       -17.0350   16.6730  -23.1590 C.3   142  PRO142      0.0237
     52  CD       -18.1820   16.0890  -22.4110 C.3   142  PRO142      0.0939
     53  N        -25.8300   20.6040  -23.4410 N.3   412  LEU412     -0.1245
     54  CA       -25.6470   19.5200  -22.4700 C.3   412  LEU412      0.1561
     55  C        -25.4310   20.0210  -21.0330 C.2   412  LEU412      0.2260
     56  O        -25.4830   19.2490  -20.0910 O.2   412  LEU412     -0.2867
     57  CB       -24.3730   18.7420  -22.7980 C.3   412  LEU412      0.0270
     58  CG       -24.0820   18.1160  -24.1470 C.3   412  LEU412      0.0019
     59  CD1      -22.5700   17.8400  -24.1610 C.3   412  LEU412      0.0001
     60  CD2      -24.9860   16.8760  -24.3130 C.3   412  LEU412      0.0001
     61  N        -24.0620   17.7440  -33.0340 N.3   496  THR496     -0.1203
     62  CA       -24.6130   16.9960  -31.9180 C.3   496  THR496      0.1994
     63  C        -25.3280   17.9710  -30.9940 C.2   496  THR496      0.2618
     64  O        -25.6130   19.0780  -31.3770 O.2   496  THR496     -0.2717
     65  CB       -23.5080   16.1990  -31.1810 C.3   496  THR496      0.1784
     66  OG1      -22.5880   17.0830  -30.5390 O.3   496  THR496     -0.2211
     67  CG2      -22.7450   15.3380  -32.1620 C.3   496  THR496      0.0376
     68  N        -25.6270   17.5350  -29.7830 N.am  497  GLN497     -0.1965
     69  CA       -26.1470   18.4190  -28.7400 C.3   497  GLN497      0.1733
     70  C        -25.0760   19.3250  -28.1730 C.2   497  GLN497      0.2617
     71  O        -25.4060   20.2690  -27.4770 O.2   497  GLN497     -0.2715
     72  CB       -26.7710   17.5930  -27.6020 C.3   497  GLN497      0.0408
     73  CG       -27.9850   16.7290  -28.0350 C.3   497  GLN497      0.0908
     74  CD       -29.1010   17.5840  -28.6580 C.2   497  GLN497      0.2608
     75  OE1      -29.9050   18.1740  -27.9450 O.2   497  GLN497     -0.2717
     76  NE2      -29.1070   17.6960  -29.9900 N.am  497  GLN497     -0.0878
     77  N        -23.8100   19.0910  -28.5080 N.am  498  SER498     -0.1950
     78  CA       -22.7110   19.8460  -27.9520 C.3   498  SER498      0.1924
     79  C        -22.1740   20.9250  -28.8850 C.2   498  SER498      0.2314
     80  O        -22.1360   20.7240  -30.1020 O.2   498  SER498     -0.2863
     81  CB       -21.5920   18.8460  -27.6610 C.3   498  SER498      0.2116
     82  OG       -20.4410   19.4880  -27.1610 O.3   498  SER498     -0.2180
     83  N        -17.9330   19.4720  -29.9620 N.3   501  GLU501     -0.1245
     84  CA       -17.5180   18.3620  -30.8130 C.3   501  GLU501      0.1567
     85  C        -18.1990   18.3900  -32.1780 C.2   501  GLU501      0.2260
     86  O        -19.2910   18.9490  -32.3570 O.2   501  GLU501     -0.2867
     87  CB       -17.7850   17.0080  -30.1160 C.3   501  GLU501      0.0388
     88  CG       -19.2520   16.6590  -30.0440 C.3   501  GLU501      0.1160
     89  CD       -19.5500   15.3430  -29.3410 C.2   501  GLU501      0.3649
     90  OE1      -20.7510   15.0540  -29.1610 O.co2 501  GLU501     -0.2457
     91  OE2      -18.6210   14.6010  -28.9570 O.co2 501  GLU501     -0.2457
@<TRIPOS>BOND
     1    61    62    1
     2    86    85    2
     3    85    84    1
     4    67    65    1
     5    62    65    1
     6    62    63    1
     7    64    63    2
     8    65    66    1
     9    63    68   am
    10    84    87    1
    11    84    83    1
    12    87    88    1
    13    80    79    2
    14    88    89    1
    15    76    74   am
    16     4     3    2
    17    68    69    1
    18     3     2    1
    19    89    90   ar
    20    89    91   ar
    21    79    78    1
    22    69    70    1
    23    69    72    1
    24    74    73    1
    25    74    75    2
    26     5     2    1
    27     5     6    1
    28    77    70   am
    29    77    78    1
    30    21    20    1
    31    21    22    2
    32     2     1    1
    33    24    22    1
    34    70    71    2
    35    73    72    1
    36    20    19    1
    37    78    81    1
    38    22    23    1
    39    81    82    1
    40    19    18    1
    41    18    15    1
    42    28    27    2
    43    27    26    1
    44    15    16    1
    45    15    14    1
    46    16    17    2
    47    16    25   am
    48    25    26    1
    49    26    29    1
    50    60    58    1
    51    13     7    1
    52    13    12    1
    53    59    58    1
    54    58    57    1
    55    50    51    1
    56    50    47    1
    57     7     8    1
    58    53    54    1
    59    12    11    1
    60    10     9    2
    61    29    30    1
    62    51    52    1
    63    31    30    2
    64    57    54    1
    65    30    32   am
    66    47    46    1
    67    47    48    1
    68    54    55    1
    69    52    46    1
    70     9     8    1
    71    36    35    2
    72     8    11    1
    73    49    48    2
    74    46    40   am
    75    37    34    1
    76    40    41    2
    77    40    39    1
    78    35    34    1
    79    35    38   am
    80    55    56    2
    81    34    33    1
    82    39    38    1
    83    39    42    1
    84    44    43    1
    85    44    45    1
    86    42    43    1
