@<TRIPOS>MOLECULE
tmp/5yh8A02.pdb
 167 162 0 0 0
SMALL
GASTEIGER

@<TRIPOS>ATOM
      1  N         -5.6870   28.6410  -31.3970 N.3    20  LYS20      -0.1245
      2  CA        -4.9910   28.1190  -30.2330 C.3    20  LYS20       0.1561
      3  C         -4.6070   26.6620  -30.4930 C.2    20  LYS20       0.2260
      4  O         -5.2280   25.9850  -31.2940 O.2    20  LYS20      -0.2867
      5  CB        -5.9000   28.2120  -28.9940 C.3    20  LYS20       0.0271
      6  CG        -7.1240   27.3170  -29.1080 C.3    20  LYS20       0.0035
      7  CD        -8.1740   27.5220  -28.0230 C.3    20  LYS20       0.0206
      8  CE        -8.9690   26.2560  -27.7900 C.3    20  LYS20       0.1093
      9  NZ        -9.1070   26.0580  -26.3180 N.3    20  LYS20      -0.1314
     10  N         -8.8940   19.9740  -17.5040 N.3    30  TYR30      -0.1227
     11  CA        -9.7150   20.7630  -18.4020 C.3    30  TYR30       0.1736
     12  C         -9.0020   21.6820  -19.3830 C.2    30  TYR30       0.2596
     13  O         -9.6700   22.3790  -20.1200 O.2    30  TYR30      -0.2718
     14  CB       -10.7370   21.5140  -17.5570 C.3    30  TYR30       0.0548
     15  CG       -11.6420   20.5680  -16.7690 C.ar   30  TYR30      -0.0200
     16  CD1      -12.5920   19.7750  -17.4170 C.ar   30  TYR30      -0.0009
     17  CD2      -11.5130   20.4190  -15.3790 C.ar   30  TYR30      -0.0009
     18  CE1      -13.4210   18.8910  -16.6920 C.ar   30  TYR30       0.0417
     19  CE2      -12.3360   19.5420  -14.6610 C.ar   30  TYR30       0.0417
     20  CZ       -13.2860   18.8010  -15.3100 C.ar   30  TYR30       0.1957
     21  OH       -14.1030   17.9720  -14.5720 O.3    30  TYR30      -0.2866
     22  N         -7.6760   21.6510  -19.4900 N.am   31  GLY31      -0.1942
     23  CA        -6.9930   22.6260  -20.3630 C.3    31  GLY31       0.2014
     24  C         -7.0430   22.2750  -21.8480 C.2    31  GLY31       0.2639
     25  O         -7.0420   23.1700  -22.7360 O.2    31  GLY31      -0.2714
     26  N         -7.0960   20.9820  -22.1500 N.am   32  GLY32      -0.1954
     27  CA        -7.0230   20.5610  -23.5460 C.3    32  GLY32       0.1869
     28  C         -8.2250   20.9030  -24.4120 C.2    32  GLY32       0.2309
     29  O         -9.3240   21.0810  -23.8880 O.2    32  GLY32      -0.2863
     30  N        -11.4560   20.6240  -26.3180 N.3    34  MET34      -0.1245
     31  CA       -12.5410   19.6650  -26.1370 C.3    34  MET34       0.1570
     32  C        -12.8530   18.8500  -27.3940 C.2    34  MET34       0.2261
     33  O        -13.0680   17.6360  -27.3010 O.2    34  MET34      -0.2867
     34  CB       -13.7860   20.3840  -25.6600 C.3    34  MET34       0.0387
     35  CG       -13.6340   20.9570  -24.2520 C.3    34  MET34       0.0595
     36  SD       -15.1210   21.7730  -23.5900 S.3    34  MET34      -0.1393
     37  CE       -16.1130   20.3140  -23.3400 C.3    34  MET34       0.0692
     38  N        -17.7560   20.7060   -9.6640 N.3   106  TRP106     -0.1241
     39  CA       -18.8620   21.2110  -10.4960 C.3   106  TRP106      0.1605
     40  C        -19.8150   20.1050  -10.9560 C.2   106  TRP106      0.2264
     41  O        -20.9550   20.3790  -11.2910 O.2   106  TRP106     -0.2867
     42  CB       -18.3450   21.9750  -11.7210 C.3   106  TRP106      0.0550
     43  CG       -17.6880   21.0780  -12.7240 C.ar  106  TRP106      0.0003
     44  CD1      -16.4200   20.5600  -12.6530 C.ar  106  TRP106      0.0946
     45  CD2      -18.2730   20.5430  -13.8970 C.ar  106  TRP106      0.0152
     46  NE1      -16.1760   19.7780  -13.7300 N.ar  106  TRP106     -0.2442
     47  CE2      -17.3070   19.7270  -14.5040 C.ar  106  TRP106      0.0810
     48  CE3      -19.5220   20.6680  -14.5000 C.ar  106  TRP106      0.0012
     49  CZ2      -17.5400   19.0540  -15.6930 C.ar  106  TRP106      0.0191
     50  CZ3      -19.7580   19.9880  -15.7110 C.ar  106  TRP106      0.0001
     51  CH2      -18.7670   19.2040  -16.2830 C.ar  106  TRP106      0.0015
     52  N        -15.3800   15.3480  -20.5400 N.3   143  ARG143     -0.1245
     53  CA       -14.4420   15.2870  -19.4140 C.3   143  ARG143      0.1563
     54  C        -15.2510   15.2830  -18.1280 C.2   143  ARG143      0.2260
     55  O        -16.2660   15.9680  -18.0710 O.2   143  ARG143     -0.2867
     56  CB       -13.5020   16.5180  -19.3540 C.3   143  ARG143      0.0307
     57  CG       -12.5830   16.7440  -20.5390 C.3   143  ARG143      0.0489
     58  CD       -13.1710   17.6760  -21.5790 C.3   143  ARG143      0.2205
     59  NE       -13.1070   19.0900  -21.2210 N.pl3 143  ARG143     -0.0865
     60  CZ       -12.0570   19.8960  -21.4100 C.cat 143  ARG143      0.5346
     61  NH1      -10.8940   19.4530  -21.9160 N.pl3 143  ARG143      0.1354
     62  NH2      -12.1610   21.1900  -21.0860 N.pl3 143  ARG143      0.1354
     63  N        -13.7110   25.7950  -28.5680 N.3   227  ASP227     -0.1225
     64  CA       -14.3640   25.5520  -27.3060 C.3   227  ASP227      0.1805
     65  C        -14.5460   26.7230  -26.3680 C.2   227  ASP227      0.2597
     66  O        -15.1590   26.5700  -25.2920 O.2   227  ASP227     -0.2718
     67  CB       -13.7400   24.3320  -26.5950 C.3   227  ASP227      0.1424
     68  CG       -12.2330   24.4650  -26.2990 C.2   227  ASP227      0.3668
     69  OD1      -11.6350   25.5550  -26.4290 O.co2 227  ASP227     -0.2456
     70  OD2      -11.6390   23.4330  -25.9120 O.co2 227  ASP227     -0.2456
     71  N        -14.0410   27.8870  -26.7710 N.am  228  ARG228     -0.1979
     72  CA       -14.1360   29.1290  -26.0360 C.3   228  ARG228      0.1597
     73  C        -15.1100   30.0690  -26.7730 C.2   228  ARG228      0.2287
     74  O        -15.2360   31.2290  -26.4100 O.2   228  ARG228     -0.2864
     75  CB       -12.7440   29.7620  -25.9590 C.3   228  ARG228      0.0334
     76  CG       -11.7240   28.8720  -25.2300 C.3   228  ARG228      0.0492
     77  CD       -12.0970   28.7610  -23.7430 C.3   228  ARG228      0.2205
     78  NE       -11.0440   28.0970  -22.9730 N.pl3 228  ARG228     -0.0865
     79  CZ       -11.0840   27.8280  -21.6640 C.cat 228  ARG228      0.5346
     80  NH1      -10.0300   27.2450  -21.0850 N.pl3 228  ARG228      0.1354
     81  NH2      -12.1430   28.1310  -20.9210 N.pl3 228  ARG228      0.1354
     82  N        -10.4160   34.1630  -15.2800 N.3   396  ARG396     -0.1245
     83  CA       -11.7100   33.7560  -14.7910 C.3   396  ARG396      0.1563
     84  C        -11.5650   32.9400  -13.5060 C.2   396  ARG396      0.2260
     85  O        -12.3800   33.0490  -12.5790 O.2   396  ARG396     -0.2867
     86  CB       -12.4410   32.9510  -15.8690 C.3   396  ARG396      0.0307
     87  CG       -13.9450   32.7530  -15.6230 C.3   396  ARG396      0.0489
     88  CD       -14.5370   31.8980  -16.7720 C.3   396  ARG396      0.2205
     89  NE       -14.3620   30.4610  -16.5530 N.pl3 396  ARG396     -0.0865
     90  CZ       -14.8670   29.5030  -17.3260 C.cat 396  ARG396      0.5346
     91  NH1      -15.5370   29.8150  -18.4330 N.pl3 396  ARG396      0.1354
     92  NH2      -14.6960   28.2060  -17.0010 N.pl3 396  ARG396      0.1354
     93  N        -17.6190   36.2340  -21.9610 N.3   406  ASN406     -0.1225
     94  CA       -17.6410   34.7910  -21.8540 C.3   406  ASN406      0.1785
     95  C        -18.9300   34.2470  -22.5070 C.2   406  ASN406      0.2597
     96  O        -19.6570   34.9890  -23.1990 O.2   406  ASN406     -0.2718
     97  CB       -17.5070   34.3750  -20.3710 C.3   406  ASN406      0.1169
     98  CG       -16.5210   33.1990  -20.1590 C.2   406  ASN406      0.2627
     99  OD1      -16.9180   32.1150  -19.7220 O.2   406  ASN406     -0.2716
    100  ND2      -15.2400   33.4340  -20.4210 N.am  406  ASN406     -0.0877
    101  N        -19.2320   32.9690  -22.2610 N.am  407  GLN407     -0.1979
    102  CA       -20.4520   32.3840  -22.7810 C.3   407  GLN407      0.1601
    103  C        -20.7850   31.1890  -21.9610 C.2   407  GLN407      0.2287
    104  O        -19.8650   30.5480  -21.4150 O.2   407  GLN407     -0.2864
    105  CB       -20.3090   32.0010  -24.2780 C.3   407  GLN407      0.0394
    106  CG       -19.2890   30.8970  -24.6200 C.3   407  GLN407      0.0908
    107  CD       -19.2590   30.5880  -26.1110 C.2   407  GLN407      0.2608
    108  OE1      -19.3680   31.4910  -26.9160 O.2   407  GLN407     -0.2717
    109  NE2      -19.1360   29.3210  -26.4780 N.am  407  GLN407     -0.0878
    110  N        -22.4820   27.2290  -21.4330 N.3   409  TRP409     -0.1241
    111  CA       -21.8040   26.0340  -21.8340 C.3   409  TRP409      0.1605
    112  C        -22.5720   25.1830  -22.8290 C.2   409  TRP409      0.2264
    113  O        -22.0530   24.1410  -23.2650 O.2   409  TRP409     -0.2867
    114  CB       -21.4000   25.2530  -20.5910 C.3   409  TRP409      0.0550
    115  CG       -20.4190   25.9770  -19.7170 C.ar  409  TRP409      0.0003
    116  CD1      -19.8030   27.2040  -19.9490 C.ar  409  TRP409      0.0946
    117  CD2      -19.9020   25.5110  -18.4630 C.ar  409  TRP409      0.0152
    118  NE1      -18.9680   27.5090  -18.9220 N.ar  409  TRP409     -0.2442
    119  CE2      -18.9860   26.4790  -18.0010 C.ar  409  TRP409      0.0810
    120  CE3      -20.0850   24.3420  -17.7100 C.ar  409  TRP409      0.0012
    121  CZ2      -18.2890   26.3310  -16.7790 C.ar  409  TRP409      0.0191
    122  CZ3      -19.3890   24.2110  -16.4720 C.ar  409  TRP409      0.0001
    123  CH2      -18.5060   25.1890  -16.0450 C.ar  409  TRP409      0.0015
    124  N        -25.0590   21.2820  -20.8880 N.3   413  TYR413     -0.1241
    125  CA       -24.6650   21.8130  -19.6020 C.3   413  TYR413      0.1605
    126  C        -25.6400   22.8220  -19.0550 C.2   413  TYR413      0.2264
    127  O        -25.7530   22.9520  -17.8120 O.2   413  TYR413     -0.2867
    128  CB       -23.2950   22.4660  -19.7360 C.3   413  TYR413      0.0534
    129  CG       -22.1480   21.5510  -20.1130 C.ar  413  TYR413     -0.0201
    130  CD1      -21.8000   21.3590  -21.4450 C.ar  413  TYR413     -0.0009
    131  CD2      -21.4100   20.8780  -19.1520 C.ar  413  TYR413     -0.0009
    132  CE1      -20.7330   20.5430  -21.7960 C.ar  413  TYR413      0.0417
    133  CE2      -20.3650   20.0380  -19.5060 C.ar  413  TYR413      0.0417
    134  CZ       -20.0240   19.8960  -20.8310 C.ar  413  TYR413      0.1957
    135  OH       -19.0040   19.0870  -21.2260 O.3   413  TYR413     -0.2866
    136  N        -13.0710   26.7130  -11.0880 N.3   426  ASN426     -0.1240
    137  CA       -12.8840   26.6240  -12.5320 C.3   426  ASN426      0.1653
    138  C        -14.1410   27.0220  -13.3800 C.2   426  ASN426      0.2266
    139  O        -14.1630   26.7930  -14.5640 O.2   426  ASN426     -0.2867
    140  CB       -12.2880   25.2370  -12.9300 C.3   426  ASN426      0.1155
    141  CG       -13.0540   24.0510  -12.3500 C.2   426  ASN426      0.2627
    142  OD1      -13.7010   24.1550  -11.3170 O.2   426  ASN426     -0.2716
    143  ND2      -12.9340   22.9060  -12.9860 N.am  426  ASN426     -0.0877
    144  N        -17.4130   30.1760  -12.5030 N.3   428  TYR428     -0.1241
    145  CA       -17.6260   31.6170  -12.3400 C.3   428  TYR428      0.1605
    146  C        -17.6510   32.0370  -10.8670 C.2   428  TYR428      0.2264
    147  O        -18.2230   33.0870  -10.5010 O.2   428  TYR428     -0.2867
    148  CB       -18.9290   32.0260  -13.0360 C.3   428  TYR428      0.0534
    149  CG       -18.9160   31.6630  -14.4870 C.ar  428  TYR428     -0.0201
    150  CD1      -18.3070   32.4700  -15.3860 C.ar  428  TYR428     -0.0009
    151  CD2      -19.4920   30.4630  -14.9480 C.ar  428  TYR428     -0.0009
    152  CE1      -18.2600   32.1530  -16.7320 C.ar  428  TYR428      0.0417
    153  CE2      -19.4550   30.1170  -16.3010 C.ar  428  TYR428      0.0417
    154  CZ       -18.8540   30.9650  -17.1880 C.ar  428  TYR428      0.1957
    155  OH       -18.7120   30.6310  -18.5400 O.3   428  TYR428     -0.2866
    156  N        -18.9720   21.5480  -28.5360 N.3   500  TYR500     -0.1241
    157  CA       -17.6150   21.1750  -28.2200 C.3   500  TYR500      0.1605
    158  C        -17.1490   19.9230  -28.9800 C.2   500  TYR500      0.2264
    159  O        -16.0480   19.4050  -28.7070 O.2   500  TYR500     -0.2867
    160  CB       -17.5130   20.9030  -26.7090 C.3   500  TYR500      0.0534
    161  CG       -17.8720   22.0750  -25.8560 C.ar  500  TYR500     -0.0201
    162  CD1      -17.3030   23.3300  -26.0880 C.ar  500  TYR500     -0.0009
    163  CD2      -18.7770   21.9460  -24.7640 C.ar  500  TYR500     -0.0009
    164  CE1      -17.6190   24.4210  -25.2780 C.ar  500  TYR500      0.0417
    165  CE2      -19.0620   23.0460  -23.9350 C.ar  500  TYR500      0.0417
    166  CZ       -18.4680   24.2830  -24.1960 C.ar  500  TYR500      0.1957
    167  OH       -18.7680   25.4220  -23.4510 O.3   500  TYR500     -0.2866
@<TRIPOS>BOND
     1     1     2    1
     2     4     3    2
     3     3     2    1
     4     2     5    1
     5     6     5    1
     6     6     7    1
     7   158   159    2
     8   158   157    1
     9    63    64    1
    10   156   157    1
    11   157   160    1
    12     7     8    1
    13     8     9    1
    14    32    33    2
    15    32    31    1
    16    64    67    1
    17    64    65    1
    18   108   107    2
    19    73    74    2
    20    73    72    1
    21    71    65   am
    22    71    72    1
    23   160   161    1
    24    67    68    1
    25   109   107   am
    26    69    68   ar
    27    65    66    2
    28    30    31    1
    29    68    70   ar
    30    31    34    1
    31   107   106    1
    32   162   161   ar
    33   162   164   ar
    34    72    75    1
    35    75    76    1
    36   161   163   ar
    37    34    35    1
    38   164   166   ar
    39    76    77    1
    40   163   165   ar
    41   106   105    1
    42    28    29    2
    43    28    27    1
    44   105   102    1
    45    35    36    1
    46   166   165   ar
    47   166   167    1
    48    77    78    1
    49    36    37    1
    50    27    26    1
    51   113   112    2
    52    96    95    2
    53    78    79    2
    54   112   111    1
    55   102   101    1
    56   102   103    1
    57    25    24    2
    58    95   101   am
    59    95    94    1
    60    26    24   am
    61    93    94    1
    62   103   104    2
    63    61    60    1
    64    94    97    1
    65    24    23    1
    66   111   110    1
    67   111   114    1
    68   132   130   ar
    69   132   134   ar
    70    79    80    1
    71    79    81    1
    72    58    59    1
    73    58    57    1
    74   130   129   ar
    75    60    59    2
    76    60    62    1
    77   135   134    1
    78   124   125    1
    79   134   133   ar
    80   114   115    1
    81    52    53    1
    82    57    56    1
    83   100    98   am
    84    97    98    1
    85    23    22    1
    86    98    99    2
    87    13    12    2
    88   129   128    1
    89   129   131   ar
    90   116   115   ar
    91   116   118   ar
    92   128   125    1
    93   115   117   ar
    94   125   126    1
    95   133   131   ar
    96    22    12   am
    97    53    56    1
    98    53    54    1
    99    12    11    1
   100   126   127    2
   101   118   119   ar
   102   155   154    1
   103   117   119   ar
   104   117   120   ar
   105    91    90    1
   106    11    14    1
   107    11    10    1
   108    54    55    2
   109   119   121   ar
   110   120   122   ar
   111    14    15    1
   112    16    15   ar
   113    16    18   ar
   114    90    92    1
   115    90    89    2
   116   154   152   ar
   117   154   153   ar
   118   121   123   ar
   119    88    89    1
   120    88    87    1
   121    15    17   ar
   122   152   150   ar
   123    18    20   ar
   124   122   123   ar
   125   153   151   ar
   126    51    50   ar
   127    51    49   ar
   128    86    87    1
   129    86    83    1
   130    50    48   ar
   131    49    47   ar
   132   150   149   ar
   133    17    19   ar
   134    20    19   ar
   135    20    21    1
   136    82    83    1
   137   151   149   ar
   138    83    84    1
   139   139   138    2
   140    47    45   ar
   141    47    46   ar
   142    48    45   ar
   143   149   148    1
   144    45    43   ar
   145    46    44   ar
   146    84    85    2
   147   138   137    1
   148   148   145    1
   149   143   141   am
   150   140   137    1
   151   140   141    1
   152    43    44   ar
   153    43    42    1
   154   137   136    1
   155   144   145    1
   156   141   142    2
   157   145   146    1
   158    42    39    1
   159    41    40    2
   160    40    39    1
   161   146   147    2
   162    39    38    1
