@<TRIPOS>MOLECULE
tmp/5yh8A01.pdb
 106 97 0 0 0
SMALL
GASTEIGER

@<TRIPOS>ATOM
      1  N        -14.7010   32.0210  -33.5540 N.3   231  ASP231     -0.1239
      2  CA       -14.7680   31.7820  -34.9760 C.3   231  ASP231      0.1674
      3  C        -13.6450   32.5990  -35.5860 C.2   231  ASP231      0.2266
      4  O        -13.5920   33.8190  -35.4270 O.2   231  ASP231     -0.2867
      5  CB       -16.1030   32.2890  -35.5370 C.3   231  ASP231      0.1410
      6  CG       -17.2750   31.4900  -35.0520 C.2   231  ASP231      0.3668
      7  OD1      -17.3000   30.2710  -35.2950 O.co2 231  ASP231     -0.2456
      8  OD2      -18.1960   32.0560  -34.4550 O.co2 231  ASP231     -0.2456
      9  N        -13.1140   33.2260  -38.6770 N.3   233  LEU233     -0.1231
     10  CA       -13.5090   33.9970  -39.8320 C.3   233  LEU233      0.1693
     11  C        -14.7600   34.8080  -39.6030 C.2   233  LEU233      0.2592
     12  O        -15.7690   34.2790  -39.2860 O.2   233  LEU233     -0.2718
     13  CB       -13.7600   33.0840  -41.0240 C.3   233  LEU233      0.0284
     14  CG       -12.7500   32.0190  -41.3630 C.3   233  LEU233      0.0019
     15  CD1      -13.3370   30.7890  -41.9760 C.3   233  LEU233      0.0001
     16  CD2      -11.5250   32.5040  -42.0830 C.3   233  LEU233      0.0001
     17  N        -14.7030   36.1020  -39.8650 N.am  234  ASP234     -0.1960
     18  CA       -15.8760   36.9440  -39.7160 C.3   234  ASP234      0.1840
     19  C        -16.8920   36.7310  -40.8310 C.2   234  ASP234      0.2621
     20  O        -16.6640   35.9550  -41.7020 O.2   234  ASP234     -0.2715
     21  CB       -15.5300   38.4100  -39.5430 C.3   234  ASP234      0.1450
     22  CG       -14.8900   39.0290  -40.7640 C.2   234  ASP234      0.3671
     23  OD1      -14.4160   40.1460  -40.6260 O.co2 234  ASP234     -0.2456
     24  OD2      -14.8270   38.4340  -41.8310 O.co2 234  ASP234     -0.2456
     25  N        -17.9840   37.4670  -40.8100 N.am  235  LYS235     -0.1977
     26  CA       -19.0320   37.2740  -41.7590 C.3   235  LYS235      0.1596
     27  C        -18.6160   37.6250  -43.1930 C.2   235  LYS235      0.2287
     28  O        -18.9700   36.9160  -44.1120 O.2   235  LYS235     -0.2864
     29  CB       -20.2570   38.0680  -41.3570 C.3   235  LYS235      0.0298
     30  CG       -21.4650   37.7730  -42.2210 C.3   235  LYS235      0.0038
     31  CD       -22.6260   38.6510  -41.8150 C.3   235  LYS235      0.0206
     32  CE       -23.8900   38.2860  -42.5860 C.3   235  LYS235      0.1093
     33  NZ       -24.9130   39.3760  -42.4650 N.3   235  LYS235     -0.1314
     34  N        -16.5460   34.6850  -44.4280 N.3   238  LEU238     -0.1245
     35  CA       -17.3580   33.5300  -44.7850 C.3   238  LEU238      0.1561
     36  C        -17.9960   33.7320  -46.2070 C.2   238  LEU238      0.2260
     37  O        -18.0220   32.7880  -47.0200 O.2   238  LEU238     -0.2867
     38  CB       -18.4110   33.2530  -43.7340 C.3   238  LEU238      0.0270
     39  CG       -17.9490   32.8230  -42.3110 C.3   238  LEU238      0.0019
     40  CD1      -19.0870   32.7250  -41.3010 C.3   238  LEU238      0.0001
     41  CD2      -17.2960   31.4550  -42.4120 C.3   238  LEU238      0.0001
     42  N        -24.4350   26.2440  -39.9560 N.3   251  ARG251     -0.1245
     43  CA       -24.6190   26.8350  -38.6750 C.3   251  ARG251      0.1563
     44  C        -25.6550   26.0490  -37.9130 C.2   251  ARG251      0.2260
     45  O        -26.7180   25.7730  -38.4350 O.2   251  ARG251     -0.2867
     46  CB       -25.0460   28.2780  -38.8550 C.3   251  ARG251      0.0307
     47  CG       -25.1110   29.0510  -37.5610 C.3   251  ARG251      0.0489
     48  CD       -25.2240   30.5300  -37.8440 C.3   251  ARG251      0.2205
     49  NE       -23.9120   31.0770  -38.2020 N.pl3 251  ARG251     -0.0865
     50  CZ       -23.7070   32.3280  -38.6060 C.cat 251  ARG251      0.5346
     51  NH1      -24.7380   33.1740  -38.7290 N.pl3 251  ARG251      0.1354
     52  NH2      -22.4680   32.7400  -38.9100 N.pl3 251  ARG251      0.1354
     53  N        -24.0660   34.3470  -24.8210 N.3   258  LYS258     -0.1245
     54  CA       -22.8100   35.0400  -24.7720 C.3   258  LYS258      0.1561
     55  C        -23.0860   36.2330  -23.8910 C.2   258  LYS258      0.2260
     56  O        -24.1200   36.8570  -24.0390 O.2   258  LYS258     -0.2867
     57  CB       -22.4520   35.5090  -26.1470 C.3   258  LYS258      0.0271
     58  CG       -21.9120   34.3840  -27.0220 C.3   258  LYS258      0.0035
     59  CD       -21.6650   34.8640  -28.4490 C.3   258  LYS258      0.0206
     60  CE       -20.7730   33.9630  -29.2480 C.3   258  LYS258      0.1093
     61  NZ       -20.6000   34.5360  -30.6290 N.3   258  LYS258     -0.1314
     62  N        -22.9790   42.2350  -34.7930 N.3   294  LEU294     -0.1245
     63  CA       -22.9850   40.8390  -35.1790 C.3   294  LEU294      0.1561
     64  C        -23.8190   40.6030  -36.4610 C.2   294  LEU294      0.2260
     65  O        -24.2880   39.4650  -36.7240 O.2   294  LEU294     -0.2867
     66  CB       -23.5530   39.9900  -34.0490 C.3   294  LEU294      0.0270
     67  CG       -23.0430   40.2010  -32.6180 C.3   294  LEU294      0.0019
     68  CD1      -23.7030   39.2190  -31.6770 C.3   294  LEU294      0.0001
     69  CD2      -21.5260   40.0580  -32.5990 C.3   294  LEU294      0.0001
     70  N        -26.6150   37.9690  -37.1790 N.3   297  GLN297     -0.1231
     71  CA       -26.3300   36.5270  -37.1160 C.3   297  GLN297      0.1698
     72  C        -26.7260   35.8660  -35.7890 C.2   297  GLN297      0.2592
     73  O        -26.8080   34.6630  -35.7450 O.2   297  GLN297     -0.2718
     74  CB       -24.8380   36.2770  -37.2850 C.3   297  GLN297      0.0381
     75  CG       -24.2010   36.7330  -38.5940 C.3   297  GLN297      0.0905
     76  CD       -22.6720   36.5450  -38.5780 C.2   297  GLN297      0.2608
     77  OE1      -22.1330   35.5870  -39.1720 O.2   297  GLN297     -0.2717
     78  NE2      -21.9590   37.4540  -37.8770 N.am  297  GLN297     -0.0878
     79  N        -26.9210   36.6440  -34.7150 N.am  298  GLU298     -0.1979
     80  CA       -27.2830   36.1220  -33.4230 C.3   298  GLU298      0.1602
     81  C        -28.4170   36.9400  -32.8830 C.2   298  GLU298      0.2287
     82  O        -28.4270   38.1560  -33.0370 O.2   298  GLU298     -0.2864
     83  CB       -26.0820   36.2570  -32.4740 C.3   298  GLU298      0.0415
     84  CG       -24.8900   35.4350  -32.9120 C.3   298  GLU298      0.1163
     85  CD       -23.7530   35.3270  -31.8810 C.2   298  GLU298      0.3649
     86  OE1      -22.7650   34.6890  -32.2220 O.co2 298  GLU298     -0.2457
     87  OE2      -23.8110   35.8210  -30.7410 O.co2 298  GLU298     -0.2457
     88  N        -13.0030   38.3620  -33.6820 N.3   362  SER362     -0.1202
     89  CA       -13.2850   39.6720  -34.2200 C.3   362  SER362      0.2020
     90  C        -14.5840   40.2520  -33.6630 C.2   362  SER362      0.2619
     91  O        -14.7070   41.4670  -33.4920 O.2   362  SER362     -0.2717
     92  CB       -13.3400   39.6180  -35.7520 C.3   362  SER362      0.2103
     93  OG       -14.3750   38.7650  -36.1370 O.3   362  SER362     -0.2182
     94  N        -15.5520   39.4050  -33.3580 N.am  363  SER363     -0.1951
     95  CA       -16.8080   39.8780  -32.8230 C.3   363  SER363      0.1924
     96  C        -16.6560   40.2900  -31.3820 C.2   363  SER363      0.2314
     97  O        -17.2260   41.2940  -30.9650 O.2   363  SER363     -0.2863
     98  CB       -17.9210   38.8250  -32.9660 C.3   363  SER363      0.2116
     99  OG       -17.5610   37.5860  -32.4070 O.3   363  SER363     -0.2180
    100  N        -20.5950   27.5320  -35.9150 N.3   483  THR483     -0.1218
    101  CA       -20.4470   27.6380  -37.3710 C.3   483  THR483      0.1862
    102  C        -19.2620   26.8460  -37.9320 C.2   483  THR483      0.2287
    103  O        -18.1390   26.8900  -37.3970 O.2   483  THR483     -0.2866
    104  CB       -20.3280   29.1010  -37.8780 C.3   483  THR483      0.1770
    105  OG1      -18.9840   29.5520  -37.7530 O.3   483  THR483     -0.2211
    106  CG2      -21.1670   30.0170  -37.0950 C.3   483  THR483      0.0375
@<TRIPOS>BOND
     1    37    36    2
     2    36    35    1
     3    35    34    1
     4    35    38    1
     5    28    27    2
     6    38    39    1
     7    27    26    1
     8    32    33    1
     9    32    31    1
    10    41    39    1
    11    39    40    1
    12    30    31    1
    13    30    29    1
    14    16    14    1
    15    15    14    1
    16    24    22   ar
    17    26    29    1
    18    26    25    1
    19    20    19    2
    20    14    13    1
    21    13    10    1
    22    19    25   am
    23    19    18    1
    24    22    23   ar
    25    22    21    1
    26    42    43    1
    27    17    18    1
    28    17    11   am
    29    10    11    1
    30    10     9    1
    31    18    21    1
    32    11    12    2
    33    77    76    2
    34    52    50    1
    35    46    43    1
    36    46    47    1
    37    51    50    1
    38    43    44    1
    39    50    49    2
    40    75    76    1
    41    75    74    1
    42    76    78   am
    43    45    44    2
    44    49    48    1
    45   102   103    2
    46   102   101    1
    47   104   105    1
    48   104   101    1
    49   104   106    1
    50    48    47    1
    51   101   100    1
    52    74    71    1
    53    70    71    1
    54    71    72    1
    55    65    64    2
    56    64    63    1
    57    93    92    1
    58    72    73    2
    59    72    79   am
    60    92    89    1
    61     3     4    2
    62     3     2    1
    63     5     6    1
    64     5     2    1
    65     7     6   ar
    66    63    62    1
    67    63    66    1
    68     6     8   ar
    69     2     1    1
    70    79    80    1
    71    89    88    1
    72    89    90    1
    73    66    67    1
    74    90    91    2
    75    90    94   am
    76    80    81    1
    77    80    83    1
    78    94    95    1
    79    82    81    2
    80    98    95    1
    81    98    99    1
    82    84    83    1
    83    84    85    1
    84    95    96    1
    85    67    69    1
    86    67    68    1
    87    86    85   ar
    88    85    87   ar
    89    96    97    2
    90    61    60    1
    91    60    59    1
    92    59    58    1
    93    58    57    1
    94    57    54    1
    95    53    54    1
    96    54    55    1
    97    56    55    2
