@<TRIPOS>MOLECULE
tmp/5yhjB01.pdb
 168 164 0 0 0
SMALL
GASTEIGER

@<TRIPOS>ATOM
      1  N         26.0380   13.6150   -8.9250 N.3    16  PHE16      -0.1241
      2  CA        25.9850   14.6790   -9.9160 C.3    16  PHE16       0.1605
      3  C         25.9660   14.1010  -11.3260 C.2    16  PHE16       0.2264
      4  O         25.2250   14.5830  -12.1890 O.2    16  PHE16      -0.2867
      5  CB        27.1630   15.6390   -9.7480 C.3    16  PHE16       0.0534
      6  CG        27.0950   16.8250  -10.6790 C.ar   16  PHE16      -0.0203
      7  CD1       26.4130   17.9760  -10.3050 C.ar   16  PHE16      -0.0042
      8  CD2       27.6740   16.7740  -11.9480 C.ar   16  PHE16      -0.0042
      9  CE1       26.3180   19.0560  -11.1670 C.ar   16  PHE16      -0.0003
     10  CE2       27.5970   17.8520  -12.8150 C.ar   16  PHE16      -0.0003
     11  CZ        26.9180   18.9950  -12.4350 C.ar   16  PHE16      -0.0000
     12  N         21.4360   17.6540  -15.0810 N.3    21  TYR21      -0.1241
     13  CA        20.7940   18.9570  -15.0010 C.3    21  TYR21       0.1605
     14  C         19.8050   19.0440  -13.8600 C.2    21  TYR21       0.2264
     15  O         19.3820   20.1530  -13.5190 O.2    21  TYR21      -0.2867
     16  CB        20.0400   19.2870  -16.2990 C.3    21  TYR21       0.0534
     17  CG        20.9080   19.4760  -17.5190 C.ar   21  TYR21      -0.0201
     18  CD1       21.6220   20.6400  -17.6990 C.ar   21  TYR21      -0.0009
     19  CD2       20.9750   18.5020  -18.5120 C.ar   21  TYR21      -0.0009
     20  CE1       22.4010   20.8350  -18.8300 C.ar   21  TYR21       0.0417
     21  CE2       21.7740   18.6800  -19.6380 C.ar   21  TYR21       0.0417
     22  CZ        22.4770   19.8500  -19.7850 C.ar   21  TYR21       0.1957
     23  OH        23.2610   20.0540  -20.8950 O.3    21  TYR21      -0.2866
     24  N         37.3900   23.8310  -12.5730 N.3    70  PRO70      -0.2116
     25  CA        38.2450   22.6700  -12.2980 C.3    70  PRO70       0.1372
     26  C         39.2010   22.4010  -13.4470 C.2    70  PRO70       0.2244
     27  O         38.8740   22.6260  -14.6150 O.2    70  PRO70      -0.2868
     28  CB        37.2440   21.5210  -12.1320 C.3    70  PRO70       0.0268
     29  CG        35.9020   22.1970  -11.9460 C.3    70  PRO70       0.0207
     30  CD        35.9790   23.4490  -12.7380 C.3    70  PRO70       0.0892
     31  N         38.2030   20.5950  -16.8430 N.3    73  LEU73      -0.1245
     32  CA        37.5990   21.4280  -17.8750 C.3    73  LEU73       0.1561
     33  C         38.6010   22.4030  -18.4760 C.2    73  LEU73       0.2260
     34  O         38.5360   22.6830  -19.6740 O.2    73  LEU73      -0.2867
     35  CB        36.4020   22.1740  -17.2980 C.3    73  LEU73       0.0270
     36  CG        35.2990   21.2220  -16.8590 C.3    73  LEU73       0.0019
     37  CD1       34.1320   22.0170  -16.3070 C.3    73  LEU73       0.0001
     38  CD2       34.8800   20.3500  -18.0360 C.3    73  LEU73       0.0001
     39  N         37.6800   21.7010  -22.1770 N.3    77  LEU77      -0.1231
     40  CA        36.6210   22.5580  -22.6900 C.3    77  LEU77       0.1693
     41  C         36.9590   24.0460  -22.7420 C.2    77  LEU77       0.2592
     42  O         36.5490   24.7100  -23.6950 O.2    77  LEU77      -0.2718
     43  CB        35.3490   22.3620  -21.8520 C.3    77  LEU77       0.0284
     44  CG        34.1250   23.2360  -22.1160 C.3    77  LEU77       0.0019
     45  CD1       33.5400   22.9920  -23.5030 C.3    77  LEU77       0.0001
     46  CD2       33.0810   22.9950  -21.0310 C.3    77  LEU77       0.0001
     47  N         37.6930   24.5960  -21.7690 N.am   78  PHE78      -0.1976
     48  CA        37.8310   26.0480  -21.6640 C.3    78  PHE78       0.1639
     49  C         39.1490   26.6030  -22.1820 C.2    78  PHE78       0.2290
     50  O         39.1900   27.7590  -22.6130 O.2    78  PHE78      -0.2864
     51  CB        37.6790   26.5060  -20.2090 C.3    78  PHE78       0.0560
     52  CG        36.2630   26.4530  -19.6960 C.ar   78  PHE78      -0.0200
     53  CD1       35.3060   27.3210  -20.1930 C.ar   78  PHE78      -0.0042
     54  CD2       35.9020   25.5480  -18.7080 C.ar   78  PHE78      -0.0042
     55  CE1       34.0110   27.2850  -19.7280 C.ar   78  PHE78      -0.0003
     56  CE2       34.6050   25.5010  -18.2390 C.ar   78  PHE78      -0.0003
     57  CZ        33.6550   26.3740  -18.7510 C.ar   78  PHE78      -0.0000
     58  N         38.0540   33.2840  -19.2200 N.3    84  GLN84      -0.1245
     59  CA        37.3130   32.6470  -18.1360 C.3    84  GLN84       0.1566
     60  C         38.0420   32.7570  -16.8060 C.2    84  GLN84       0.2260
     61  O         37.4020   32.8240  -15.7510 O.2    84  GLN84      -0.2867
     62  CB        37.0720   31.1650  -18.4460 C.3    84  GLN84       0.0367
     63  CG        36.0860   30.8680  -19.5220 C.3    84  GLN84       0.0905
     64  CD        36.7530   30.6750  -20.8940 C.2    84  GLN84       0.2608
     65  OE1       37.9300   31.0020  -21.0830 O.2    84  GLN84      -0.2717
     66  NE2       36.0060   30.1150  -21.8360 N.am   84  GLN84      -0.0878
     67  N         33.4170   20.7150  -26.9970 N.3   166  PHE166     -0.1241
     68  CA        32.2210   21.1210  -26.2640 C.3   166  PHE166      0.1605
     69  C         31.3770   19.9420  -25.7930 C.2   166  PHE166      0.2264
     70  O         30.3810   20.1550  -25.0980 O.2   166  PHE166     -0.2867
     71  CB        31.3730   22.1310  -27.0680 C.3   166  PHE166      0.0534
     72  CG        30.6500   21.5620  -28.2690 C.ar  166  PHE166     -0.0203
     73  CD1       29.5590   20.7070  -28.1200 C.ar  166  PHE166     -0.0042
     74  CD2       31.0240   21.9520  -29.5560 C.ar  166  PHE166     -0.0042
     75  CE1       28.8900   20.2160  -29.2360 C.ar  166  PHE166     -0.0003
     76  CE2       30.3530   21.4800  -30.6810 C.ar  166  PHE166     -0.0003
     77  CZ        29.2810   20.6090  -30.5200 C.ar  166  PHE166     -0.0000
     78  N         32.3370   17.6570  -21.1120 N.3   169  GLY169     -0.1225
     79  CA        32.1070   18.0080  -19.7150 C.3   169  GLY169      0.1811
     80  C         32.1340   16.8080  -18.7870 C.2   169  GLY169      0.2280
     81  O         32.6460   16.8850  -17.6700 O.2   169  GLY169     -0.2866
     82  N         34.9850   27.2910  -30.9250 N.3   238  ARG238     -0.1231
     83  CA        34.3570   26.1430  -30.2670 C.3   238  ARG238      0.1679
     84  C         32.8870   26.3620  -29.9160 C.2   238  ARG238      0.2434
     85  O         32.0410   25.5340  -30.3140 O.2   238  ARG238     -0.2733
     86  CB        35.1780   25.7660  -29.0190 C.3   238  ARG238      0.0321
     87  CG        34.6670   24.5480  -28.2660 C.3   238  ARG238      0.0489
     88  CD        35.2840   24.4410  -26.8070 C.3   238  ARG238      0.2205
     89  NE        34.9620   25.5980  -25.9700 N.pl3 238  ARG238     -0.0865
     90  CZ        35.7640   26.6470  -25.7770 C.cat 238  ARG238      0.5346
     91  NH1       36.9710   26.6920  -26.3360 N.pl3 238  ARG238      0.1354
     92  NH2       35.3580   27.6570  -25.0130 N.pl3 238  ARG238      0.1354
     93  N         32.5080   27.4220  -29.1830 N.am  239  PRO239     -0.2729
     94  CA        31.0930   27.5590  -28.8190 C.3   239  PRO239      0.1401
     95  C         30.2180   27.9770  -29.9970 C.2   239  PRO239      0.2269
     96  O         29.0100   27.6930  -29.9840 O.2   239  PRO239     -0.2865
     97  CB        31.0980   28.6130  -27.6980 C.3   239  PRO239      0.0296
     98  CG        32.4410   29.2910  -27.7460 C.3   239  PRO239      0.0237
     99  CD        33.2960   28.6110  -28.7920 C.3   239  PRO239      0.0939
    100  N         29.2390   24.8750  -31.1220 N.3   242  ALA242     -0.1245
    101  CA        28.3280   24.3380  -30.1100 C.3   242  ALA242      0.1562
    102  C         26.8950   24.8390  -30.2750 C.2   242  ALA242      0.2260
    103  O         25.9670   24.1490  -29.8460 O.2   242  ALA242     -0.2867
    104  CB        28.8390   24.6830  -28.7020 C.3   242  ALA242      0.0290
    105  N         21.1830   23.0180  -21.5920 N.3   284  PHE284     -0.1227
    106  CA        22.4820   23.0360  -22.2590 C.3   284  PHE284      0.1736
    107  C         23.6270   23.2330  -21.2560 C.2   284  PHE284      0.2595
    108  O         24.3120   22.2700  -20.9040 O.2   284  PHE284     -0.2718
    109  CB        22.5010   24.1220  -23.3400 C.3   284  PHE284      0.0547
    110  CG        23.6060   23.9640  -24.3530 C.ar  284  PHE284     -0.0202
    111  CD1       24.6560   23.0810  -24.1380 C.ar  284  PHE284     -0.0042
    112  CD2       23.5840   24.6970  -25.5410 C.ar  284  PHE284     -0.0042
    113  CE1       25.6740   22.9360  -25.0940 C.ar  284  PHE284     -0.0003
    114  CE2       24.6000   24.5760  -26.4880 C.ar  284  PHE284     -0.0003
    115  CZ        25.6480   23.6910  -26.2640 C.ar  284  PHE284     -0.0000
    116  N         23.8840   24.4570  -20.8090 N.am  285  PHE285     -0.1963
    117  CA        24.9530   24.6740  -19.8460 C.3   285  PHE285      0.1756
    118  C         24.3600   24.5370  -18.4430 C.2   285  PHE285      0.2461
    119  O         23.4880   25.3330  -18.0760 O.2   285  PHE285     -0.2730
    120  CB        25.5950   26.0410  -20.0450 C.3   285  PHE285      0.0574
    121  CG        27.0450   26.0940  -19.6140 C.ar  285  PHE285     -0.0200
    122  CD1       27.3980   25.8630  -18.2940 C.ar  285  PHE285     -0.0042
    123  CD2       28.0560   26.3770  -20.5260 C.ar  285  PHE285     -0.0042
    124  CE1       28.7290   25.8960  -17.9000 C.ar  285  PHE285     -0.0003
    125  CE2       29.3890   26.4150  -20.1280 C.ar  285  PHE285     -0.0003
    126  CZ        29.7200   26.1760  -18.8070 C.ar  285  PHE285     -0.0000
    127  N         24.7640   23.5450  -17.6460 N.am  286  PRO286     -0.2716
    128  CA        24.0570   23.2800  -16.3760 C.3   286  PRO286      0.1536
    129  C         24.3580   24.2450  -15.2340 C.2   286  PRO286      0.2598
    130  O         23.4210   24.7480  -14.6110 O.2   286  PRO286     -0.2715
    131  CB        24.5240   21.8680  -16.0150 C.3   286  PRO286      0.0310
    132  CG        25.8910   21.7590  -16.6530 C.3   286  PRO286      0.0237
    133  CD        25.7870   22.5250  -17.9380 C.3   286  PRO286      0.0939
    134  N         25.6350   24.4940  -14.9240 N.am  287  VAL287     -0.1978
    135  CA        26.0270   25.3750  -13.8260 C.3   287  VAL287      0.1596
    136  C         27.1800   26.2870  -14.2450 C.2   287  VAL287      0.2287
    137  O         28.0020   25.9320  -15.0930 O.2   287  VAL287     -0.2864
    138  CB        26.4610   24.5840  -12.5600 C.3   287  VAL287      0.0276
    139  CG1       25.4120   23.5630  -12.1590 C.3   287  VAL287      0.0022
    140  CG2       27.8000   23.9020  -12.7840 C.3   287  VAL287      0.0022
    141  N         30.4600   28.4000  -12.2380 N.3   289  ALA289     -0.1245
    142  CA        31.2820   28.1500  -11.0660 C.3   289  ALA289      0.1562
    143  C         32.0260   29.4040  -10.6260 C.2   289  ALA289      0.2260
    144  O         32.2510   30.3330  -11.4090 O.2   289  ALA289     -0.2867
    145  CB        32.2750   27.0150  -11.3260 C.3   289  ALA289      0.0290
    146  N         28.5680   26.8670   -6.9560 N.3   310  LEU310     -0.1245
    147  CA        27.9120   26.5630   -8.2220 C.3   310  LEU310      0.1561
    148  C         26.5900   27.3050   -8.3000 C.2   310  LEU310      0.2260
    149  O         25.7900   27.2510   -7.3600 O.2   310  LEU310     -0.2867
    150  CB        27.6760   25.0720   -8.3620 C.3   310  LEU310      0.0270
    151  CG        28.9700   24.2770   -8.3030 C.3   310  LEU310      0.0019
    152  CD1       28.6660   22.7880   -8.3890 C.3   310  LEU310      0.0001
    153  CD2       29.8720   24.7220   -9.4490 C.3   310  LEU310      0.0001
    154  N         24.8260   15.1470  -20.1120 N.3   395  MET395     -0.1231
    155  CA        25.2690   16.4890  -20.3870 C.3   395  MET395      0.1687
    156  C         26.3560   16.4290  -21.4510 C.2   395  MET395      0.2434
    157  O         27.2940   15.6320  -21.3280 O.2   395  MET395     -0.2733
    158  CB        25.7810   17.1610  -19.1130 C.3   395  MET395      0.0400
    159  CG        24.6880   17.3130  -18.0650 C.3   395  MET395      0.0596
    160  SD        25.2270   18.2200  -16.6140 S.3   395  MET395     -0.1393
    161  CE        26.5940   17.1920  -16.0920 C.3   395  MET395      0.0692
    162  N         26.2320   17.2000  -22.5400 N.am  396  PRO396     -0.2729
    163  CA        25.0240   17.9950  -22.8110 C.3   396  PRO396      0.1401
    164  C         23.8650   17.1590  -23.3550 C.2   396  PRO396      0.2269
    165  O         24.0170   16.0220  -23.7590 O.2   396  PRO396     -0.2865
    166  CB        25.5110   19.0060  -23.8470 C.3   396  PRO396      0.0296
    167  CG        26.5890   18.2680  -24.5790 C.3   396  PRO396      0.0237
    168  CD        27.2850   17.4390  -23.5400 C.3   396  PRO396      0.0939
@<TRIPOS>BOND
     1   100   101    1
     2    82    83    1
     3    76    77   ar
     4    76    74   ar
     5    77    75   ar
     6    85    84    2
     7   102   101    1
     8   102   103    2
     9    83    84    1
    10    83    86    1
    11   101   104    1
    12    95    96    2
    13    95    94    1
    14    84    93   am
    15    74    72   ar
    16    75    73   ar
    17    93    94    1
    18    93    99    1
    19    86    87    1
    20    94    97    1
    21    99    98    1
    22    72    73   ar
    23    72    71    1
    24    87    88    1
    25    98    97    1
    26    71    68    1
    27    67    68    1
    28    88    89    1
    29   114   115   ar
    30   114   112   ar
    31    91    90    1
    32   115   113   ar
    33    68    69    1
    34    89    90    2
    35    69    70    2
    36    90    92    1
    37   112   110   ar
    38   113   111   ar
    39   167   166    1
    40   167   168    1
    41   110   111   ar
    42   110   109    1
    43   166   163    1
    44   165   164    2
    45    42    41    2
    46   168   162    1
    47    45    44    1
    48   164   163    1
    49   109   106    1
    50   163   162    1
    51    41    40    1
    52    41    47   am
    53    40    39    1
    54    40    43    1
    55    50    49    2
    56   162   156   am
    57   106   105    1
    58   106   107    1
    59    49    48    1
    60    44    43    1
    61    44    46    1
    62    66    64   am
    63    47    48    1
    64    48    51    1
    65   156   157    2
    66   156   155    1
    67   107   108    2
    68   107   116   am
    69    78    79    1
    70    65    64    2
    71    23    22    1
    72    64    63    1
    73   116   117    1
    74   123   125   ar
    75   123   121   ar
    76   155   154    1
    77   155   158    1
    78    51    52    1
    79    53    55   ar
    80    53    52   ar
    81   125   126   ar
    82   120   117    1
    83   120   121    1
    84   117   118    1
    85    22    21   ar
    86    22    20   ar
    87    55    57   ar
    88    79    80    1
    89    52    54   ar
    90    34    33    2
    91    21    19   ar
    92   121   122   ar
    93    63    62    1
    94    58    59    1
    95   158   159    1
    96    20    18   ar
    97   126   124   ar
    98    80    81    2
    99    57    56   ar
   100    54    56   ar
   101    19    17   ar
   102    33    32    1
   103    62    59    1
   104   118   119    2
   105   118   127   am
   106   122   124   ar
   107    59    60    1
   108   159   160    1
   109    38    36    1
   110   133   127    1
   111   133   132    1
   112    32    35    1
   113    32    31    1
   114    18    17   ar
   115   127   128    1
   116    17    16    1
   117    35    36    1
   118    36    37    1
   119    60    61    2
   120   132   131    1
   121   160   161    1
   122   128   131    1
   123   128   129    1
   124    16    13    1
   125   129   134   am
   126   129   130    2
   127   137   136    2
   128    12    13    1
   129    13    14    1
   130   134   135    1
   131    27    26    2
   132   136   135    1
   133    14    15    2
   134   135   138    1
   135    26    25    1
   136    10    11   ar
   137    10     8   ar
   138   140   138    1
   139    30    24    1
   140    30    29    1
   141    24    25    1
   142   138   139    1
   143    11     9   ar
   144    25    28    1
   145   141   142    1
   146     4     3    2
   147    28    29    1
   148     8     6   ar
   149   144   143    2
   150     3     2    1
   151   145   142    1
   152     9     7   ar
   153   142   143    1
   154     6     7   ar
   155     6     5    1
   156     2     5    1
   157     2     1    1
   158   153   151    1
   159   152   151    1
   160   150   151    1
   161   150   147    1
   162   148   147    1
   163   148   149    2
   164   147   146    1
