@<TRIPOS>MOLECULE
tmp/5yhpB00.pdb
 163 156 0 0 0
SMALL
GASTEIGER

@<TRIPOS>ATOM
      1  N         11.9630  -78.5680  -12.0790 N.3    39  PHE39      -0.1227
      2  CA        12.7110  -77.4710  -12.6540 C.3    39  PHE39       0.1736
      3  C         12.4980  -77.4860  -14.1440 C.2    39  PHE39       0.2595
      4  O         12.6890  -78.5230  -14.7900 O.2    39  PHE39      -0.2718
      5  CB        14.1950  -77.6500  -12.3800 C.3    39  PHE39       0.0547
      6  CG        15.0720  -76.6820  -13.1320 C.ar   39  PHE39      -0.0202
      7  CD1       15.2150  -75.3700  -12.6960 C.ar   39  PHE39      -0.0042
      8  CD2       15.7810  -77.0910  -14.2570 C.ar   39  PHE39      -0.0042
      9  CE1       16.0340  -74.4860  -13.3760 C.ar   39  PHE39      -0.0003
     10  CE2       16.6000  -76.2140  -14.9380 C.ar   39  PHE39      -0.0003
     11  CZ        16.7190  -74.9030  -14.5030 C.ar   39  PHE39      -0.0000
     12  N         12.1070  -76.3440  -14.6940 N.am   40  LEU40      -0.1966
     13  CA        11.9450  -76.2140  -16.1350 C.3    40  LEU40       0.1728
     14  C         13.0900  -75.3690  -16.7010 C.2    40  LEU40       0.2616
     15  O         13.1530  -74.1540  -16.4490 O.2    40  LEU40      -0.2715
     16  CB        10.5960  -75.5700  -16.4590 C.3    40  LEU40       0.0311
     17  CG         9.4570  -76.2460  -15.7020 C.3    40  LEU40       0.0022
     18  CD1        8.1360  -75.5140  -15.9170 C.3    40  LEU40       0.0001
     19  CD2        9.3780  -77.6860  -16.1490 C.3    40  LEU40       0.0001
     20  N         13.9810  -76.0040  -17.4690 N.am   41  HIS41      -0.1959
     21  CA        15.1130  -75.2990  -18.0780 C.3    41  HIS41       0.1787
     22  C         14.6060  -74.3590  -19.1550 C.2    41  HIS41       0.2621
     23  O         13.4690  -74.4900  -19.6160 O.2    41  HIS41      -0.2715
     24  CB        16.1350  -76.2800  -18.6700 C.3    41  HIS41       0.0785
     25  CG        15.6010  -77.1210  -19.7910 C.ar   41  HIS41       0.0821
     26  ND1       15.2660  -76.5970  -21.0230 N.ar   41  HIS41      -0.2267
     27  CD2       15.3550  -78.4510  -19.8730 C.ar   41  HIS41       0.1154
     28  CE1       14.8410  -77.5650  -21.8130 C.ar   41  HIS41       0.1986
     29  NE2       14.8830  -78.7000  -21.1380 N.ar   41  HIS41      -0.2212
     30  N         15.4430  -73.4110  -19.5590 N.am   42  GLY42      -0.1940
     31  CA        15.0560  -72.4330  -20.5580 C.3    42  GLY42       0.2014
     32  C         15.3960  -72.8370  -21.9800 C.2    42  GLY42       0.2639
     33  O         15.4770  -74.0320  -22.2950 O.2    42  GLY42      -0.2714
     34  N         15.5950  -71.8290  -22.8290 N.am   43  GLY43      -0.1954
     35  CA        15.7960  -72.0270  -24.2460 C.3    43  GLY43       0.1869
     36  C         14.6370  -71.4000  -25.0070 C.2    43  GLY43       0.2309
     37  O         14.5850  -70.1700  -25.1570 O.2    43  GLY43      -0.2863
     38  N         17.4270  -75.7920  -24.2700 N.3    46  GLY46      -0.1210
     39  CA        18.7060  -75.6300  -23.5930 C.3    46  GLY46       0.1956
     40  C         19.1450  -76.8250  -22.7590 C.2    46  GLY46       0.2612
     41  O         20.3380  -77.0370  -22.5390 O.2    46  GLY46      -0.2717
     42  N         18.1740  -77.6060  -22.2900 N.am   47  GLY47      -0.1956
     43  CA        18.4530  -78.7260  -21.4210 C.3    47  GLY47       0.1869
     44  C         18.7670  -78.2510  -20.0170 C.2    47  GLY47       0.2309
     45  O         19.0650  -77.0710  -19.8030 O.2    47  GLY47      -0.2863
     46  N         21.7380  -76.7600  -11.8450 N.3    52  ASP52      -0.1239
     47  CA        20.4140  -76.1860  -11.6190 C.3    52  ASP52       0.1674
     48  C         19.7650  -76.7660  -10.3710 C.2    52  ASP52       0.2266
     49  O         18.8380  -76.1750   -9.8260 O.2    52  ASP52      -0.2867
     50  CB        19.5000  -76.3780  -12.8390 C.3    52  ASP52       0.1410
     51  CG        19.9860  -75.6150  -14.0650 C.2    52  ASP52       0.3668
     52  OD1       20.2160  -74.3940  -13.9650 O.co2  52  ASP52      -0.2456
     53  OD2       20.1390  -76.2390  -15.1310 O.co2  52  ASP52      -0.2456
     54  N         12.8660  -70.1450  -15.4280 N.3   110  GLY110     -0.1210
     55  CA        13.3310  -68.8350  -15.8450 C.3   110  GLY110      0.1956
     56  C         13.3650  -68.7670  -17.3630 C.2   110  GLY110      0.2612
     57  O         13.6170  -69.7890  -18.0280 O.2   110  GLY110     -0.2717
     58  N         13.0900  -67.5820  -17.9160 N.am  111  SER111     -0.1952
     59  CA        13.1410  -67.3700  -19.3650 C.3   111  SER111      0.1924
     60  C         12.1070  -68.2410  -20.0640 C.2   111  SER111      0.2314
     61  O         10.9130  -68.1460  -19.7660 O.2   111  SER111     -0.2863
     62  CB        14.5600  -67.6320  -19.9060 C.3   111  SER111      0.2116
     63  OG        14.7140  -67.1880  -21.2480 O.3   111  SER111     -0.2180
     64  N         11.6580  -66.2820  -13.1860 N.3   134  ARG134     -0.1245
     65  CA        12.7240  -65.3190  -13.4580 C.3   134  ARG134      0.1563
     66  C         12.7730  -64.9750  -14.9500 C.2   134  ARG134      0.2260
     67  O         12.4180  -65.8090  -15.7840 O.2   134  ARG134     -0.2867
     68  CB        14.0660  -65.8950  -13.0180 C.3   134  ARG134      0.0307
     69  CG        15.2650  -64.9240  -13.1350 C.3   134  ARG134      0.0489
     70  CD        16.0470  -65.1590  -14.4280 C.3   134  ARG134      0.2205
     71  NE        16.1520  -66.5810  -14.7120 N.pl3 134  ARG134     -0.0865
     72  CZ        16.7370  -67.0930  -15.7910 C.cat 134  ARG134      0.5346
     73  NH1       17.2790  -66.2870  -16.7010 N.pl3 134  ARG134      0.1354
     74  NH2       16.7870  -68.4120  -15.9530 N.pl3 134  ARG134      0.1354
     75  N         22.7000  -64.8670  -28.1050 N.3   203  GLU203     -0.1231
     76  CA        22.0910  -64.9530  -26.7800 C.3   203  GLU203      0.1699
     77  C         23.1240  -65.0790  -25.6460 C.2   203  GLU203      0.2592
     78  O         22.9780  -64.4490  -24.5900 O.2   203  GLU203     -0.2718
     79  CB        21.0740  -66.0880  -26.7180 C.3   203  GLU203      0.0402
     80  CG        20.5590  -66.3660  -25.3230 C.3   203  GLU203      0.1161
     81  CD        19.2280  -67.1110  -25.3180 C.2   203  GLU203      0.3649
     82  OE1       18.7520  -67.4970  -26.4110 O.co2 203  GLU203     -0.2457
     83  OE2       18.6540  -67.2940  -24.2210 O.co2 203  GLU203     -0.2457
     84  N         24.1630  -65.8790  -25.8570 N.am  204  MET204     -0.1979
     85  CA        25.1830  -66.0440  -24.8270 C.3   204  MET204      0.1605
     86  C         25.8490  -64.7130  -24.5170 C.2   204  MET204      0.2287
     87  O         26.1060  -64.4040  -23.3570 O.2   204  MET204     -0.2864
     88  CB        26.2310  -67.0710  -25.2610 C.3   204  MET204      0.0413
     89  CG        25.6780  -68.4800  -25.4520 C.3   204  MET204      0.0598
     90  SD        24.8260  -69.1040  -23.9860 S.3   204  MET204     -0.1393
     91  CE        23.1350  -69.1330  -24.5560 C.3   204  MET204      0.0692
     92  N         23.4980  -62.1930  -22.3300 N.3   207  SER207     -0.1217
     93  CA        22.7460  -62.7650  -21.2060 C.3   207  SER207      0.1889
     94  C         23.1260  -62.2980  -19.8030 C.2   207  SER207      0.2288
     95  O         22.4440  -62.6640  -18.8480 O.2   207  SER207     -0.2866
     96  CB        22.8200  -64.2890  -21.2310 C.3   207  SER207      0.2089
     97  OG        22.1190  -64.7850  -22.3470 O.3   207  SER207     -0.2183
     98  N         30.2950  -68.0300  -20.9990 N.3   215  TYR215     -0.1241
     99  CA        28.9680  -68.1430  -21.5770 C.3   215  TYR215      0.1605
    100  C         29.0750  -68.2270  -23.0970 C.2   215  TYR215      0.2264
    101  O         28.4780  -69.0870  -23.7350 O.2   215  TYR215     -0.2867
    102  CB        28.1320  -66.9300  -21.1660 C.3   215  TYR215      0.0534
    103  CG        27.0090  -67.2630  -20.2120 C.ar  215  TYR215     -0.0201
    104  CD1       25.6790  -67.1840  -20.6220 C.ar  215  TYR215     -0.0009
    105  CD2       27.2720  -67.6650  -18.9080 C.ar  215  TYR215     -0.0009
    106  CE1       24.6510  -67.4860  -19.7650 C.ar  215  TYR215      0.0417
    107  CE2       26.2430  -67.9750  -18.0390 C.ar  215  TYR215      0.0417
    108  CZ        24.9400  -67.8790  -18.4730 C.ar  215  TYR215      0.1957
    109  OH        23.9150  -68.1890  -17.6090 O.3   215  TYR215     -0.2866
    110  N         30.0340  -71.4790  -25.0990 N.3   218  LYS218     -0.1245
    111  CA        29.0110  -72.5240  -25.1950 C.3   218  LYS218      0.1561
    112  C         28.4190  -72.6440  -26.5950 C.2   218  LYS218      0.2260
    113  O         28.0190  -73.7270  -27.0150 O.2   218  LYS218     -0.2867
    114  CB        27.9120  -72.3000  -24.1530 C.3   218  LYS218      0.0271
    115  CG        28.4690  -72.2800  -22.7380 C.3   218  LYS218      0.0035
    116  CD        27.3920  -72.3360  -21.6320 C.3   218  LYS218      0.0206
    117  CE        26.0240  -71.8860  -22.1040 C.3   218  LYS218      0.1093
    118  NZ        25.0480  -71.8410  -20.9320 N.3   218  LYS218     -0.1314
    119  N         25.4120  -78.6480  -28.3130 N.3   224  PHE224     -0.1241
    120  CA        24.5060  -77.7250  -27.6470 C.3   224  PHE224      0.1605
    121  C         23.8600  -76.7830  -28.6540 C.2   224  PHE224      0.2264
    122  O         22.6280  -76.6740  -28.7080 O.2   224  PHE224     -0.2867
    123  CB        25.2600  -76.9120  -26.5980 C.3   224  PHE224      0.0534
    124  CG        24.4740  -75.7630  -26.0620 C.ar  224  PHE224     -0.0203
    125  CD1       23.4210  -75.9770  -25.1830 C.ar  224  PHE224     -0.0042
    126  CD2       24.7730  -74.4690  -26.4460 C.ar  224  PHE224     -0.0042
    127  CE1       22.6810  -74.9010  -24.6940 C.ar  224  PHE224     -0.0003
    128  CE2       24.0430  -73.3980  -25.9640 C.ar  224  PHE224     -0.0003
    129  CZ        22.9950  -73.6060  -25.0880 C.ar  224  PHE224     -0.0000
    130  N         19.8720  -76.1660  -29.3780 N.3   228  PHE228     -0.1241
    131  CA        19.4670  -74.9050  -28.7520 C.3   228  PHE228      0.1605
    132  C         18.8130  -74.0130  -29.7970 C.2   228  PHE228      0.2264
    133  O         17.6840  -73.5490  -29.6210 O.2   228  PHE228     -0.2867
    134  CB        20.6930  -74.2190  -28.1550 C.3   228  PHE228      0.0534
    135  CG        20.3940  -72.9720  -27.3460 C.ar  228  PHE228     -0.0203
    136  CD1       19.7990  -73.0570  -26.0920 C.ar  228  PHE228     -0.0042
    137  CD2       20.7710  -71.7170  -27.8100 C.ar  228  PHE228     -0.0042
    138  CE1       19.5580  -71.8970  -25.3300 C.ar  228  PHE228     -0.0003
    139  CE2       20.5310  -70.5630  -27.0530 C.ar  228  PHE228     -0.0003
    140  CZ        19.9280  -70.6530  -25.8170 C.ar  228  PHE228     -0.0000
    141  N         17.7180  -60.0050  -22.9240 N.3   271  VAL271     -0.1245
    142  CA        17.1400  -61.1220  -23.6760 C.3   271  VAL271      0.1561
    143  C         15.6180  -61.0890  -23.5280 C.2   271  VAL271      0.2260
    144  O         14.8720  -61.2050  -24.5070 O.2   271  VAL271     -0.2867
    145  CB        17.7410  -62.4800  -23.2390 C.3   271  VAL271      0.0252
    146  CG1       17.1550  -63.6220  -24.0640 C.3   271  VAL271      0.0019
    147  CG2       19.2440  -62.4450  -23.3910 C.3   271  VAL271      0.0019
    148  N         20.0980  -60.9300  -17.8130 N.3   297  HIS297     -0.1226
    149  CA        19.1170  -61.9920  -17.9960 C.3   297  HIS297      0.1752
    150  C         19.3210  -63.2080  -17.0910 C.2   297  HIS297      0.2596
    151  O         18.3660  -63.7350  -16.5200 O.2   297  HIS297     -0.2718
    152  CB        19.1410  -62.4340  -19.4670 C.3   297  HIS297      0.0759
    153  CG        18.1910  -63.5330  -19.7880 C.ar  297  HIS297      0.0818
    154  ND1       16.8240  -63.4200  -19.6110 N.ar  297  HIS297     -0.2268
    155  CD2       18.3970  -64.7800  -20.2860 C.ar  297  HIS297      0.1154
    156  CE1       16.2390  -64.5380  -19.9860 C.ar  297  HIS297      0.1986
    157  NE2       17.1750  -65.3850  -20.3980 N.ar  297  HIS297     -0.2212
    158  N         20.5700  -63.6360  -16.9720 N.am  298  SER298     -0.1952
    159  CA        20.9070  -64.9390  -16.4230 C.3   298  SER298      0.1924
    160  C         20.5070  -65.1420  -14.9690 C.2   298  SER298      0.2314
    161  O         20.4420  -64.2040  -14.1800 O.2   298  SER298     -0.2863
    162  CB        22.4050  -65.2100  -16.5870 C.3   298  SER298      0.2116
    163  OG        22.7560  -66.4610  -16.0190 O.3   298  SER298     -0.2180
@<TRIPOS>BOND
     1   132   133    2
     2   132   131    1
     3   130   131    1
     4   131   134    1
     5   122   121    2
     6   121   120    1
     7   119   120    1
     8   134   135    1
     9    75    76    1
    10   137   135   ar
    11   137   139   ar
    12   120   123    1
    13   135   136   ar
    14   139   140   ar
    15   113   112    2
    16    76    79    1
    17    76    77    1
    18    79    80    1
    19   123   124    1
    20   112   111    1
    21   126   124   ar
    22   126   128   ar
    23    82    81   ar
    24   136   138   ar
    25   124   125   ar
    26   128   129   ar
    27    84    77   am
    28    84    85    1
    29   140   138   ar
    30    77    78    2
    31    89    88    1
    32    89    90    1
    33    80    81    1
    34    81    83   ar
    35    88    85    1
    36   111   110    1
    37   111   114    1
    38   125   127   ar
    39    37    36    2
    40   129   127   ar
    41    36    35    1
    42    85    86    1
    43    91    90    1
    44    86    87    2
    45   144   143    2
    46    38    39    1
    47    35    34    1
    48   114   115    1
    49   146   145    1
    50   101   100    2
    51   142   143    1
    52   142   145    1
    53   142   141    1
    54    39    40    1
    55   147   145    1
    56   100    99    1
    57    34    32   am
    58    40    41    2
    59    40    42   am
    60   115   116    1
    61    97    96    1
    62    92    93    1
    63    33    32    2
    64    42    43    1
    65   117   116    1
    66   117   118    1
    67    32    31    1
    68    28    29   ar
    69    28    26   ar
    70    99   102    1
    71    99    98    1
    72    43    44    1
    73    63    62    1
    74    96    93    1
    75    93    94    1
    76   102   103    1
    77    29    27   ar
    78    26    25   ar
    79   104   103   ar
    80   104   106   ar
    81    31    30    1
    82   157   155   ar
    83   157   156   ar
    84   155   153   ar
    85   103   105   ar
    86    60    61    2
    87    60    59    1
    88    44    45    2
    89   156   154   ar
    90    62    59    1
    91    27    25   ar
    92    94    95    2
    93    25    24    1
    94   153   154   ar
    95   153   152    1
    96   106   108   ar
    97    23    22    2
    98    30    22   am
    99   152   149    1
   100    59    58    1
   101    22    21    1
   102   105   107   ar
   103    24    21    1
   104   108   107   ar
   105   108   109    1
   106    21    20    1
   107    57    56    2
   108   149   148    1
   109   149   150    1
   110    58    56   am
   111    20    14   am
   112    56    55    1
   113   150   158   am
   114   150   151    2
   115   158   159    1
   116    14    15    2
   117    14    13    1
   118    73    72    1
   119   162   159    1
   120   162   163    1
   121    16    13    1
   122    16    17    1
   123   159   160    1
   124    19    17    1
   125    13    12    1
   126    74    72    1
   127    18    17    1
   128    55    54    1
   129    72    71    2
   130    67    66    2
   131    53    51   ar
   132   160   161    2
   133    66    65    1
   134    10    11   ar
   135    10     8   ar
   136     4     3    2
   137    71    70    1
   138    12     3   am
   139    11     9   ar
   140    70    69    1
   141     8     6   ar
   142     3     2    1
   143    51    52   ar
   144    51    50    1
   145    65    64    1
   146    65    68    1
   147     9     7   ar
   148    69    68    1
   149     6     7   ar
   150     6     5    1
   151    50    47    1
   152     2     5    1
   153     2     1    1
   154    46    47    1
   155    47    48    1
   156    48    49    2
