@<TRIPOS>MOLECULE
tmp/5yhtA00.pdb
 111 103 0 0 0
SMALL
GASTEIGER

@<TRIPOS>ATOM
      1  N        -60.1870   24.7640   21.8270 N.3    41  ASP41      -0.1239
      2  CA       -59.8660   23.3950   21.4600 C.3    41  ASP41       0.1674
      3  C        -61.1580   22.5860   21.3390 C.2    41  ASP41       0.2266
      4  O        -61.3070   21.8260   20.3890 O.2    41  ASP41      -0.2867
      5  CB       -58.9030   22.7650   22.4810 C.3    41  ASP41       0.1410
      6  CG       -57.7250   22.0220   21.8300 C.2    41  ASP41       0.3668
      7  OD1      -57.7970   21.6740   20.6400 O.co2  41  ASP41      -0.2456
      8  OD2      -56.7180   21.7460   22.5220 O.co2  41  ASP41      -0.2456
      9  N        -58.7220   14.4110   20.7410 N.3    64  GLU64      -0.1231
     10  CA       -57.8800   14.6690   21.9090 C.3    64  GLU64       0.1699
     11  C        -58.6640   15.3480   23.0290 C.2    64  GLU64       0.2592
     12  O        -58.4100   15.1120   24.2090 O.2    64  GLU64      -0.2718
     13  CB       -56.6810   15.5290   21.5200 C.3    64  GLU64       0.0402
     14  CG       -55.5100   15.4300   22.4880 C.3    64  GLU64       0.1161
     15  CD       -54.5720   16.6170   22.3970 C.2    64  GLU64       0.3649
     16  OE1      -53.4500   16.4480   21.8680 O.co2  64  GLU64      -0.2457
     17  OE2      -54.9600   17.7110   22.8600 O.co2  64  GLU64      -0.2457
     18  N        -59.6260   16.1760   22.6400 N.am   65  GLU65      -0.1979
     19  CA       -60.3970   16.9800   23.5840 C.3    65  GLU65       0.1602
     20  C        -61.6290   16.2290   24.1120 C.2    65  GLU65       0.2287
     21  O        -61.8880   16.2550   25.3120 O.2    65  GLU65      -0.2864
     22  CB       -60.7710   18.3500   22.9670 C.3    65  GLU65       0.0415
     23  CG       -59.5830   19.1600   22.4530 C.3    65  GLU65       0.1163
     24  CD       -58.4700   19.2700   23.5200 C.2    65  GLU65       0.3649
     25  OE1      -58.6210   20.1480   24.3980 O.co2  65  GLU65      -0.2457
     26  OE2      -57.4760   18.5120   23.4400 O.co2  65  GLU65      -0.2457
     27  N        -56.1860   16.7940   16.6560 N.3    80  ASP80      -0.1239
     28  CA       -55.8430   17.7250   17.7130 C.3    80  ASP80       0.1674
     29  C        -56.0060   19.1510   17.1910 C.2    80  ASP80       0.2266
     30  O        -55.2100   19.6130   16.3900 O.2    80  ASP80      -0.2867
     31  CB       -54.4590   17.4660   18.2660 C.3    80  ASP80       0.1410
     32  CG       -54.1050   18.4080   19.3860 C.2    80  ASP80       0.3668
     33  OD1      -54.9710   19.2050   19.8230 O.co2  80  ASP80      -0.2456
     34  OD2      -52.9450   18.3560   19.8400 O.co2  80  ASP80      -0.2456
     35  N        -55.7030   22.1650   18.4770 N.3    82  ILE82      -0.1231
     36  CA       -54.6520   23.1280   18.7680 C.3    82  ILE82       0.1692
     37  C        -53.5030   22.4160   19.4340 C.2    82  ILE82       0.2592
     38  O        -53.5550   22.1800   20.6180 O.2    82  ILE82      -0.2718
     39  CB       -55.1420   24.3020   19.6500 C.3    82  ILE82       0.0266
     40  CG1      -56.2620   25.0910   18.9610 C.3    82  ILE82       0.0019
     41  CG2      -53.9940   25.2560   19.9580 C.3    82  ILE82       0.0020
     42  CD1      -57.2480   25.7230   19.9170 C.3    82  ILE82       0.0001
     43  N        -52.4910   22.0500   18.6440 N.am   83  ASP83      -0.1960
     44  CA       -51.1870   21.6170   19.1630 C.3    83  ASP83       0.1840
     45  C        -50.3760   22.8770   19.4050 C.2    83  ASP83       0.2623
     46  O        -50.2870   23.7320   18.5330 O.2    83  ASP83      -0.2715
     47  CB       -50.4620   20.6820   18.1880 C.3    83  ASP83       0.1450
     48  CG       -49.2130   20.0170   18.7960 C.2    83  ASP83       0.3671
     49  OD1      -48.9590   20.1380   20.0120 O.co2  83  ASP83      -0.2456
     50  OD2      -48.4620   19.3630   18.0370 O.co2  83  ASP83      -0.2456
     51  N        -49.8130   22.9870   20.6040 N.am   84  GLY84      -0.1940
     52  CA       -49.1560   24.2150   21.0430 C.3    84  GLY84       0.2014
     53  C        -50.0670   25.1770   21.8030 C.2    84  GLY84       0.2640
     54  O        -49.8830   26.3990   21.7140 O.2    84  GLY84      -0.2714
     55  N        -51.0240   24.6410   22.5770 N.am   85  THR85      -0.1936
     56  CA       -51.8410   25.4990   23.4480 C.3    85  THR85       0.2028
     57  C        -51.0490   26.3950   24.3790 C.2    85  THR85       0.2642
     58  O        -51.4710   27.5300   24.6050 O.2    85  THR85      -0.2714
     59  CB       -52.8850   24.7640   24.3160 C.3    85  THR85       0.1808
     60  OG1      -52.3330   23.5770   24.9050 O.3    85  THR85      -0.2208
     61  CG2      -54.1440   24.5190   23.5200 C.3    85  THR85       0.0379
     62  N        -49.9270   25.9090   24.9190 N.am   86  LYS86      -0.1977
     63  CA       -49.0990   26.7480   25.8060 C.3    86  LYS86       0.1596
     64  C        -48.4820   27.9480   25.0560 C.2    86  LYS86       0.2287
     65  O        -48.2290   28.9810   25.6690 O.2    86  LYS86      -0.2864
     66  CB       -48.0530   25.9410   26.5890 C.3    86  LYS86       0.0298
     67  CG       -48.7350   24.9870   27.5750 C.3    86  LYS86       0.0038
     68  CD       -47.8350   24.6410   28.7390 C.3    86  LYS86       0.0206
     69  CE       -48.6340   24.4930   30.0380 C.3    86  LYS86       0.1093
     70  NZ       -49.2290   25.8130   30.4740 N.3    86  LYS86      -0.1314
     71  N        -42.7810   21.2930   19.3230 N.3   186  ASP186     -0.1239
     72  CA       -44.0700   20.7140   18.9220 C.3   186  ASP186      0.1674
     73  C        -44.0120   20.2120   17.4880 C.2   186  ASP186      0.2266
     74  O        -43.0610   19.5310   17.1030 O.2   186  ASP186     -0.2867
     75  CB       -45.2240   21.7250   19.1320 C.3   186  ASP186      0.1410
     76  CG       -45.1770   22.3950   20.5110 C.2   186  ASP186      0.3668
     77  OD1      -45.5410   21.8400   21.5300 O.co2 186  ASP186     -0.2456
     78  OD2      -44.7690   23.5150   20.6250 O.co2 186  ASP186     -0.2456
     79  N        -38.8470   14.1750   20.2540 N.3   203  GLU203     -0.1245
     80  CA       -39.6280   14.4080   21.4720 C.3   203  GLU203      0.1567
     81  C        -39.7480   13.1160   22.2780 C.2   203  GLU203      0.2260
     82  O        -40.0480   12.0750   21.6900 O.2   203  GLU203     -0.2867
     83  CB       -40.9910   15.0010   21.1450 C.3   203  GLU203      0.0388
     84  CG       -40.9630   16.5050   20.9940 C.3   203  GLU203      0.1160
     85  CD       -42.3270   17.0870   20.6990 C.2   203  GLU203      0.3649
     86  OE1      -43.0210   16.6060   19.7660 O.co2 203  GLU203     -0.2457
     87  OE2      -42.7060   18.0360   21.4160 O.co2 203  GLU203     -0.2457
     88  N        -41.7820   12.3200   24.9810 N.3   205  GLN205     -0.1231
     89  CA       -43.1540   11.9030   25.2520 C.3   205  GLN205      0.1698
     90  C        -44.1310   12.6390   24.3370 C.2   205  GLN205      0.2592
     91  O        -44.2920   13.8400   24.4520 O.2   205  GLN205     -0.2718
     92  CB       -43.5060   12.0340   26.7440 C.3   205  GLN205      0.0381
     93  CG       -42.5740   12.9270   27.5570 C.3   205  GLN205      0.0905
     94  CD       -42.2340   12.3310   28.9170 C.2   205  GLN205      0.2608
     95  OE1      -43.0520   12.3230   29.8400 O.2   205  GLN205     -0.2717
     96  NE2      -41.0090   11.8300   29.0440 N.am  205  GLN205     -0.0878
     97  N        -44.7430   11.9130   23.4070 N.am  206  VAL206     -0.1980
     98  CA       -45.6830   12.5080   22.4610 C.3   206  VAL206      0.1595
     99  C        -46.7760   11.5170   21.9990 C.2   206  VAL206      0.2287
    100  O        -46.4900   10.3880   21.5860 O.2   206  VAL206     -0.2864
    101  CB       -44.9370   13.2170   21.2970 C.3   206  VAL206      0.0276
    102  CG1      -44.1050   12.2390   20.4770 C.3   206  VAL206      0.0022
    103  CG2      -45.8820   14.0290   20.4250 C.3   206  VAL206      0.0022
    104  N        -50.9100   13.9440   18.4360 N.3   210  ASP210     -0.1239
    105  CA       -49.8280   14.8420   18.0820 C.3   210  ASP210      0.1674
    106  C        -48.8780   14.3400   16.9760 C.2   210  ASP210      0.2266
    107  O        -48.2120   15.1660   16.3550 O.2   210  ASP210     -0.2867
    108  CB       -49.0340   15.2110   19.3340 C.3   210  ASP210      0.1410
    109  CG       -49.7770   16.1750   20.2530 C.2   210  ASP210      0.3668
    110  OD1      -50.5850   17.0060   19.7810 O.co2 210  ASP210     -0.2456
    111  OD2      -49.5090   16.1300   21.4720 O.co2 210  ASP210     -0.2456
@<TRIPOS>BOND
     1   107   106    2
     2    30    29    2
     3    27    28    1
     4   106   105    1
     5    74    73    2
     6    29    28    1
     7    73    72    1
     8    28    31    1
     9    50    48   ar
    10   105   104    1
    11   105   108    1
    12    47    48    1
    13    47    44    1
    14    31    32    1
    15    35    36    1
    16    46    45    2
    17    43    44    1
    18    43    37   am
    19    36    37    1
    20    36    39    1
    21    48    49   ar
    22    72    75    1
    23    72    71    1
    24    40    39    1
    25    40    42    1
    26    75    76    1
    27    44    45    1
    28   108   109    1
    29    32    33   ar
    30    32    34   ar
    31    45    51   am
    32    37    38    2
    33    39    41    1
    34    86    85   ar
    35   110   109   ar
    36   109   111   ar
    37    79    80    1
    38     4     3    2
    39   103   101    1
    40   102   101    1
    41    76    78   ar
    42    76    77   ar
    43    51    52    1
    44     7     6   ar
    45    85    84    1
    46    85    87   ar
    47     9    10    1
    48    84    83    1
    49    52    53    1
    50    83    80    1
    51   101    98    1
    52     3     2    1
    53     2     1    1
    54     2     5    1
    55    80    81    1
    56    13    10    1
    57    13    14    1
    58   100    99    2
    59    82    81    2
    60    54    53    2
    61    53    55   am
    62     6     5    1
    63     6     8   ar
    64    16    15   ar
    65    10    11    1
    66    99    98    1
    67    15    14    1
    68    15    17   ar
    69    23    22    1
    70    23    24    1
    71    98    97    1
    72    55    56    1
    73    18    11   am
    74    18    19    1
    75    22    19    1
    76    11    12    2
    77    97    90   am
    78    26    24   ar
    79    56    59    1
    80    56    57    1
    81    61    59    1
    82    24    25   ar
    83    19    20    1
    84    20    21    2
    85    59    60    1
    86    90    91    2
    87    90    89    1
    88    57    58    2
    89    57    62   am
    90    62    63    1
    91    88    89    1
    92    64    65    2
    93    64    63    1
    94    89    92    1
    95    63    66    1
    96    66    67    1
    97    92    93    1
    98    93    94    1
    99    67    68    1
   100    68    69    1
   101    94    96   am
   102    94    95    2
   103    69    70    1
