@<TRIPOS>MOLECULE
tmp/5yhvA01.pdb
 164 157 0 0 0
SMALL
GASTEIGER

@<TRIPOS>ATOM
      1  N         -0.0160  -59.1310   -0.1540 N.3    20  PHE20      -0.1241
      2  CA         0.5570  -57.7940   -0.1310 C.3    20  PHE20       0.1605
      3  C          1.7640  -57.9580    0.7880 C.2    20  PHE20       0.2264
      4  O          1.6160  -57.9520    2.0110 O.2    20  PHE20      -0.2867
      5  CB        -0.5150  -56.8130    0.4020 C.3    20  PHE20       0.0534
      6  CG        -0.0660  -55.3800    0.5480 C.ar   20  PHE20      -0.0203
      7  CD1        0.9780  -54.8360   -0.2150 C.ar   20  PHE20      -0.0042
      8  CD2       -0.7470  -54.5450    1.4400 C.ar   20  PHE20      -0.0042
      9  CE1        1.3360  -53.4940   -0.0680 C.ar   20  PHE20      -0.0003
     10  CE2       -0.3860  -53.2090    1.5930 C.ar   20  PHE20      -0.0003
     11  CZ         0.6570  -52.6850    0.8400 C.ar   20  PHE20      -0.0000
     12  N          4.8330  -48.3430    4.9100 N.3    45  GLY45      -0.1225
     13  CA         4.1730  -47.7420    3.7540 C.3    45  GLY45       0.1811
     14  C          3.1010  -46.7550    4.1630 C.2    45  GLY45       0.2280
     15  O          2.0830  -46.5920    3.4630 O.2    45  GLY45      -0.2866
     16  N        -11.2100  -45.7180    0.9370 N.3   105  GLY105     -0.1210
     17  CA        -9.8050  -45.6530    0.5470 C.3   105  GLY105      0.1956
     18  C         -9.6380  -45.6470   -0.9640 C.2   105  GLY105      0.2613
     19  O        -10.6150  -45.7840   -1.7100 O.2   105  GLY105     -0.2717
     20  N         -8.3960  -45.4850   -1.4190 N.am  106  SER106     -0.1938
     21  CA        -8.0880  -45.6360   -2.8390 C.3   106  SER106      0.2055
     22  C         -8.1910  -47.1060   -3.2600 C.2   106  SER106      0.2643
     23  O         -8.5260  -47.3950   -4.4070 O.2   106  SER106     -0.2714
     24  CB        -6.7290  -45.0350   -3.1950 C.3   106  SER106      0.2130
     25  OG        -5.6740  -45.7260   -2.5700 O.3   106  SER106     -0.2179
     26  N         -7.9320  -48.0150   -2.3140 N.am  107  SER107     -0.1949
     27  CA        -8.1460  -49.4590   -2.4930 C.3   107  SER107      0.1924
     28  C         -9.5750  -49.7930   -2.9130 C.2   107  SER107      0.2314
     29  O         -9.7820  -50.6390   -3.7860 O.2   107  SER107     -0.2863
     30  CB        -7.8000  -50.2180   -1.2140 C.3   107  SER107      0.2116
     31  OG        -6.4240  -50.0910   -0.9140 O.3   107  SER107     -0.2180
     32  N         -9.9680  -48.3140   -6.5140 N.3   110  PHE110     -0.1241
     33  CA        -9.4180  -49.2130   -7.5390 C.3   110  PHE110      0.1605
     34  C        -10.3660  -50.3500   -7.8880 C.2   110  PHE110      0.2264
     35  O        -10.4940  -50.6980   -9.0610 O.2   110  PHE110     -0.2867
     36  CB        -8.0280  -49.7530   -7.1510 C.3   110  PHE110      0.0534
     37  CG        -6.9180  -48.7530   -7.3220 C.ar  110  PHE110     -0.0203
     38  CD1       -6.5980  -48.2470   -8.5850 C.ar  110  PHE110     -0.0042
     39  CD2       -6.1820  -48.3150   -6.2230 C.ar  110  PHE110     -0.0042
     40  CE1       -5.5740  -47.3180   -8.7480 C.ar  110  PHE110     -0.0003
     41  CE2       -5.1610  -47.3840   -6.3760 C.ar  110  PHE110     -0.0003
     42  CZ        -4.8640  -46.8830   -7.6410 C.ar  110  PHE110     -0.0000
     43  N          3.3610  -50.5500   -7.2630 N.3   131  TYR131     -0.1241
     44  CA         2.5480  -50.9730   -6.1370 C.3   131  TYR131      0.1605
     45  C          1.9730  -52.3590   -6.4390 C.2   131  TYR131      0.2264
     46  O          1.2590  -52.5170   -7.4350 O.2   131  TYR131     -0.2867
     47  CB         1.4440  -49.9400   -5.8980 C.3   131  TYR131      0.0534
     48  CG         0.6040  -50.1550   -4.6630 C.ar  131  TYR131     -0.0201
     49  CD1        1.1920  -50.3430   -3.4050 C.ar  131  TYR131     -0.0009
     50  CD2       -0.7890  -50.1180   -4.7450 C.ar  131  TYR131     -0.0009
     51  CE1        0.4100  -50.5230   -2.2720 C.ar  131  TYR131      0.0417
     52  CE2       -1.5800  -50.2950   -3.6170 C.ar  131  TYR131      0.0417
     53  CZ        -0.9770  -50.4990   -2.3870 C.ar  131  TYR131      0.1957
     54  OH        -1.7570  -50.6870   -1.2700 O.3   131  TYR131     -0.2866
     55  N         -2.1220  -53.4200   -7.3730 N.3   134  TYR134     -0.1241
     56  CA        -2.7700  -53.2600   -8.6920 C.3   134  TYR134      0.1605
     57  C         -2.7950  -54.5870   -9.4410 C.2   134  TYR134      0.2264
     58  O         -3.8400  -54.9780   -9.9620 O.2   134  TYR134     -0.2867
     59  CB        -2.0880  -52.2320   -9.6170 C.3   134  TYR134      0.0534
     60  CG        -1.7140  -50.8750   -9.0640 C.ar  134  TYR134     -0.0201
     61  CD1       -2.5590  -50.1650   -8.1920 C.ar  134  TYR134     -0.0009
     62  CD2       -0.5290  -50.2560   -9.4890 C.ar  134  TYR134     -0.0009
     63  CE1       -2.2010  -48.9110   -7.7250 C.ar  134  TYR134      0.0417
     64  CE2       -0.1650  -49.0000   -9.0300 C.ar  134  TYR134      0.0417
     65  CZ        -1.0000  -48.3330   -8.1510 C.ar  134  TYR134      0.1957
     66  OH        -0.6290  -47.0880   -7.7010 O.3   134  TYR134     -0.2866
     67  N          3.2670  -39.2660   -7.4920 N.3   178  PRO178     -0.2102
     68  CA         4.4780  -40.0690   -7.2430 C.3   178  PRO178      0.1504
     69  C          4.1580  -41.5410   -7.0020 C.2   178  PRO178      0.2576
     70  O          3.0480  -41.8640   -6.5650 O.2   178  PRO178     -0.2718
     71  CB         5.0520  -39.4690   -5.9590 C.3   178  PRO178      0.0282
     72  CG         4.3900  -38.1500   -5.7650 C.3   178  PRO178      0.0208
     73  CD         3.2680  -37.9990   -6.7370 C.3   178  PRO178      0.0893
     74  N          5.1230  -42.4150   -7.2810 N.am  179  ALA179     -0.1966
     75  CA         4.9000  -43.8640   -7.2030 C.3   179  ALA179      0.1728
     76  C          5.4800  -44.5120   -5.9460 C.2   179  ALA179      0.2616
     77  O          6.4620  -44.0300   -5.3800 O.2   179  ALA179     -0.2715
     78  CB         5.4520  -44.5430   -8.4460 C.3   179  ALA179      0.0334
     79  N          4.8360  -45.5880   -5.5060 N.am  180  ASN180     -0.1972
     80  CA         5.4190  -46.5600   -4.5870 C.3   180  ASN180      0.1688
     81  C          5.9710  -47.6460   -5.5180 C.2   180  ASN180      0.2292
     82  O          5.2030  -48.1930   -6.3160 O.2   180  ASN180     -0.2864
     83  CB         4.3180  -47.1140   -3.6800 C.3   180  ASN180      0.1181
     84  CG         4.8390  -47.9220   -2.5040 C.2   180  ASN180      0.2629
     85  OD1        6.0440  -48.0960   -2.3080 O.2   180  ASN180     -0.2716
     86  ND2        3.9090  -48.4210   -1.6980 N.am  180  ASN180     -0.0877
     87  N         -3.2000  -42.9750  -10.6960 N.3   208  ASP208     -0.1239
     88  CA        -2.9960  -42.9840   -9.2500 C.3   208  ASP208      0.1674
     89  C         -2.2770  -41.7020   -8.8590 C.2   208  ASP208      0.2266
     90  O         -1.1170  -41.4800   -9.2200 O.2   208  ASP208     -0.2867
     91  CB        -2.2120  -44.2270   -8.7920 C.3   208  ASP208      0.1410
     92  CG        -1.9270  -44.2320   -7.2810 C.2   208  ASP208      0.3668
     93  OD1       -1.3530  -43.2580   -6.7480 O.co2 208  ASP208     -0.2456
     94  OD2       -2.2590  -45.2340   -6.6230 O.co2 208  ASP208     -0.2456
     95  N         -2.4080  -40.6240   -5.5120 N.3   210  VAL210     -0.1231
     96  CA        -2.4970  -40.8160   -4.0560 C.3   210  VAL210      0.1692
     97  C         -1.4530  -40.0060   -3.2670 C.2   210  VAL210      0.2592
     98  O         -1.7650  -39.4680   -2.1990 O.2   210  VAL210     -0.2718
     99  CB        -2.4450  -42.3350   -3.7160 C.3   210  VAL210      0.0266
    100  CG1       -2.2790  -42.6140   -2.2210 C.3   210  VAL210      0.0020
    101  CG2       -3.6920  -43.0320   -4.2450 C.3   210  VAL210      0.0020
    102  N         -0.2410  -39.8950   -3.8060 N.am  211  TYR211     -0.1976
    103  CA         0.8520  -39.1950   -3.1200 C.3   211  TYR211      0.1639
    104  C          0.9970  -37.7110   -3.4660 C.2   211  TYR211      0.2290
    105  O          1.9530  -37.0610   -3.0290 O.2   211  TYR211     -0.2864
    106  CB         2.1730  -39.9400   -3.3200 C.3   211  TYR211      0.0560
    107  CG         2.2570  -41.2170   -2.5290 C.ar  211  TYR211     -0.0198
    108  CD1        2.6450  -41.2030   -1.1850 C.ar  211  TYR211     -0.0009
    109  CD2        1.9480  -42.4430   -3.1150 C.ar  211  TYR211     -0.0009
    110  CE1        2.7330  -42.3800   -0.4500 C.ar  211  TYR211      0.0417
    111  CE2        2.0260  -43.6230   -2.3900 C.ar  211  TYR211      0.0417
    112  CZ         2.4190  -43.5870   -1.0630 C.ar  211  TYR211      0.1957
    113  OH         2.4970  -44.7520   -0.3470 O.3   211  TYR211     -0.2866
    114  N         -6.5220  -40.3140   -2.3810 N.3   237  SER237     -0.1217
    115  CA        -6.8020  -40.7750   -1.0240 C.3   237  SER237      0.1889
    116  C         -6.5130  -39.7250    0.0410 C.2   237  SER237      0.2288
    117  O         -5.7930  -38.7600   -0.2070 O.2   237  SER237     -0.2866
    118  CB        -5.9850  -42.0360   -0.7280 C.3   237  SER237      0.2089
    119  OG        -6.2850  -42.5440    0.5590 O.3   237  SER237     -0.2183
    120  N         -5.2000  -40.9730    2.7850 N.3   239  SER239     -0.1202
    121  CA        -4.2890  -41.8230    3.5580 C.3   239  SER239      0.2020
    122  C         -2.8810  -41.2810    3.7480 C.2   239  SER239      0.2618
    123  O         -2.2890  -41.4700    4.8080 O.2   239  SER239     -0.2717
    124  CB        -4.2050  -43.2260    2.9520 C.3   239  SER239      0.2103
    125  OG        -5.4320  -43.9000    3.1550 O.3   239  SER239     -0.2182
    126  N         -2.3480  -40.6090    2.7370 N.am  240  LYS240     -0.1979
    127  CA        -0.9350  -40.2660    2.7490 C.3   240  LYS240      0.1596
    128  C         -0.6580  -38.8040    3.0380 C.2   240  LYS240      0.2287
    129  O          0.0590  -38.4940    3.9880 O.2   240  LYS240     -0.2864
    130  CB        -0.2580  -40.7400    1.4570 C.3   240  LYS240      0.0298
    131  CG        -0.5280  -42.1990    1.1320 C.3   240  LYS240      0.0038
    132  CD         0.2920  -43.1410    2.0270 C.3   240  LYS240      0.0206
    133  CE        -0.4690  -44.4130    2.3400 C.3   240  LYS240      0.1093
    134  NZ        -0.5470  -45.2280    1.1080 N.3   240  LYS240     -0.1314
    135  N         -4.7730  -42.6810    7.1990 N.3   245  THR245     -0.1218
    136  CA        -4.5350  -44.0310    6.6940 C.3   245  THR245      0.1862
    137  C         -5.5570  -45.0960    7.1520 C.2   245  THR245      0.2287
    138  O         -6.1060  -45.8210    6.3160 O.2   245  THR245     -0.2866
    139  CB        -3.0560  -44.4380    6.9420 C.3   245  THR245      0.1770
    140  OG1       -2.8970  -45.8460    6.8270 O.3   245  THR245     -0.2211
    141  CG2       -2.5750  -44.0180    8.3310 C.3   245  THR245      0.0375
    142  N         -9.7650  -45.1490    6.1890 N.3   248  ARG248     -0.1245
    143  CA       -10.2180  -45.7880    4.9380 C.3   248  ARG248      0.1563
    144  C        -11.1250  -44.8770    4.1020 C.2   248  ARG248      0.2260
    145  O        -12.2960  -45.1900    3.8510 O.2   248  ARG248     -0.2867
    146  CB       -10.8720  -47.1690    5.1810 C.3   248  ARG248      0.0307
    147  CG       -10.2340  -48.0670    6.2450 C.3   248  ARG248      0.0489
    148  CD        -8.8030  -48.5530    5.9740 C.3   248  ARG248      0.2205
    149  NE        -8.5530  -48.9880    4.5960 N.pl3 248  ARG248     -0.0865
    150  CZ        -7.7910  -48.3380    3.7160 C.cat 248  ARG248      0.5346
    151  NH1       -7.1910  -47.2050    4.0390 N.pl3 248  ARG248      0.1354
    152  NH2       -7.6380  -48.8300    2.4960 N.pl3 248  ARG248      0.1354
    153  N          9.6860  -42.4250    0.0410 N.3   327  TYR327     -0.1241
    154  CA        10.5170  -43.5980   -0.2360 C.3   327  TYR327      0.1605
    155  C         11.7700  -43.2810   -1.0440 C.2   327  TYR327      0.2264
    156  O         11.7540  -42.4300   -1.9390 O.2   327  TYR327     -0.2867
    157  CB         9.7320  -44.6740   -0.9910 C.3   327  TYR327      0.0534
    158  CG         8.3520  -44.9870   -0.4710 C.ar  327  TYR327     -0.0201
    159  CD1        8.1680  -45.5880    0.7780 C.ar  327  TYR327     -0.0009
    160  CD2        7.2200  -44.7050   -1.2490 C.ar  327  TYR327     -0.0009
    161  CE1        6.8980  -45.8820    1.2480 C.ar  327  TYR327      0.0417
    162  CE2        5.9420  -44.9940   -0.7860 C.ar  327  TYR327      0.0417
    163  CZ         5.7910  -45.5810    0.4590 C.ar  327  TYR327      0.1957
    164  OH         4.5360  -45.8660    0.9160 O.3   327  TYR327     -0.2866
@<TRIPOS>BOND
     1    87    88    1
     2    58    57    2
     3    59    60    1
     4    59    56    1
     5    62    60   ar
     6    62    64   ar
     7    57    56    1
     8    88    89    1
     9    88    91    1
    10    90    89    2
    11    60    61   ar
    12    35    34    2
    13    64    65   ar
    14    91    92    1
    15    40    38   ar
    16    40    42   ar
    17    56    55    1
    18    38    37   ar
    19    78    75    1
    20    61    63   ar
    21    65    63   ar
    22    65    66    1
    23    34    33    1
    24    42    41   ar
    25    33    36    1
    26    33    32    1
    27    67    68    1
    28    67    73    1
    29    46    45    2
    30    37    36    1
    31    37    39   ar
    32    92    93   ar
    33    92    94   ar
    34    74    75    1
    35    74    69   am
    36    43    44    1
    37    68    69    1
    38    68    71    1
    39    75    76    1
    40    69    70    2
    41    73    72    1
    42    45    44    1
    43    41    39   ar
    44    82    81    2
    45    44    47    1
    46    71    72    1
    47    76    79   am
    48    76    77    2
    49    47    48    1
    50    81    80    1
    51    95    96    1
    52    79    80    1
    53    50    48   ar
    54    50    52   ar
    55    48    49   ar
    56    80    83    1
    57    23    22    2
    58   101    99    1
    59    96    99    1
    60    96    97    1
    61   102    97   am
    62   102   103    1
    63    29    28    2
    64    99   100    1
    65    83    84    1
    66    52    53   ar
    67   104   103    1
    68   104   105    2
    69    49    51   ar
    70   106   103    1
    71   106   107    1
    72    97    98    2
    73    22    21    1
    74    22    26   am
    75    24    21    1
    76    24    25    1
    77   109   107   ar
    78   109   111   ar
    79    28    27    1
    80    21    20    1
    81   107   108   ar
    82    84    85    2
    83    84    86   am
    84    27    26    1
    85    27    30    1
    86   111   112   ar
    87    53    51   ar
    88    53    54    1
    89   114   115    1
    90   156   155    2
    91    19    18    2
    92    20    18   am
    93   160   162   ar
    94   160   158   ar
    95    30    31    1
    96   108   110   ar
    97   112   110   ar
    98   112   113    1
    99   155   154    1
   100   115   118    1
   101   115   116    1
   102   157   158    1
   103   157   154    1
   104    18    17    1
   105   162   163   ar
   106   118   119    1
   107   158   159   ar
   108   154   153    1
   109     7     9   ar
   110     7     6   ar
   111   117   116    2
   112     1     2    1
   113     2     5    1
   114     2     3    1
   115     9    11   ar
   116     5     6    1
   117   163   164    1
   118   163   161   ar
   119    17    16    1
   120     6     8   ar
   121   159   161   ar
   122     3     4    2
   123    11    10   ar
   124   134   133    1
   125   131   130    1
   126   131   132    1
   127     8    10   ar
   128   130   127    1
   129   132   133    1
   130   152   150    1
   131   126   127    1
   132   126   122   am
   133   127   128    1
   134   120   121    1
   135   124   125    1
   136   124   121    1
   137   128   129    2
   138    15    14    2
   139   121   122    1
   140   150   151    1
   141   150   149    2
   142   122   123    2
   143    13    14    1
   144    13    12    1
   145   145   144    2
   146   144   143    1
   147   149   148    1
   148   143   146    1
   149   143   142    1
   150   146   147    1
   151   148   147    1
   152   138   137    2
   153   136   139    1
   154   136   137    1
   155   136   135    1
   156   140   139    1
   157   139   141    1
