@<TRIPOS>MOLECULE
tmp/5yhvB01.pdb
 107 103 0 0 0
SMALL
GASTEIGER

@<TRIPOS>ATOM
      1  N        -18.0980  -64.0280   22.1390 N.3    79  ASP79      -0.1225
      2  CA       -19.5360  -63.7400   22.0750 C.3    79  ASP79       0.1805
      3  C        -20.3460  -64.9510   21.6080 C.2    79  ASP79       0.2597
      4  O        -21.4650  -65.1660   22.0850 O.2    79  ASP79      -0.2718
      5  CB       -19.8120  -62.5230   21.1820 C.3    79  ASP79       0.1424
      6  CG       -21.2690  -62.0750   21.2270 C.2    79  ASP79       0.3668
      7  OD1      -21.7390  -61.6540   22.3080 O.co2  79  ASP79      -0.2456
      8  OD2      -21.9410  -62.1390   20.1740 O.co2  79  ASP79      -0.2456
      9  N        -19.7730  -65.7250   20.6810 N.am   80  TYR80      -0.1976
     10  CA       -20.3760  -66.9740   20.1960 C.3    80  TYR80       0.1639
     11  C        -20.5300  -68.0120   21.3070 C.2    80  TYR80       0.2290
     12  O        -21.5200  -68.7460   21.3420 O.2    80  TYR80      -0.2864
     13  CB       -19.5730  -67.5580   19.0310 C.3    80  TYR80       0.0560
     14  CG       -19.8760  -66.9150   17.6970 C.ar   80  TYR80      -0.0198
     15  CD1      -20.9930  -67.3060   16.9420 C.ar   80  TYR80      -0.0009
     16  CD2      -19.0460  -65.9130   17.1810 C.ar   80  TYR80      -0.0009
     17  CE1      -21.2730  -66.7080   15.7200 C.ar   80  TYR80       0.0417
     18  CE2      -19.3200  -65.3110   15.9570 C.ar   80  TYR80       0.0417
     19  CZ       -20.4260  -65.7100   15.2330 C.ar   80  TYR80       0.1957
     20  OH       -20.6880  -65.1130   14.0270 O.3    80  TYR80      -0.2866
     21  N        -24.3040  -67.9800   22.7320 N.3    84  HIS84      -0.1241
     22  CA       -24.8810  -69.0490   21.8930 C.3    84  HIS84       0.1621
     23  C        -24.2450  -70.4380   22.0520 C.2    84  HIS84       0.2264
     24  O        -24.6300  -71.3830   21.3540 O.2    84  HIS84      -0.2867
     25  CB       -24.8960  -68.6150   20.4220 C.3    84  HIS84       0.0745
     26  CG       -25.2440  -67.1740   20.2320 C.ar   84  HIS84       0.0817
     27  ND1      -26.5320  -66.6980   20.3470 N.ar   84  HIS84      -0.2268
     28  CD2      -24.4630  -66.0960   19.9850 C.ar   84  HIS84       0.1154
     29  CE1      -26.5330  -65.3910   20.1590 C.ar   84  HIS84       0.1986
     30  NE2      -25.2910  -65.0000   19.9340 N.ar   84  HIS84      -0.2212
     31  N        -21.3860  -71.8970   21.2940 N.3    86  ILE86      -0.1245
     32  CA       -20.5510  -72.5020   20.2490 C.3    86  ILE86       0.1561
     33  C        -19.1130  -72.0070   20.4100 C.2    86  ILE86       0.2260
     34  O        -18.8830  -70.8090   20.5820 O.2    86  ILE86      -0.2867
     35  CB       -21.1170  -72.2810   18.8030 C.3    86  ILE86       0.0252
     36  CG1      -20.0440  -72.7470   17.7480 C.3    86  ILE86       0.0019
     37  CG2      -21.4880  -70.8120   18.5100 C.3    86  ILE86       0.0019
     38  CD1      -20.7380  -72.8660   16.3560 C.3    86  ILE86       0.0001
     39  N        -25.9630  -63.9280    8.4150 N.3   202  GLU202     -0.1245
     40  CA       -26.4670  -63.9280    9.7810 C.3   202  GLU202      0.1567
     41  C        -26.4430  -62.5030   10.3590 C.2   202  GLU202      0.2260
     42  O        -26.3680  -62.3010   11.5750 O.2   202  GLU202     -0.2867
     43  CB       -25.6580  -64.9220   10.6260 C.3   202  GLU202      0.0388
     44  CG       -25.7400  -66.3660   10.1250 C.3   202  GLU202      0.1160
     45  CD       -25.0050  -67.3640   10.9960 C.2   202  GLU202      0.3649
     46  OE1      -24.5800  -67.0010   12.1200 O.co2 202  GLU202     -0.2457
     47  OE2      -24.8440  -68.5260   10.5470 O.co2 202  GLU202     -0.2457
     48  N        -29.0810  -61.3900   13.0680 N.3   205  HIS205     -0.1241
     49  CA       -29.0350  -62.1080   14.3450 C.3   205  HIS205      0.1621
     50  C        -29.0200  -61.1210   15.5090 C.2   205  HIS205      0.2264
     51  O        -28.3610  -60.0770   15.4460 O.2   205  HIS205     -0.2867
     52  CB       -27.7970  -63.0000   14.4130 C.3   205  HIS205      0.0745
     53  CG       -27.9490  -64.3150   13.7130 C.ar  205  HIS205      0.0817
     54  ND1      -27.3420  -65.4670   14.1620 N.ar  205  HIS205     -0.2268
     55  CD2      -28.6420  -64.6650   12.6050 C.ar  205  HIS205      0.1154
     56  CE1      -27.6480  -66.4710   13.3580 C.ar  205  HIS205      0.1986
     57  NE2      -28.4340  -66.0100   12.4030 N.ar  205  HIS205     -0.2212
     58  N        -33.0700  -68.5310   16.1390 N.3   215  THR215     -0.1203
     59  CA       -32.0060  -68.3540   15.1620 C.3   215  THR215      0.1994
     60  C        -30.8580  -69.2750   15.5490 C.2   215  THR215      0.2619
     61  O        -30.6980  -69.6390   16.7210 O.2   215  THR215     -0.2717
     62  CB       -31.5150  -66.9020   15.0340 C.3   215  THR215      0.1784
     63  OG1      -31.0710  -66.4300   16.3090 O.3   215  THR215     -0.2211
     64  CG2      -32.5790  -65.9900   14.4130 C.3   215  THR215      0.0376
     65  N        -30.0750  -69.6510   14.5490 N.am  216  SER216     -0.1937
     66  CA       -28.9380  -70.5480   14.7370 C.3   216  SER216      0.2055
     67  C        -27.8110  -70.1990   13.7800 C.2   216  SER216      0.2643
     68  O        -28.0450  -69.6680   12.6910 O.2   216  SER216     -0.2714
     69  CB       -29.3650  -72.0090   14.5740 C.3   216  SER216      0.2130
     70  OG       -30.0680  -72.2090   13.3580 O.3   216  SER216     -0.2179
     71  N        -26.5850  -70.4700   14.2230 N.am  217  CYS217     -0.1967
     72  CA       -25.4090  -70.2810   13.3970 C.3   217  CYS217      0.1712
     73  C        -25.1770  -71.5310   12.5550 C.2   217  CYS217      0.2296
     74  O        -25.3570  -72.6550   13.0400 O.2   217  CYS217     -0.2864
     75  CB       -24.1810  -69.9830   14.2490 C.3   217  CYS217      0.0983
     76  SG       -22.6900  -69.6840   13.2710 S.3   217  CYS217     -0.0798
     77  N        -23.0550  -74.4090   13.8830 N.3   220  GLN220     -0.1245
     78  CA       -23.6230  -75.4110   14.7920 C.3   220  GLN220      0.1566
     79  C        -23.7100  -76.7760   14.1110 C.2   220  GLN220      0.2260
     80  O        -23.5890  -77.8050   14.7740 O.2   220  GLN220     -0.2867
     81  CB       -24.9920  -74.9790   15.3170 C.3   220  GLN220      0.0367
     82  CG       -24.9220  -73.8280   16.3120 C.3   220  GLN220      0.0905
     83  CD       -26.2810  -73.3750   16.8150 C.2   220  GLN220      0.2608
     84  OE1      -26.6140  -72.1910   16.7510 O.2   220  GLN220     -0.2717
     85  NE2      -27.0710  -74.3130   17.3310 N.am  220  GLN220     -0.0878
     86  N        -21.5800  -61.7620    9.0210 N.3   229  ASN229     -0.1240
     87  CA       -22.2730  -60.9780   10.0400 C.3   229  ASN229      0.1653
     88  C        -21.7500  -59.5390   10.0600 C.2   229  ASN229      0.2266
     89  O        -20.7390  -59.2290    9.4210 O.2   229  ASN229     -0.2867
     90  CB       -22.1340  -61.6420   11.4130 C.3   229  ASN229      0.1155
     91  CG       -23.3620  -61.4500   12.2960 C.2   229  ASN229      0.2627
     92  OD1      -23.9980  -60.3880   12.3040 O.2   229  ASN229     -0.2716
     93  ND2      -23.6980  -62.4870   13.0560 N.am  229  ASN229     -0.0877
     94  N        -17.8410  -58.9480   10.2270 N.3   244  TRP244     -0.1241
     95  CA       -16.9150  -60.0750   10.3080 C.3   244  TRP244      0.1605
     96  C        -17.3710  -61.3170    9.5480 C.2   244  TRP244      0.2264
     97  O        -18.5530  -61.4650    9.2220 O.2   244  TRP244     -0.2867
     98  CB       -16.5840  -60.4220   11.7680 C.3   244  TRP244      0.0550
     99  CG       -17.6840  -61.1100   12.5210 C.ar  244  TRP244      0.0003
    100  CD1      -17.8860  -62.4600   12.6290 C.ar  244  TRP244      0.0946
    101  CD2      -18.7240  -60.4870   13.2810 C.ar  244  TRP244      0.0152
    102  NE1      -18.9890  -62.7160   13.4060 N.ar  244  TRP244     -0.2442
    103  CE2      -19.5220  -61.5250   13.8240 C.ar  244  TRP244      0.0810
    104  CE3      -19.0610  -59.1540   13.5590 C.ar  244  TRP244      0.0012
    105  CZ2      -20.6420  -61.2690   14.6350 C.ar  244  TRP244      0.0191
    106  CZ3      -20.1750  -58.8980   14.3660 C.ar  244  TRP244      0.0001
    107  CH2      -20.9530  -59.9550   14.8920 C.ar  244  TRP244      0.0015
@<TRIPOS>BOND
     1    39    40    1
     2    86    87    1
     3    97    96    2
     4    89    88    2
     5    96    95    1
     6    40    41    1
     7    40    43    1
     8    87    88    1
     9    87    90    1
    10    44    43    1
    11    44    45    1
    12    94    95    1
    13    95    98    1
    14    41    42    2
    15    47    45   ar
    16    45    46   ar
    17    90    91    1
    18    98    99    1
    19    91    92    2
    20    91    93   am
    21    57    55   ar
    22    57    56   ar
    23    99   100   ar
    24    99   101   ar
    25    73    74    2
    26    73    72    1
    27    55    53   ar
    28   100   102   ar
    29    68    67    2
    30    48    49    1
    31    76    75    1
    32   101   104   ar
    33   101   103   ar
    34    70    69    1
    35    56    54   ar
    36    72    71    1
    37    72    75    1
    38   102   103   ar
    39   104   106   ar
    40    53    54   ar
    41    53    52    1
    42    67    71   am
    43    67    66    1
    44   103   105   ar
    45    77    78    1
    46    20    19    1
    47    79    80    2
    48    79    78    1
    49    49    52    1
    50    49    50    1
    51   106   107   ar
    52    64    62    1
    53    65    66    1
    54    65    60   am
    55    69    66    1
    56   105   107   ar
    57    78    81    1
    58    62    59    1
    59    62    63    1
    60    59    60    1
    61    59    58    1
    62    19    17   ar
    63    19    18   ar
    64    81    82    1
    65    51    50    2
    66    60    61    2
    67    17    15   ar
    68    18    16   ar
    69    82    83    1
    70    38    36    1
    71    84    83    2
    72    83    85   am
    73    15    14   ar
    74    16    14   ar
    75    14    13    1
    76    36    35    1
    77    37    35    1
    78    35    32    1
    79    13    10    1
    80    30    28   ar
    81    30    29   ar
    82    28    26   ar
    83    29    27   ar
    84     8     6   ar
    85    10     9    1
    86    10    11    1
    87    26    27   ar
    88    26    25    1
    89    32    33    1
    90    32    31    1
    91    33    34    2
    92    25    22    1
    93     9     3   am
    94     5     6    1
    95     5     2    1
    96     6     7   ar
    97    11    12    2
    98    24    23    2
    99     3     2    1
   100     3     4    2
   101    22    23    1
   102    22    21    1
   103     2     1    1
