@<TRIPOS>MOLECULE
tmp/5yhvA00.pdb
 140 138 0 0 0
SMALL
GASTEIGER

@<TRIPOS>ATOM
      1  N        -10.9990  -27.8890   -3.9280 N.3    86  ASP86      -0.1225
      2  CA        -9.5610  -28.0250   -3.6730 C.3    86  ASP86       0.1805
      3  C         -8.7470  -28.0860   -4.9670 C.2    86  ASP86       0.2597
      4  O         -7.6330  -27.5570   -5.0210 O.2    86  ASP86      -0.2718
      5  CB        -9.2760  -29.2480   -2.7920 C.3    86  ASP86       0.1424
      6  CG        -7.8240  -29.3340   -2.3470 C.2    86  ASP86       0.3668
      7  OD1       -7.3660  -28.4370   -1.6110 O.co2  86  ASP86      -0.2456
      8  OD2       -7.1450  -30.3090   -2.7330 O.co2  86  ASP86      -0.2456
      9  N         -9.3100  -28.7290   -5.9920 N.am   87  TYR87      -0.1976
     10  CA        -8.7050  -28.7930   -7.3310 C.3    87  TYR87       0.1639
     11  C         -8.5660  -27.4120   -7.9690 C.2    87  TYR87       0.2290
     12  O         -7.5780  -27.1410   -8.6570 O.2    87  TYR87      -0.2864
     13  CB        -9.4980  -29.7250   -8.2530 C.3    87  TYR87       0.0560
     14  CG        -9.1830  -31.1910   -8.0580 C.ar   87  TYR87      -0.0198
     15  CD1       -8.0640  -31.7760   -8.6660 C.ar   87  TYR87      -0.0009
     16  CD2      -10.0050  -32.0020   -7.2680 C.ar   87  TYR87      -0.0009
     17  CE1       -7.7710  -33.1230   -8.4870 C.ar   87  TYR87       0.0417
     18  CE2       -9.7280  -33.3510   -7.0880 C.ar   87  TYR87       0.0417
     19  CZ        -8.6100  -33.9040   -7.6930 C.ar   87  TYR87       0.1957
     20  OH        -8.3360  -35.2350   -7.5010 O.3    87  TYR87      -0.2866
     21  N         -6.1250  -24.9140   -5.2410 N.3    90  ARG90      -0.1231
     22  CA        -4.7170  -25.2890   -5.1610 C.3    90  ARG90       0.1694
     23  C         -4.0440  -25.5410   -6.5140 C.2    90  ARG90       0.2592
     24  O         -2.8450  -25.2900   -6.6570 O.2    90  ARG90      -0.2718
     25  CB        -4.5360  -26.5770   -4.3050 C.3    90  ARG90       0.0321
     26  CG        -4.9730  -26.2910   -2.8720 C.3    90  ARG90       0.0489
     27  CD        -3.8470  -25.6050   -2.1350 C.3    90  ARG90       0.2205
     28  NE        -2.8040  -26.6460   -2.1810 N.pl3  90  ARG90      -0.0865
     29  CZ        -2.6010  -27.6810   -1.3600 C.cat  90  ARG90       0.5346
     30  NH1       -3.3140  -27.8430   -0.2560 N.pl3  90  ARG90       0.1354
     31  NH2       -1.5760  -28.5080   -1.6180 N.pl3  90  ARG90       0.1354
     32  N         -4.8050  -26.0350   -7.4930 N.am   91  HIS91      -0.1976
     33  CA        -4.2230  -26.4940   -8.7730 C.3    91  HIS91       0.1656
     34  C         -4.8660  -25.9130  -10.0430 C.2    91  HIS91       0.2291
     35  O         -4.4760  -26.2720  -11.1570 O.2    91  HIS91      -0.2864
     36  CB        -4.1910  -28.0250   -8.8200 C.3    91  HIS91       0.0771
     37  CG        -3.8390  -28.6520   -7.5090 C.ar   91  HIS91       0.0820
     38  ND1       -2.5520  -28.6770   -7.0160 N.ar   91  HIS91      -0.2267
     39  CD2       -4.6160  -29.2310   -6.5630 C.ar   91  HIS91       0.1154
     40  CE1       -2.5490  -29.2600   -5.8310 C.ar   91  HIS91       0.1986
     41  NE2       -3.7890  -29.6040   -5.5330 N.ar   91  HIS91      -0.2212
     42  N         -2.9940  -40.8720   -8.1130 N.3   209  GLU209     -0.1245
     43  CA        -2.5160  -39.5610   -7.6860 C.3   209  GLU209      0.1567
     44  C         -2.5370  -39.4620   -6.1510 C.2   209  GLU209      0.2260
     45  O         -2.6340  -38.3780   -5.5820 O.2   209  GLU209     -0.2867
     46  CB        -3.3410  -38.4650   -8.3710 C.3   209  GLU209      0.0388
     47  CG        -3.2510  -38.4870   -9.8960 C.3   209  GLU209      0.1160
     48  CD        -4.0010  -37.3610  -10.5820 C.2   209  GLU209      0.3649
     49  OE1       -4.4470  -36.4170   -9.8960 O.co2 209  GLU209     -0.2457
     50  OE2       -4.1500  -37.4220  -11.8230 O.co2 209  GLU209     -0.2457
     51  N          0.0460  -37.1800   -4.2380 N.3   212  HIS212     -0.1226
     52  CA        -0.0340  -35.7440   -4.5180 C.3   212  HIS212      0.1752
     53  C         -0.0590  -34.9440   -3.2200 C.2   212  HIS212      0.2596
     54  O         -0.7060  -35.3420   -2.2480 O.2   212  HIS212     -0.2718
     55  CB        -1.2790  -35.4370   -5.3420 C.3   212  HIS212      0.0759
     56  CG        -1.1200  -35.6750   -6.8110 C.ar  212  HIS212      0.0818
     57  ND1       -1.7470  -34.9000   -7.7620 N.ar  212  HIS212     -0.2268
     58  CD2       -0.4040  -36.6000   -7.4920 C.ar  212  HIS212      0.1154
     59  CE1       -1.4250  -35.3410   -8.9650 C.ar  212  HIS212      0.1986
     60  NE2       -0.6100  -36.3710   -8.8290 N.ar  212  HIS212     -0.2212
     61  N          0.6680  -33.8300   -3.2110 N.am  213  GLY213     -0.1957
     62  CA         0.8380  -33.0200   -2.0030 C.3   213  GLY213      0.1869
     63  C          2.1300  -33.3300   -1.2680 C.2   213  GLY213      0.2309
     64  O          2.6050  -32.5190   -0.4670 O.2   213  GLY213     -0.2863
     65  N          3.9390  -31.8820  -10.0670 N.3   222  THR222     -0.1218
     66  CA         2.9220  -32.9100  -10.1010 C.3   222  THR222      0.1862
     67  C          1.7240  -32.3120  -10.8610 C.2   222  THR222      0.2287
     68  O          1.5170  -31.0830  -10.8390 O.2   222  THR222     -0.2866
     69  CB         2.6250  -33.2950   -8.6210 C.3   222  THR222      0.1770
     70  OG1        2.3880  -34.6990   -8.4210 O.3   222  THR222     -0.2211
     71  CG2        1.6100  -32.3980   -8.0050 C.3   222  THR222      0.0375
     72  N         -2.4800  -33.2920  -12.5190 N.3   224  CYS224     -0.1235
     73  CA        -3.6390  -34.1580  -12.6010 C.3   224  CYS224      0.1677
     74  C         -3.8510  -34.5730  -14.0550 C.2   224  CYS224      0.2270
     75  O         -3.6780  -33.7600  -14.9710 O.2   224  CYS224     -0.2867
     76  CB        -4.8810  -33.4590  -12.0610 C.3   224  CYS224      0.0956
     77  SG        -6.3450  -34.5040  -12.0860 S.3   224  CYS224     -0.0801
     78  N         -7.3780  -41.0330   -5.8750 N.3   236  ASN236     -0.1225
     79  CA        -6.6940  -40.3020   -4.8080 C.3   236  ASN236      0.1785
     80  C         -7.2090  -40.7420   -3.4360 C.2   236  ASN236      0.2597
     81  O         -8.2120  -41.4500   -3.3410 O.2   236  ASN236     -0.2718
     82  CB        -6.8550  -38.7870   -5.0100 C.3   236  ASN236      0.1169
     83  CG        -5.6400  -37.9950   -4.5520 C.2   236  ASN236      0.2627
     84  OD1       -4.9990  -38.3110   -3.5410 O.2   236  ASN236     -0.2716
     85  ND2       -5.3180  -36.9440   -5.3040 N.am  236  ASN236     -0.0877
     86  N         -6.5220  -40.3140   -2.3810 N.am  237  SER237     -0.1952
     87  CA        -6.8020  -40.7750   -1.0240 C.3   237  SER237      0.1924
     88  C         -6.5130  -39.7250    0.0410 C.2   237  SER237      0.2314
     89  O         -5.7930  -38.7600   -0.2070 O.2   237  SER237     -0.2863
     90  CB        -5.9850  -42.0360   -0.7280 C.3   237  SER237      0.2116
     91  OG        -6.2850  -42.5440    0.5590 O.3   237  SER237     -0.2180
     92  N         -1.2150  -37.9090    2.2280 N.3   241  TYR241     -0.1227
     93  CA        -0.9920  -36.4860    2.4470 C.3   241  TYR241      0.1736
     94  C         -1.6700  -36.0140    3.7310 C.2   241  TYR241      0.2595
     95  O         -1.0630  -35.2940    4.5190 O.2   241  TYR241     -0.2718
     96  CB        -1.4220  -35.6510    1.2420 C.3   241  TYR241      0.0548
     97  CG        -1.3210  -34.1600    1.4790 C.ar  241  TYR241     -0.0200
     98  CD1       -0.0750  -33.5300    1.6130 C.ar  241  TYR241     -0.0009
     99  CD2       -2.4740  -33.3760    1.5780 C.ar  241  TYR241     -0.0009
    100  CE1        0.0150  -32.1610    1.8380 C.ar  241  TYR241      0.0417
    101  CE2       -2.3930  -32.0060    1.8000 C.ar  241  TYR241      0.0417
    102  CZ        -1.1490  -31.4060    1.9280 C.ar  241  TYR241      0.1957
    103  OH        -1.0730  -30.0540    2.1470 O.3   241  TYR241     -0.2866
    104  N         -2.9100  -36.4490    3.9390 N.am  242  TYR242     -0.1976
    105  CA        -3.6680  -36.0890    5.1340 C.3   242  TYR242      0.1639
    106  C         -3.5220  -37.0710    6.2920 C.2   242  TYR242      0.2290
    107  O         -4.1850  -36.9190    7.3180 O.2   242  TYR242     -0.2864
    108  CB        -5.1400  -35.8480    4.7890 C.3   242  TYR242      0.0560
    109  CG        -5.3690  -34.5210    4.1110 C.ar  242  TYR242     -0.0198
    110  CD1       -5.1150  -33.3190    4.7830 C.ar  242  TYR242     -0.0009
    111  CD2       -5.8360  -34.4590    2.7930 C.ar  242  TYR242     -0.0009
    112  CE1       -5.3130  -32.0970    4.1610 C.ar  242  TYR242      0.0417
    113  CE2       -6.0480  -33.2380    2.1620 C.ar  242  TYR242      0.0417
    114  CZ        -5.7850  -32.0620    2.8510 C.ar  242  TYR242      0.1957
    115  OH        -5.9850  -30.8420    2.2450 O.3   242  TYR242     -0.2866
    116  N        -11.1180  -40.7910   -2.8290 N.3   251  TRP251     -0.1241
    117  CA       -12.0460  -40.3770   -3.8790 C.3   251  TRP251      0.1605
    118  C        -11.5820  -40.7080   -5.2940 C.2   251  TRP251      0.2264
    119  O        -10.4030  -40.9580   -5.5330 O.2   251  TRP251     -0.2867
    120  CB       -12.3980  -38.8840   -3.7520 C.3   251  TRP251      0.0550
    121  CG       -11.3080  -37.9410   -4.1690 C.ar  251  TRP251      0.0003
    122  CD1      -11.1120  -37.4160   -5.4140 C.ar  251  TRP251      0.0946
    123  CD2      -10.2760  -37.4010   -3.3400 C.ar  251  TRP251      0.0152
    124  NE1      -10.0190  -36.5840   -5.4150 N.ar  251  TRP251     -0.2442
    125  CE2       -9.4880  -36.5520   -4.1530 C.ar  251  TRP251      0.0810
    126  CE3       -9.9350  -37.5510   -1.9850 C.ar  251  TRP251      0.0012
    127  CZ2       -8.3770  -35.8500   -3.6550 C.ar  251  TRP251      0.0191
    128  CZ3       -8.8300  -36.8560   -1.4890 C.ar  251  TRP251      0.0001
    129  CH2       -8.0660  -36.0170   -2.3240 C.ar  251  TRP251      0.0015
    130  N         -9.7190  -29.7220    4.7310 N.3   285  PHE285     -0.1241
    131  CA        -9.5200  -28.6100    3.8080 C.3   285  PHE285      0.1605
    132  C         -9.5070  -27.2420    4.5010 C.2   285  PHE285      0.2264
    133  O         -9.6380  -26.2010    3.8490 O.2   285  PHE285     -0.2867
    134  CB       -10.5350  -28.6980    2.6610 C.3   285  PHE285      0.0534
    135  CG       -10.4390  -29.9820    1.8820 C.ar  285  PHE285     -0.0203
    136  CD1       -9.4520  -30.1530    0.9040 C.ar  285  PHE285     -0.0042
    137  CD2      -11.3210  -31.0360    2.1400 C.ar  285  PHE285     -0.0042
    138  CE1       -9.3560  -31.3480    0.1970 C.ar  285  PHE285     -0.0003
    139  CE2      -11.2250  -32.2330    1.4340 C.ar  285  PHE285     -0.0003
    140  CZ       -10.2410  -32.3910    0.4670 C.ar  285  PHE285     -0.0000
@<TRIPOS>BOND
     1    75    74    2
     2    74    73    1
     3    73    72    1
     4    73    76    1
     5    77    76    1
     6    50    48   ar
     7    35    34    2
     8    67    68    2
     9    67    66    1
    10    48    49   ar
    11    48    47    1
    12    66    65    1
    13    66    69    1
    14    34    33    1
    15    47    46    1
    16    59    60   ar
    17    59    57   ar
    18    60    58   ar
    19    36    33    1
    20    36    37    1
    21    33    32    1
    22    15    17   ar
    23    15    14   ar
    24    12    11    2
    25    69    70    1
    26    69    71    1
    27    17    19   ar
    28    46    43    1
    29    13    14    1
    30    13    10    1
    31    42    43    1
    32    14    16   ar
    33    11    10    1
    34    57    56   ar
    35    19    20    1
    36    19    18   ar
    37    43    44    1
    38    37    38   ar
    39    37    39   ar
    40    32    23   am
    41    58    56   ar
    42    10     9    1
    43    16    18   ar
    44    38    40   ar
    45    56    55    1
    46    24    23    2
    47    39    41   ar
    48    23    22    1
    49    44    45    2
    50     9     3   am
    51    78    79    1
    52    40    41   ar
    53   119   118    2
    54   124   122   ar
    55   124   125   ar
    56   122   121   ar
    57    55    52    1
    58    85    83   am
    59   118   117    1
    60    21    22    1
    61    22    25    1
    62     4     3    2
    63    82    79    1
    64    82    83    1
    65     3     2    1
    66    79    80    1
    67    83    84    2
    68    52    51    1
    69    52    53    1
    70    25    26    1
    71   121   120    1
    72   121   123   ar
    73   125   127   ar
    74   125   123   ar
    75     1     2    1
    76   117   120    1
    77   117   116    1
    78     2     5    1
    79   127   129   ar
    80    80    81    2
    81    80    86   am
    82   123   126   ar
    83    53    61   am
    84    53    54    2
    85    61    62    1
    86    26    27    1
    87     5     6    1
    88     8     6   ar
    89    86    87    1
    90     6     7   ar
    91   129   128   ar
    92    28    27    1
    93    28    29    2
    94    62    63    1
    95   126   128   ar
    96    31    29    1
    97    29    30    1
    98    63    64    2
    99    87    90    1
   100    87    88    1
   101    90    91    1
   102    89    88    2
   103   138   140   ar
   104   138   136   ar
   105   140   139   ar
   106   136   135   ar
   107    96    97    1
   108    96    93    1
   109   139   137   ar
   110    97    99   ar
   111    97    98   ar
   112    99   101   ar
   113    98   100   ar
   114   101   102   ar
   115   100   102   ar
   116   135   137   ar
   117   135   134    1
   118   102   103    1
   119   113   111   ar
   120   113   114   ar
   121    92    93    1
   122   115   114    1
   123    93    94    1
   124   134   131    1
   125   111   109   ar
   126   114   112   ar
   127    94   104   am
   128    94    95    2
   129   131   132    1
   130   131   130    1
   131   133   132    2
   132   104   105    1
   133   109   110   ar
   134   109   108    1
   135   112   110   ar
   136   108   105    1
   137   105   106    1
   138   106   107    2
