@<TRIPOS>MOLECULE
tmp/5yhwD04.pdb
 115 116 0 0 0
SMALL
GASTEIGER

@<TRIPOS>ATOM
      1  N        -21.5770   48.9800   62.9390 N.3    41  TYR41      -0.1227
      2  CA       -21.8230   49.5330   61.6110 C.3    41  TYR41       0.1736
      3  C        -20.6200   50.3120   61.0900 C.2    41  TYR41       0.2595
      4  O        -20.4060   50.3900   59.8760 O.2    41  TYR41      -0.2718
      5  CB       -23.0680   50.4240   61.6500 C.3    41  TYR41       0.0548
      6  CG       -23.4400   51.0780   60.3330 C.ar   41  TYR41      -0.0200
      7  CD1      -23.3610   50.3830   59.1350 C.ar   41  TYR41      -0.0009
      8  CD2      -23.8990   52.3840   60.2960 C.ar   41  TYR41      -0.0009
      9  CE1      -23.7050   50.9820   57.9430 C.ar   41  TYR41       0.0417
     10  CE2      -24.2530   52.9850   59.1090 C.ar   41  TYR41       0.0417
     11  CZ       -24.1530   52.2830   57.9370 C.ar   41  TYR41       0.1957
     12  OH       -24.5010   52.8870   56.7530 O.3    41  TYR41      -0.2866
     13  N        -19.8220   50.8840   61.9870 N.am   42  TYR42      -0.1962
     14  CA       -18.6230   51.6120   61.6050 C.3    42  TYR42       0.1771
     15  C        -17.4270   50.6970   61.3550 C.2    42  TYR42       0.2619
     16  O        -16.3500   51.1920   61.0060 O.2    42  TYR42      -0.2715
     17  CB       -18.2990   52.6520   62.6790 C.3    42  TYR42       0.0574
     18  CG       -19.3330   53.7580   62.7660 C.ar   42  TYR42      -0.0198
     19  CD1      -20.4780   53.6160   63.5440 C.ar   42  TYR42      -0.0009
     20  CD2      -19.1700   54.9390   62.0580 C.ar   42  TYR42      -0.0009
     21  CE1      -21.4260   54.6290   63.6140 C.ar   42  TYR42       0.0417
     22  CE2      -20.1070   55.9500   62.1220 C.ar   42  TYR42       0.0417
     23  CZ       -21.2310   55.7940   62.8970 C.ar   42  TYR42       0.1957
     24  OH       -22.1530   56.8200   62.9490 O.3    42  TYR42      -0.2866
     25  N        -17.5910   49.3820   61.5110 N.am   43  VAL43      -0.1977
     26  CA       -16.5660   48.4120   61.1530 C.3    43  VAL43       0.1596
     27  C        -17.0760   47.4090   60.1270 C.2    43  VAL43       0.2287
     28  O        -16.3650   47.0720   59.1730 O.2    43  VAL43      -0.2864
     29  CB       -16.0280   47.6880   62.4050 C.3    43  VAL43       0.0276
     30  CG1      -15.2760   46.4320   62.0280 C.3    43  VAL43       0.0022
     31  CG2      -15.1230   48.6130   63.1800 C.3    43  VAL43       0.0022
     32  N        -19.8180   47.5230   57.4660 N.3    45  PRO45      -0.2116
     33  CA       -20.7970   48.4470   56.8750 C.3    45  PRO45       0.1372
     34  C        -22.1280   47.8070   56.5070 C.2    45  PRO45       0.2244
     35  O        -23.0820   48.5420   56.2360 O.2    45  PRO45      -0.2868
     36  CB       -20.0740   48.9730   55.6310 C.3    45  PRO45       0.0268
     37  CG       -19.1110   47.9230   55.2960 C.3    45  PRO45       0.0207
     38  CD       -18.6460   47.3450   56.6000 C.3    45  PRO45       0.0892
     39  N        -15.3420   43.2380   68.3770 N.3   252  HIS252     -0.1226
     40  CA       -14.2540   43.7210   67.5380 C.3   252  HIS252      0.1752
     41  C        -13.5750   44.9070   68.2140 C.2   252  HIS252      0.2596
     42  O        -14.2410   45.8560   68.6420 O.2   252  HIS252     -0.2718
     43  CB       -14.7950   44.1160   66.1640 C.3   252  HIS252      0.0759
     44  CG       -13.7340   44.3860   65.1460 C.ar  252  HIS252      0.0818
     45  ND1      -13.3080   45.6580   64.8370 N.ar  252  HIS252     -0.2268
     46  CD2      -13.0200   43.5470   64.3590 C.ar  252  HIS252      0.1154
     47  CE1      -12.3710   45.5930   63.9080 C.ar  252  HIS252      0.1986
     48  NE2      -12.1790   44.3220   63.5990 N.ar  252  HIS252     -0.2212
     49  N        -12.2420   44.8470   68.3110 N.am  253  LYS253     -0.1966
     50  CA       -11.5200   45.8160   69.1290 C.3   253  LYS253      0.1728
     51  C        -11.6920   47.2370   68.6120 C.2   253  LYS253      0.2616
     52  O        -11.7410   48.1800   69.4080 O.2   253  LYS253     -0.2715
     53  CB       -10.0400   45.4360   69.2160 C.3   253  LYS253      0.0311
     54  CG        -9.1800   45.8530   68.0350 C.3   253  LYS253      0.0038
     55  CD        -9.2500   44.8670   66.8750 C.3   253  LYS253      0.0206
     56  CE        -8.3050   45.2870   65.7500 C.3   253  LYS253      0.1093
     57  NZ        -8.2750   44.2990   64.6400 N.3   253  LYS253     -0.1314
     58  N        -11.8140   47.4150   67.2970 N.am  254  VAL254     -0.1977
     59  CA       -12.0620   48.7520   66.7670 C.3   254  VAL254      0.1596
     60  C        -13.5320   49.1210   66.8930 C.2   254  VAL254      0.2287
     61  O        -13.8680   50.2990   67.0380 O.2   254  VAL254     -0.2864
     62  CB       -11.5860   48.8570   65.3080 C.3   254  VAL254      0.0276
     63  CG1      -11.7660   50.2760   64.7800 C.3   254  VAL254      0.0022
     64  CG2      -10.1360   48.4270   65.1910 C.3   254  VAL254      0.0022
     65  N        -11.8750   59.0970   61.5380 N.3   324  ARG324     -0.1245
     66  CA       -11.1890   57.8400   61.8400 C.3   324  ARG324      0.1563
     67  C         -9.8970   58.0500   62.6350 C.2   324  ARG324      0.2260
     68  O         -8.9830   57.2260   62.5740 O.2   324  ARG324     -0.2867
     69  CB       -10.9080   57.0410   60.5620 C.3   324  ARG324      0.0307
     70  CG       -10.9320   55.5340   60.7430 C.3   324  ARG324      0.0489
     71  CD       -12.3430   55.0080   60.8040 C.3   324  ARG324      0.2205
     72  NE       -12.3640   53.5930   61.1510 N.pl3 324  ARG324     -0.0865
     73  CZ       -13.4390   52.8190   61.0740 C.cat 324  ARG324      0.5346
     74  NH1      -14.5870   53.3170   60.6480 N.pl3 324  ARG324      0.1354
     75  NH2      -13.3600   51.5450   61.4170 N.pl3 324  ARG324      0.1354
     76  N         -9.1460   57.3510   65.6870 N.3   326  LEU326     -0.1231
     77  CA        -9.6430   56.5940   66.8260 C.3   326  LEU326      0.1693
     78  C         -8.5280   56.3690   67.8430 C.2   326  LEU326      0.2592
     79  O         -7.3500   56.6050   67.5780 O.2   326  LEU326     -0.2718
     80  CB       -10.2250   55.2560   66.3690 C.3   326  LEU326      0.0284
     81  CG       -11.1220   55.3210   65.1360 C.3   326  LEU326      0.0019
     82  CD1      -11.5530   53.9290   64.7110 C.3   326  LEU326      0.0001
     83  CD2      -12.3300   56.2080   65.3790 C.3   326  LEU326      0.0001
     84  N         -8.9140   55.9090   69.0290 N.am  327  TYR327     -0.1962
     85  CA        -7.9250   55.5530   70.0360 C.3   327  TYR327      0.1771
     86  C         -7.1090   54.3760   69.5330 C.2   327  TYR327      0.2619
     87  O         -7.6650   53.3380   69.1720 O.2   327  TYR327     -0.2715
     88  CB        -8.6000   55.2030   71.3650 C.3   327  TYR327      0.0574
     89  CG        -9.4320   56.3150   71.9790 C.ar  327  TYR327     -0.0198
     90  CD1       -9.2400   57.6390   71.6160 C.ar  327  TYR327     -0.0009
     91  CD2      -10.4020   56.0350   72.9310 C.ar  327  TYR327     -0.0009
     92  CE1       -9.9990   58.6510   72.1770 C.ar  327  TYR327      0.0417
     93  CE2      -11.1660   57.0390   73.4960 C.ar  327  TYR327      0.0417
     94  CZ       -10.9610   58.3440   73.1150 C.ar  327  TYR327      0.1957
     95  OH       -11.7200   59.3440   73.6760 O.3   327  TYR327     -0.2866
     96  N         -5.7950   54.5380   69.4920 N.am  328  LYS328     -0.1963
     97  CA        -4.9390   53.4640   69.0160 C.3   328  LYS328      0.1728
     98  C         -5.0270   52.2750   69.9610 C.2   328  LYS328      0.2616
     99  O         -5.0020   52.4320   71.1830 O.2   328  LYS328     -0.2715
    100  CB        -3.4950   53.9450   68.8860 C.3   328  LYS328      0.0311
    101  CG        -3.3310   55.1970   68.0340 C.3   328  LYS328      0.0038
    102  CD        -3.6100   54.9230   66.5640 C.3   328  LYS328      0.0206
    103  CE        -3.5240   56.1820   65.7200 C.3   328  LYS328      0.1093
    104  NZ        -4.7870   56.9720   65.7440 N.3   328  LYS328     -0.1314
    105  N         -5.1590   51.0850   69.3940 N.am  329  PHE329     -0.1974
    106  CA        -5.2090   49.8740   70.1990 C.3   329  PHE329      0.1639
    107  C         -3.8170   49.5580   70.7270 C.2   329  PHE329      0.2290
    108  O         -2.8770   49.3690   69.9480 O.2   329  PHE329     -0.2864
    109  CB        -5.7510   48.7140   69.3710 C.3   329  PHE329      0.0560
    110  CG        -5.6960   47.3880   70.0710 C.ar  329  PHE329     -0.0200
    111  CD1       -6.5200   47.1230   71.1510 C.ar  329  PHE329     -0.0042
    112  CD2       -4.8390   46.3960   69.6300 C.ar  329  PHE329     -0.0042
    113  CE1       -6.4770   45.8950   71.7870 C.ar  329  PHE329     -0.0003
    114  CE2       -4.7930   45.1670   70.2610 C.ar  329  PHE329     -0.0003
    115  CZ        -5.6100   44.9170   71.3410 C.ar  329  PHE329     -0.0000
@<TRIPOS>BOND
     1    37    36    1
     2    37    38    1
     3    36    33    1
     4    35    34    2
     5    34    33    1
     6    38    32    1
     7    12    11    1
     8    33    32    1
     9    11     9   ar
    10    11    10   ar
    11     9     7   ar
    12    10     8   ar
    13     7     6   ar
    14    28    27    2
    15     4     3    2
    16    27    26    1
    17     8     6   ar
    18     6     5    1
    19    69    70    1
    20    69    66    1
    21    74    73    1
    22    70    71    1
    23    71    72    1
    24    16    15    2
    25    73    72    2
    26    73    75    1
    27     3     2    1
    28     3    13   am
    29    26    25    1
    30    26    29    1
    31    15    25   am
    32    15    14    1
    33    65    66    1
    34    14    13    1
    35    14    17    1
    36     2     5    1
    37     2     1    1
    38    66    67    1
    39    30    29    1
    40    20    22   ar
    41    20    18   ar
    42    22    23   ar
    43    29    31    1
    44    68    67    2
    45    17    18    1
    46    18    19   ar
    47    23    24    1
    48    23    21   ar
    49    19    21   ar
    50    48    47   ar
    51    48    46   ar
    52    47    45   ar
    53    46    44   ar
    54    57    56    1
    55    82    81    1
    56    63    62    1
    57    45    44   ar
    58    81    83    1
    59    81    80    1
    60    44    43    1
    61    64    62    1
    62    62    59    1
    63    76    77    1
    64   103   104    1
    65   103   102    1
    66    56    55    1
    67    43    40    1
    68    80    77    1
    69   102   101    1
    70    59    60    1
    71    59    58    1
    72    77    78    1
    73    55    54    1
    74    60    61    2
    75    58    51   am
    76    40    41    1
    77    40    39    1
    78    79    78    2
    79    78    84   am
    80   101   100    1
    81    54    53    1
    82    41    49   am
    83    41    42    2
    84    49    50    1
    85    51    50    1
    86    51    52    2
    87   100    97    1
    88    97    96    1
    89    97    98    1
    90    84    85    1
    91    50    53    1
    92    87    86    2
    93   109   110    1
    94   109   106    1
    95   105    98   am
    96   105   106    1
    97    96    86   am
    98    86    85    1
    99   112   110   ar
   100   112   114   ar
   101   108   107    2
   102    98    99    2
   103    85    88    1
   104   110   111   ar
   105   106   107    1
   106   114   115   ar
   107   111   113   ar
   108   115   113   ar
   109    88    89    1
   110    90    89   ar
   111    90    92   ar
   112    89    91   ar
   113    92    94   ar
   114    91    93   ar
   115    94    93   ar
   116    94    95    1
