@<TRIPOS>MOLECULE
tmp/5yhwE01.pdb
 214 202 0 0 0
SMALL
GASTEIGER

@<TRIPOS>ATOM
      1  N         10.3870   13.0470  129.8730 N.3    36  GLN36      -0.1231
      2  CA        10.4420   11.7700  130.5780 C.3    36  GLN36       0.1698
      3  C         11.8200   11.5300  131.1760 C.2    36  GLN36       0.2592
      4  O         11.9460   11.1320  132.3380 O.2    36  GLN36      -0.2718
      5  CB        10.0710   10.6330  129.6270 C.3    36  GLN36       0.0381
      6  CG        10.3890    9.2440  130.1570 C.3    36  GLN36       0.0905
      7  CD         9.2860    8.6760  131.0360 C.2    36  GLN36       0.2608
      8  OE1        8.1390    9.1150  130.9740 O.2    36  GLN36      -0.2717
      9  NE2        9.6300    7.6890  131.8540 N.am   36  GLN36      -0.0878
     10  N         12.8690   11.7630  130.3930 N.am   37  LEU37      -0.1980
     11  CA        14.2270   11.4560  130.8090 C.3    37  LEU37       0.1596
     12  C         14.9970   12.6870  131.2530 C.2    37  LEU37       0.2287
     13  O         16.2040   12.5960  131.4840 O.2    37  LEU37      -0.2864
     14  CB        14.9700   10.7380  129.6810 C.3    37  LEU37       0.0297
     15  CG        14.2800    9.4380  129.2670 C.3    37  LEU37       0.0022
     16  CD1       15.0940    8.6580  128.2620 C.3    37  LEU37       0.0001
     17  CD2       14.0110    8.5930  130.4920 C.3    37  LEU37       0.0001
     18  N         18.4440   13.7320  129.6970 N.3    40  GLY40      -0.1225
     19  CA        18.9310   12.7820  128.7150 C.3    40  GLY40       0.1811
     20  C         18.7450   13.2510  127.2860 C.2    40  GLY40       0.2280
     21  O         19.5130   12.8680  126.4020 O.2    40  GLY40      -0.2866
     22  N          6.2350   13.0180  129.7400 N.3    51  ARG51      -0.1245
     23  CA         5.5610   12.1500  130.7000 C.3    51  ARG51       0.1563
     24  C          4.1470   11.7970  130.2690 C.2    51  ARG51       0.2260
     25  O          3.6260   10.7630  130.6940 O.2    51  ARG51      -0.2867
     26  CB         5.5260   12.8120  132.0790 C.3    51  ARG51       0.0307
     27  CG         6.8390   12.7700  132.8170 C.3    51  ARG51       0.0489
     28  CD         7.0670   11.4050  133.4170 C.3    51  ARG51       0.2205
     29  NE         8.4570   11.2120  133.8040 N.pl3  51  ARG51      -0.0865
     30  CZ         8.9180   10.1190  134.3990 C.cat  51  ARG51       0.5346
     31  NH1        8.0970    9.1210  134.6810 N.pl3  51  ARG51       0.1354
     32  NH2       10.1990   10.0220  134.7100 N.pl3  51  ARG51       0.1354
     33  N          3.8770    8.5760  128.2010 N.3    54  HIS54      -0.1241
     34  CA         4.2280    7.4540  129.0570 C.3    54  HIS54       0.1621
     35  C          3.0280    7.0010  129.8700 C.2    54  HIS54       0.2264
     36  O          2.7930    5.7970  130.0300 O.2    54  HIS54      -0.2867
     37  CB         5.3810    7.8430  129.9690 C.3    54  HIS54       0.0745
     38  CG         5.6860    6.8310  131.0250 C.ar   54  HIS54       0.0817
     39  ND1        5.6350    7.1230  132.3690 N.ar   54  HIS54      -0.2268
     40  CD2        6.0580    5.5340  130.9380 C.ar   54  HIS54       0.1154
     41  CE1        5.9630    6.0510  133.0650 C.ar   54  HIS54       0.1986
     42  NE2        6.2220    5.0720  132.2200 N.ar   54  HIS54      -0.2212
     43  N         -0.2490    7.5240  137.6530 N.3    93  ARG93      -0.1231
     44  CA         0.9500    7.1720  138.4010 C.3    93  ARG93       0.1694
     45  C          2.0560    8.2060  138.2420 C.2    93  ARG93       0.2592
     46  O          2.9850    8.2310  139.0530 O.2    93  ARG93      -0.2718
     47  CB         1.4500    5.8050  137.9350 C.3    93  ARG93       0.0321
     48  CG         2.5190    5.1870  138.7970 C.3    93  ARG93       0.0489
     49  CD         3.3120    4.1700  138.0070 C.3    93  ARG93       0.2205
     50  NE         4.1260    3.3270  138.8720 N.pl3  93  ARG93      -0.0865
     51  CZ         5.3100    3.6780  139.3560 C.cat  93  ARG93       0.5346
     52  NH1        5.8250    4.8610  139.0580 N.pl3  93  ARG93       0.1354
     53  NH2        5.9770    2.8430  140.1390 N.pl3  93  ARG93       0.1354
     54  N          1.9780    9.0560  137.2190 N.am   94  ASN94      -0.1974
     55  CA         3.0370   10.0060  136.9000 C.3    94  ASN94       0.1688
     56  C          2.5930   11.4620  137.0190 C.2    94  ASN94       0.2292
     57  O          3.2730   12.3470  136.4900 O.2    94  ASN94      -0.2864
     58  CB         3.5810    9.7550  135.4830 C.3    94  ASN94       0.1181
     59  CG         3.9560    8.2960  135.2330 C.2    94  ASN94       0.2629
     60  OD1        3.0880    7.4420  135.0070 O.2    94  ASN94      -0.2716
     61  ND2        5.2520    8.0080  135.2760 N.am   94  ASN94      -0.0877
     62  N          5.1890   14.1760  138.9850 N.3    97  HIS97      -0.1241
     63  CA         6.5550   14.4650  138.5800 C.3    97  HIS97       0.1621
     64  C          6.7380   15.9630  138.3800 C.2    97  HIS97       0.2264
     65  O          5.8180   16.6780  137.9770 O.2    97  HIS97      -0.2867
     66  CB         6.9210   13.7110  137.2970 C.3    97  HIS97       0.0745
     67  CG         7.3720   12.3030  137.5360 C.ar   97  HIS97       0.0817
     68  ND1        8.6350   11.9960  137.9940 N.ar   97  HIS97      -0.2268
     69  CD2        6.7280   11.1210  137.3930 C.ar   97  HIS97       0.1154
     70  CE1        8.7500   10.6870  138.1210 C.ar   97  HIS97       0.1986
     71  NE2        7.6080   10.1330  137.7620 N.ar   97  HIS97      -0.2212
     72  N         13.1310   13.2100  137.1190 N.3   102  HIS102     -0.1241
     73  CA        14.0750   12.8290  138.1670 C.3   102  HIS102      0.1621
     74  C         15.0400   13.9440  138.5340 C.2   102  HIS102      0.2264
     75  O         15.7400   13.8300  139.5470 O.2   102  HIS102     -0.2867
     76  CB        14.8740   11.5950  137.7470 C.3   102  HIS102      0.0745
     77  CG        15.7770   11.7690  136.5380 C.ar  102  HIS102      0.0817
     78  ND1       15.4020   11.7400  135.2700 N.ar  102  HIS102     -0.2268
     79  CD2       17.1350   12.0070  136.5700 C.ar  102  HIS102      0.1154
     80  CE1       16.4610   11.9530  134.5280 C.ar  102  HIS102      0.1986
     81  NE2       17.5120   12.1140  135.3080 N.ar  102  HIS102     -0.2212
     82  N         17.0140   15.5260  143.0140 N.3   107  ARG107     -0.1245
     83  CA        18.1380   16.4270  143.2290 C.3   107  ARG107      0.1563
     84  C         17.7260   17.7630  143.8280 C.2   107  ARG107      0.2260
     85  O         18.2360   18.1600  144.8780 O.2   107  ARG107     -0.2867
     86  CB        18.8570   16.6850  141.9110 C.3   107  ARG107      0.0307
     87  CG        19.6100   15.5100  141.3570 C.3   107  ARG107      0.0489
     88  CD        20.5940   16.0200  140.3410 C.3   107  ARG107      0.2205
     89  NE        21.7070   15.1080  140.1520 N.pl3 107  ARG107     -0.0865
     90  CZ        21.7660   14.2120  139.1830 C.cat 107  ARG107      0.5346
     91  NH1       20.7730   14.1260  138.3150 N.pl3 107  ARG107      0.1354
     92  NH2       22.8180   13.4160  139.0760 N.pl3 107  ARG107      0.1354
     93  N          7.4510   11.5160  144.2880 N.3   120  HIS120     -0.1241
     94  CA         6.5520   11.7690  143.1720 C.3   120  HIS120      0.1621
     95  C          5.2380   11.0130  143.3060 C.2   120  HIS120      0.2264
     96  O          4.2290   11.4530  142.7450 O.2   120  HIS120     -0.2867
     97  CB         7.2320   11.4390  141.8330 C.3   120  HIS120      0.0745
     98  CG         7.4940    9.9800  141.6070 C.ar  120  HIS120      0.0817
     99  ND1        8.7380    9.4110  141.7760 N.ar  120  HIS120     -0.2268
    100  CD2        6.6790    8.9810  141.1930 C.ar  120  HIS120      0.1154
    101  CE1        8.6750    8.1230  141.4950 C.ar  120  HIS120      0.1986
    102  NE2        7.4360    7.8360  141.1400 N.ar  120  HIS120     -0.2212
    103  N          5.7950   -4.5510  137.5500 N.3   185  ASP185     -0.1239
    104  CA         4.5360   -3.8500  137.3320 C.3   185  ASP185      0.1674
    105  C          4.5240   -3.2310  135.9390 C.2   185  ASP185      0.2266
    106  O          5.5450   -3.1700  135.2520 O.2   185  ASP185     -0.2867
    107  CB         4.2870   -2.7910  138.4180 C.3   185  ASP185      0.1410
    108  CG         5.4830   -1.8860  138.6490 C.2   185  ASP185      0.3668
    109  OD1        6.0490   -1.3590  137.6680 O.co2 185  ASP185     -0.2456
    110  OD2        5.8600   -1.6980  139.8260 O.co2 185  ASP185     -0.2456
    111  N          4.4140   -0.2800  135.0580 N.3   187  ASP187     -0.1225
    112  CA         5.1650    0.9590  134.8920 C.3   187  ASP187      0.1805
    113  C          6.4760    0.7070  134.1630 C.2   187  ASP187      0.2597
    114  O          6.8170    1.4220  133.2150 O.2   187  ASP187     -0.2718
    115  CB         5.4230    1.6100  136.2510 C.3   187  ASP187      0.1424
    116  CG         6.0520    2.9840  136.1260 C.2   187  ASP187      0.3668
    117  OD1        7.1060    3.2180  136.7560 O.co2 187  ASP187     -0.2456
    118  OD2        5.4880    3.8350  135.4060 O.co2 187  ASP187     -0.2456
    119  N          7.2180   -0.3190  134.5830 N.am  188  LYS188     -0.1979
    120  CA         8.5120   -0.6040  133.9730 C.3   188  LYS188      0.1596
    121  C          8.3640   -1.0190  132.5160 C.2   188  LYS188      0.2287
    122  O          9.1420   -0.5860  131.6610 O.2   188  LYS188     -0.2864
    123  CB         9.2370   -1.6930  134.7580 C.3   188  LYS188      0.0298
    124  CG         9.6210   -1.3050  136.1710 C.3   188  LYS188      0.0038
    125  CD        10.6840   -2.2440  136.7070 C.3   188  LYS188      0.0206
    126  CE        11.0610   -1.9070  138.1330 C.3   188  LYS188      0.1093
    127  NZ         9.9170   -2.0960  139.0560 N.3   188  LYS188     -0.1314
    128  N          8.0830    2.0760  130.0460 N.3   191  TYR191     -0.1241
    129  CA         9.2640    2.8950  129.8040 C.3   191  TYR191      0.1605
    130  C         10.4400    2.0640  129.3030 C.2   191  TYR191      0.2264
    131  O         11.3580    2.6220  128.7000 O.2   191  TYR191     -0.2867
    132  CB         9.6270    3.7190  131.0530 C.3   191  TYR191      0.0534
    133  CG        10.3840    3.0350  132.1760 C.ar  191  TYR191     -0.0201
    134  CD1       11.7340    2.7360  132.0570 C.ar  191  TYR191     -0.0009
    135  CD2        9.7650    2.7650  133.3860 C.ar  191  TYR191     -0.0009
    136  CE1       12.4270    2.1390  133.0900 C.ar  191  TYR191      0.0417
    137  CE2       10.4510    2.1710  134.4240 C.ar  191  TYR191      0.0417
    138  CZ        11.7800    1.8600  134.2710 C.ar  191  TYR191      0.1957
    139  OH        12.4730    1.2680  135.3000 O.3   191  TYR191     -0.2866
    140  N         11.3480    4.2270  126.1670 N.3   195  ASP195     -0.1239
    141  CA        12.6440    4.8920  126.1920 C.3   195  ASP195      0.1674
    142  C         13.5900    4.2860  125.1650 C.2   195  ASP195      0.2266
    143  O         14.3240    5.0150  124.4930 O.2   195  ASP195     -0.2867
    144  CB        13.2540    4.8280  127.5920 C.3   195  ASP195      0.1410
    145  CG        12.4060    5.5310  128.6360 C.2   195  ASP195      0.3668
    146  OD1       11.6010    6.4100  128.2710 O.co2 195  ASP195     -0.2456
    147  OD2       12.5600    5.2160  129.8280 O.co2 195  ASP195     -0.2456
    148  N         16.6660   -3.2120  132.9600 N.3   242  ARG242     -0.1245
    149  CA        16.5440   -1.9610  133.6950 C.3   242  ARG242      0.1563
    150  C         17.9020   -1.4220  134.1200 C.2   242  ARG242      0.2260
    151  O         18.0930   -0.2040  134.1930 O.2   242  ARG242     -0.2867
    152  CB        15.6460   -2.1790  134.9110 C.3   242  ARG242      0.0307
    153  CG        15.4520   -0.9690  135.7890 C.3   242  ARG242      0.0489
    154  CD        14.5550   -1.3060  136.9620 C.3   242  ARG242      0.2205
    155  NE        14.4950   -0.2190  137.9280 N.pl3 242  ARG242     -0.0865
    156  CZ        15.3370   -0.0810  138.9440 C.cat 242  ARG242      0.5346
    157  NH1       16.3050   -0.9640  139.1330 N.pl3 242  ARG242      0.1354
    158  NH2       15.2100    0.9400  139.7730 N.pl3 242  ARG242      0.1354
    159  N         19.9370    2.1910  132.8860 N.3   246  HIS246     -0.1241
    160  CA        20.5280    3.1520  133.8050 C.3   246  HIS246      0.1621
    161  C         21.9810    3.4280  133.4530 C.2   246  HIS246      0.2264
    162  O         22.4090    4.5850  133.4120 O.2   246  HIS246     -0.2867
    163  CB        20.4150    2.6520  135.2430 C.3   246  HIS246      0.0745
    164  CG        19.1250    3.0160  135.9010 C.ar  246  HIS246      0.0817
    165  ND1       18.0600    2.1460  135.9870 N.ar  246  HIS246     -0.2268
    166  CD2       18.7200    4.1650  136.4900 C.ar  246  HIS246      0.1154
    167  CE1       17.0580    2.7390  136.6070 C.ar  246  HIS246      0.1986
    168  NE2       17.4330    3.9650  136.9250 N.ar  246  HIS246     -0.2212
    169  N         21.8770    5.2570  129.7310 N.3   249  ALA249     -0.1231
    170  CA        21.1570    6.4920  129.4620 C.3   249  ALA249      0.1694
    171  C         20.7800    7.2350  130.7370 C.2   249  ALA249      0.2592
    172  O         21.0910    8.4200  130.8780 O.2   249  ALA249     -0.2718
    173  CB        19.9090    6.1930  128.6280 C.3   249  ALA249      0.0304
    174  N         20.1170    6.5550  131.6720 N.am  250  TYR250     -0.1962
    175  CA        19.5550    7.2620  132.8220 C.3   250  TYR250      0.1771
    176  C         20.6370    7.8680  133.6990 C.2   250  TYR250      0.2619
    177  O         20.4070    8.8960  134.3420 O.2   250  TYR250     -0.2715
    178  CB        18.6810    6.3270  133.6600 C.3   250  TYR250      0.0574
    179  CG        17.5500    5.7070  132.8950 C.ar  250  TYR250     -0.0198
    180  CD1       16.9820    4.5170  133.3150 C.ar  250  TYR250     -0.0009
    181  CD2       17.0510    6.3070  131.7490 C.ar  250  TYR250     -0.0009
    182  CE1       15.9500    3.9410  132.6160 C.ar  250  TYR250      0.0417
    183  CE2       16.0240    5.7340  131.0410 C.ar  250  TYR250      0.0417
    184  CZ        15.4770    4.5520  131.4800 C.ar  250  TYR250      0.1957
    185  OH        14.4470    3.9800  130.7820 O.3   250  TYR250     -0.2866
    186  N         21.8100    7.2500  133.7510 N.am  251  GLN251     -0.1977
    187  CA        22.9060    7.7530  134.5650 C.3   251  GLN251      0.1601
    188  C         24.1520    7.9970  133.7250 C.2   251  GLN251      0.2287
    189  O         25.2740    7.8610  134.2130 O.2   251  GLN251     -0.2864
    190  CB        23.2040    6.8020  135.7200 C.3   251  GLN251      0.0394
    191  CG        21.9620    6.2790  136.4320 C.3   251  GLN251      0.0908
    192  CD        21.2290    7.3210  137.2590 C.2   251  GLN251      0.2608
    193  OE1       20.1020    7.0890  137.6920 O.2   251  GLN251     -0.2717
    194  NE2       21.8630    8.4610  137.4930 N.am  251  GLN251     -0.0878
    195  N         23.8990   13.2620  133.5330 N.3   256  ASN256     -0.1240
    196  CA        23.6880   13.5930  134.9340 C.3   256  ASN256      0.1653
    197  C         24.2460   14.9630  135.2730 C.2   256  ASN256      0.2266
    198  O         23.6850   15.6660  136.1220 O.2   256  ASN256     -0.2867
    199  CB        24.3190   12.5350  135.8390 C.3   256  ASN256      0.1155
    200  CG        23.4550   11.3020  135.9890 C.2   256  ASN256      0.2627
    201  OD1       22.3100   11.2810  135.5570 O.2   256  ASN256     -0.2716
    202  ND2       23.9960   10.2760  136.6250 N.am  256  ASN256     -0.0877
    203  N         21.7220   17.5660  134.1790 N.3   259  ASP259     -0.1239
    204  CA        20.6820   17.6400  135.1990 C.3   259  ASP259      0.1674
    205  C         21.1920   18.3710  136.4310 C.2   259  ASP259      0.2266
    206  O         20.4750   19.1830  137.0210 O.2   259  ASP259     -0.2867
    207  CB        20.1940   16.2400  135.5760 C.3   259  ASP259      0.1410
    208  CG        19.0370   15.7650  134.7150 C.2   259  ASP259      0.3668
    209  OD1       18.7660   14.5480  134.7130 O.co2 259  ASP259     -0.2456
    210  OD2       18.3950   16.6000  134.0440 O.co2 259  ASP259     -0.2456
    211  N         15.9210   -2.4650  142.4660 N.3   340  GLY340     -0.1225
    212  CA        14.6580   -1.9060  142.8890 C.3   340  GLY340      0.1811
    213  C         14.3010   -2.1280  144.3410 C.2   340  GLY340      0.2280
    214  O         13.3360   -1.5200  144.8190 O.2   340  GLY340     -0.2866
@<TRIPOS>BOND
     1   143   142    2
     2   142   141    1
     3   140   141    1
     4   141   144    1
     5    21    20    2
     6    20    19    1
     7   144   145    1
     8    33    34    1
     9    16    15    1
    10   146   145   ar
    11   173   170    1
    12   145   147   ar
    13   131   130    2
    14    19    18    1
    15    34    35    1
    16    34    37    1
    17    15    14    1
    18    15    17    1
    19   130   129    1
    20   170   169    1
    21   170   171    1
    22     5     6    1
    23     5     2    1
    24    14    11    1
    25    22    23    1
    26   129   128    1
    27   129   132    1
    28    35    36    2
    29     1     2    1
    30    37    38    1
    31     6     7    1
    32    24    25    2
    33    24    23    1
    34    10    11    1
    35    10     3   am
    36     2     3    1
    37    23    26    1
    38   171   172    2
    39   171   174   am
    40   185   184    1
    41    11    12    1
    42    40    38   ar
    43    40    42   ar
    44     8     7    2
    45    38    39   ar
    46     7     9   am
    47   183   184   ar
    48   183   181   ar
    49   132   133    1
    50     3     4    2
    51    12    13    2
    52   184   182   ar
    53   122   121    2
    54   174   175    1
    55   181   179   ar
    56   134   133   ar
    57   134   136   ar
    58    26    27    1
    59   133   135   ar
    60    42    41   ar
    61    39    41   ar
    62   121   120    1
    63   182   180   ar
    64    27    28    1
    65   175   178    1
    66   175   176    1
    67   159   160    1
    68   179   180   ar
    69   179   178    1
    70   148   149    1
    71   136   138   ar
    72   114   113    2
    73   135   137   ar
    74   162   161    2
    75    28    29    1
    76   161   160    1
    77   195   196    1
    78   149   150    1
    79   149   152    1
    80   176   186   am
    81   176   177    2
    82   188   189    2
    83   188   187    1
    84   186   187    1
    85    29    30    2
    86   160   163    1
    87   120   119    1
    88   120   123    1
    89   210   208   ar
    90   150   151    2
    91   113   119   am
    92   113   112    1
    93   203   204    1
    94   138   137   ar
    95   138   139    1
    96    30    31    1
    97    30    32    1
    98    80    78   ar
    99    80    81   ar
   100   187   190    1
   101   209   208   ar
   102   208   207    1
   103   123   124    1
   104   112   111    1
   105   112   115    1
   106   152   153    1
   107   196   197    1
   108   196   199    1
   109    60    59    2
   110   204   207    1
   111   204   205    1
   112    59    61   am
   113    59    58    1
   114   163   164    1
   115   106   105    2
   116    78    77   ar
   117   197   198    2
   118    81    79   ar
   119   118   116   ar
   120    58    55    1
   121   201   200    2
   122   190   191    1
   123   153   154    1
   124   199   200    1
   125   164   165   ar
   126   164   166   ar
   127   105   104    1
   128   165   167   ar
   129   200   202   am
   130   116   115    1
   131   116   117   ar
   132   124   125    1
   133   205   206    2
   134   191   192    1
   135   166   168   ar
   136    57    56    2
   137    77    79   ar
   138    77    76    1
   139   167   168   ar
   140   125   126    1
   141    55    56    1
   142    55    54    1
   143   154   155    1
   144    72    73    1
   145    54    45   am
   146   192   194   am
   147   192   193    2
   148    66    67    1
   149    66    63    1
   150   104   103    1
   151   104   107    1
   152    69    67   ar
   153    69    71   ar
   154    67    68   ar
   155    43    44    1
   156   109   108   ar
   157    76    73    1
   158    71    70   ar
   159   155   156    2
   160    47    44    1
   161    47    48    1
   162    65    64    2
   163    68    70   ar
   164    49    48    1
   165    49    50    1
   166   126   127    1
   167    73    74    1
   168    45    44    1
   169    45    46    2
   170    91    90    1
   171    64    63    1
   172   107   108    1
   173    74    75    2
   174    63    62    1
   175   108   110   ar
   176    50    51    2
   177   156   157    1
   178   156   158    1
   179    52    51    1
   180    92    90    1
   181    90    89    2
   182    51    53    1
   183    89    88    1
   184    88    87    1
   185   102   100   ar
   186   102   101   ar
   187   100    98   ar
   188    87    86    1
   189   101    99   ar
   190    98    99   ar
   191    98    97    1
   192    97    94    1
   193    86    83    1
   194   211   212    1
   195    96    95    2
   196   212   213    1
   197    82    83    1
   198    94    95    1
   199    94    93    1
   200    83    84    1
   201    84    85    2
   202   213   214    2
