@<TRIPOS>MOLECULE
tmp/5yhwE04.pdb
 85 84 0 0 0
SMALL
GASTEIGER

@<TRIPOS>ATOM
      1  N         21.7370   14.5000  125.6500 N.3    43  VAL43      -0.1231
      2  CA        22.7560   13.5300  125.2810 C.3    43  VAL43       0.1692
      3  C         22.2390   12.5390  124.2480 C.2    43  VAL43       0.2592
      4  O         22.9510   12.1980  123.2970 O.2    43  VAL43      -0.2718
      5  CB        23.2880   12.7910  126.5250 C.3    43  VAL43       0.0266
      6  CG1       24.0850   11.5730  126.1270 C.3    43  VAL43       0.0020
      7  CG2       24.1450   13.7240  127.3410 C.3    43  VAL43       0.0020
      8  N         21.0040   12.0710  124.4140 N.am   44  PHE44      -0.1963
      9  CA        20.3100   11.2380  123.4390 C.3    44  PHE44       0.1756
     10  C         19.2370   12.0840  122.7730 C.2    44  PHE44       0.2461
     11  O         18.1530   12.2670  123.3460 O.2    44  PHE44      -0.2730
     12  CB        19.6750   10.0190  124.1140 C.3    44  PHE44       0.0574
     13  CG        20.6590    8.9950  124.6140 C.ar   44  PHE44      -0.0200
     14  CD1       21.3460    9.1880  125.8000 C.ar   44  PHE44      -0.0042
     15  CD2       20.8650    7.8170  123.9110 C.ar   44  PHE44      -0.0042
     16  CE1       22.2320    8.2420  126.2680 C.ar   44  PHE44      -0.0003
     17  CE2       21.7450    6.8640  124.3790 C.ar   44  PHE44      -0.0003
     18  CZ        22.4290    7.0800  125.5640 C.ar   44  PHE44      -0.0000
     19  N         19.4690   12.6150  121.5700 N.am   45  PRO45      -0.2727
     20  CA        18.4940   13.5400  120.9730 C.3    45  PRO45       0.1402
     21  C         17.1640   12.9080  120.6040 C.2    45  PRO45       0.2269
     22  O         16.2160   13.6460  120.3200 O.2    45  PRO45      -0.2865
     23  CB        19.2180   14.0560  119.7260 C.3    45  PRO45       0.0296
     24  CG        20.1870   13.0070  119.4050 C.3    45  PRO45       0.0237
     25  CD        20.6600   12.4660  120.7240 C.3    45  PRO45       0.0939
     26  N         17.1950    5.0370  121.1560 N.3   200  GLY200     -0.1210
     27  CA        18.0080    4.2840  120.2300 C.3   200  GLY200      0.1956
     28  C         18.7120    3.1130  120.8660 C.2   200  GLY200      0.2611
     29  O         19.7610    2.6930  120.3730 O.2   200  GLY200     -0.2717
     30  N         18.1760    2.5790  121.9550 N.am  201  ILE201     -0.1979
     31  CA        18.7800    1.4610  122.6570 C.3   201  ILE201      0.1595
     32  C         17.8730    0.2450  122.4920 C.2   201  ILE201      0.2287
     33  O         16.7670    0.3330  121.9630 O.2   201  ILE201     -0.2864
     34  CB        19.0350    1.7840  124.1430 C.3   201  ILE201      0.0276
     35  CG1       19.5760    3.2030  124.2810 C.3   201  ILE201      0.0022
     36  CG2       20.0500    0.8330  124.7470 C.3   201  ILE201      0.0022
     37  CD1       20.8850    3.4080  123.5660 C.3   201  ILE201      0.0001
     38  N         22.7540    2.3790  133.1890 N.3   247  ARG247     -0.1231
     39  CA        24.1620    2.5830  132.9070 C.3   247  ARG247      0.1694
     40  C         24.3990    3.1780  131.5230 C.2   247  ARG247      0.2591
     41  O         25.4490    3.7870  131.3000 O.2   247  ARG247     -0.2718
     42  CB        24.9240    1.2680  133.0710 C.3   247  ARG247      0.0321
     43  CG        25.1350    0.5400  131.7630 C.3   247  ARG247      0.0489
     44  CD        26.0990   -0.6380  131.8600 C.3   247  ARG247      0.2205
     45  NE        25.9130   -1.5870  130.7520 N.pl3 247  ARG247     -0.0865
     46  CZ        26.2470   -1.3620  129.4880 C.cat 247  ARG247      0.5346
     47  NH1       26.8190   -0.2180  129.1500 N.pl3 247  ARG247      0.1354
     48  NH2       26.0290   -2.3000  128.5810 N.pl3 247  ARG247      0.1354
     49  N         23.4500    3.0590  130.5970 N.am  248  ARG248     -0.1980
     50  CA        23.6470    3.6260  129.2660 C.3   248  ARG248      0.1597
     51  C         23.0120    4.9960  129.0880 C.2   248  ARG248      0.2287
     52  O         23.5700    5.8360  128.3730 O.2   248  ARG248     -0.2864
     53  CB        23.1070    2.6780  128.1930 C.3   248  ARG248      0.0334
     54  CG        23.8540    1.3600  128.1220 C.3   248  ARG248      0.0492
     55  CD        23.0430    0.2640  127.4370 C.3   248  ARG248      0.2205
     56  NE        23.5120   -0.0080  126.0880 N.pl3 248  ARG248     -0.0865
     57  CZ        23.2730   -1.1340  125.4230 C.cat 248  ARG248      0.5346
     58  NH1       22.5740   -2.1030  125.9920 N.pl3 248  ARG248      0.1354
     59  NH2       23.7370   -1.2930  124.1880 N.pl3 248  ARG248      0.1354
     60  N         23.9600    8.3430  132.4540 N.3   252  HIS252     -0.1226
     61  CA        25.0490    8.8460  131.6290 C.3   252  HIS252      0.1752
     62  C         25.7190   10.0220  132.3260 C.2   252  HIS252      0.2596
     63  O         25.0460   10.9460  132.7910 O.2   252  HIS252     -0.2718
     64  CB        24.5060    9.2700  130.2650 C.3   252  HIS252      0.0759
     65  CG        25.5650    9.5190  129.2430 C.ar  252  HIS252      0.0818
     66  ND1       26.0830   10.7710  128.9980 N.ar  252  HIS252     -0.2268
     67  CD2       26.2020    8.6760  128.3980 C.ar  252  HIS252      0.1154
     68  CE1       26.9970   10.6890  128.0490 C.ar  252  HIS252      0.1986
     69  NE2       27.0870    9.4280  127.6670 N.ar  252  HIS252     -0.2212
     70  N         27.0520    9.9820  132.4000 N.am  253  LYS253     -0.1966
     71  CA        27.7660   10.9390  133.2400 C.3   253  LYS253      0.1728
     72  C         27.5950   12.3660  132.7300 C.2   253  LYS253      0.2616
     73  O         27.4670   13.3000  133.5270 O.2   253  LYS253     -0.2715
     74  CB        29.2410   10.5480  133.3400 C.3   253  LYS253      0.0311
     75  CG        30.1160   10.9740  132.1790 C.3   253  LYS253      0.0038
     76  CD        30.1060    9.9710  131.0350 C.3   253  LYS253      0.0206
     77  CE        31.1440   10.3590  129.9870 C.3   253  LYS253      0.1093
     78  NZ        30.9710    9.6240  128.7110 N.3   253  LYS253     -0.1314
     79  N         27.5540   12.5550  131.4120 N.am  254  VAL254     -0.1977
     80  CA        27.2870   13.8850  130.8770 C.3   254  VAL254      0.1596
     81  C         25.8140   14.2410  131.0250 C.2   254  VAL254      0.2287
     82  O         25.4760   15.4050  131.2550 O.2   254  VAL254     -0.2864
     83  CB        27.7510   13.9760  129.4120 C.3   254  VAL254      0.0276
     84  CG1       27.3760   15.3180  128.8020 C.3   254  VAL254      0.0022
     85  CG2       29.2480   13.7640  129.3260 C.3   254  VAL254      0.0022
@<TRIPOS>BOND
     1    24    23    1
     2    24    25    1
     3    23    20    1
     4    27    28    1
     5    27    26    1
     6    22    21    2
     7    29    28    2
     8    21    20    1
     9    25    19    1
    10    28    30   am
    11    20    19    1
    12    19    10   am
    13    30    31    1
    14    33    32    2
    15    32    31    1
    16    31    34    1
    17    10    11    2
    18    10     9    1
    19     4     3    2
    20     9    12    1
    21     9     8    1
    22    37    35    1
    23    15    17   ar
    24    15    13   ar
    25    12    13    1
    26    34    35    1
    27    34    36    1
    28    59    57    1
    29     3     8   am
    30     3     2    1
    31    17    18   ar
    32    13    14   ar
    33     2     1    1
    34     2     5    1
    35    57    58    1
    36    57    56    2
    37    18    16   ar
    38    14    16   ar
    39    56    55    1
    40     6     5    1
    41     5     7    1
    42    55    54    1
    43    69    68   ar
    44    69    67   ar
    45    68    66   ar
    46    54    53    1
    47    53    50    1
    48    52    51    2
    49    67    65   ar
    50    48    46    1
    51    78    77    1
    52    84    83    1
    53    66    65   ar
    54    51    50    1
    55    47    46    1
    56    65    64    1
    57    50    49    1
    58    85    83    1
    59    83    80    1
    60    46    45    2
    61    77    76    1
    62    64    61    1
    63    49    40   am
    64    45    44    1
    65    80    81    1
    66    80    79    1
    67    81    82    2
    68    76    75    1
    69    41    40    2
    70    79    72   am
    71    40    39    1
    72    61    62    1
    73    61    60    1
    74    43    44    1
    75    43    42    1
    76    75    74    1
    77    62    70   am
    78    62    63    2
    79    70    71    1
    80    72    71    1
    81    72    73    2
    82    39    42    1
    83    39    38    1
    84    71    74    1
