@<TRIPOS>MOLECULE
tmp/5yhwE05.pdb
 95 89 0 0 0
SMALL
GASTEIGER

@<TRIPOS>ATOM
      1  N        -12.7330    6.4110  122.3920 N.3     3  LYS3       -0.1231
      2  CA       -11.7380    6.9340  121.4730 C.3     3  LYS3        0.1693
      3  C        -10.5620    5.9740  121.3700 C.2     3  LYS3        0.2592
      4  O        -10.2340    5.2590  122.3220 O.2     3  LYS3       -0.2718
      5  CB       -11.2520    8.3130  121.9180 C.3     3  LYS3        0.0285
      6  CG       -12.3480    9.3550  121.9480 C.3     3  LYS3        0.0035
      7  CD       -11.8040   10.6860  122.3890 C.3     3  LYS3        0.0206
      8  CE       -12.8950   11.7420  122.5070 C.3     3  LYS3        0.1093
      9  NZ       -13.6220   11.9240  121.2210 N.3     3  LYS3       -0.1314
     10  N         -9.9410    5.9520  120.1950 N.am    4  VAL4       -0.1966
     11  CA        -8.7070    5.2070  119.9830 C.3     4  VAL4        0.1727
     12  C         -7.5870    6.2000  119.7280 C.2     4  VAL4        0.2616
     13  O         -7.7850    7.2670  119.1360 O.2     4  VAL4       -0.2715
     14  CB        -8.8030    4.1860  118.8300 C.3     4  VAL4        0.0290
     15  CG1      -10.0510    3.3280  118.9840 C.3     4  VAL4        0.0023
     16  CG2       -8.7770    4.8820  117.4850 C.3     4  VAL4        0.0023
     17  N         -6.3970    5.8410  120.1860 N.am    5  ILE5       -0.1963
     18  CA        -5.2350    6.7110  120.1120 C.3     5  ILE5        0.1727
     19  C         -4.0670    5.9290  119.5340 C.2     5  ILE5        0.2616
     20  O         -3.7260    4.8550  120.0390 O.2     5  ILE5       -0.2715
     21  CB        -4.8820    7.2760  121.4960 C.3     5  ILE5        0.0290
     22  CG1       -5.8410    8.4080  121.8630 C.3     5  ILE5        0.0022
     23  CG2       -3.4690    7.7400  121.5120 C.3     5  ILE5        0.0023
     24  CD1       -5.5860    9.0010  123.2310 C.3     5  ILE5        0.0001
     25  N         -3.4510    6.4710  118.4830 N.am    6  ASN6       -0.1972
     26  CA        -2.2930    5.8370  117.8600 C.3     6  ASN6        0.1688
     27  C         -1.0350    6.1470  118.6580 C.2     6  ASN6        0.2292
     28  O         -0.6640    7.3120  118.8260 O.2     6  ASN6       -0.2864
     29  CB        -2.1140    6.3030  116.4200 C.3     6  ASN6        0.1181
     30  CG        -1.1770    5.4010  115.6360 C.2     6  ASN6        0.2629
     31  OD1       -1.2810    4.1750  115.7070 O.2     6  ASN6       -0.2716
     32  ND2       -0.2490    6.0010  114.8910 N.am    6  ASN6       -0.0877
     33  N        -11.0530    9.2260  129.1970 N.3    20  ILE20      -0.1245
     34  CA       -10.7860   10.3790  128.3460 C.3    20  ILE20       0.1561
     35  C        -11.0390   11.6800  129.0990 C.2    20  ILE20       0.2260
     36  O        -10.3130   12.6650  128.9210 O.2    20  ILE20      -0.2867
     37  CB       -11.6260   10.2860  127.0630 C.3    20  ILE20       0.0252
     38  CG1      -11.1280    9.1260  126.2090 C.3    20  ILE20       0.0019
     39  CG2      -11.5610   11.5810  126.2860 C.3    20  ILE20       0.0019
     40  CD1       -9.6690    9.2470  125.8230 C.3    20  ILE20       0.0001
     41  N         -8.0910   12.5330  131.1850 N.3    23  ILE23      -0.1231
     42  CA        -6.9860   12.9900  130.3570 C.3    23  ILE23       0.1692
     43  C         -7.1670   14.4610  130.0050 C.2    23  ILE23       0.2592
     44  O         -6.2480   15.2720  130.1700 O.2    23  ILE23      -0.2718
     45  CB        -6.8760   12.1030  129.1010 C.3    23  ILE23       0.0266
     46  CG1       -6.0720   10.8440  129.4180 C.3    23  ILE23       0.0019
     47  CG2       -6.2750   12.8600  127.9290 C.3    23  ILE23       0.0020
     48  CD1       -6.3380    9.7200  128.4690 C.3    23  ILE23       0.0001
     49  N         -8.3670   14.8330  129.5560 N.am   24  ASP24      -0.1974
     50  CA        -8.6140   16.1740  129.0360 C.3    24  ASP24       0.1709
     51  C         -8.7270   17.2190  130.1460 C.2    24  ASP24       0.2293
     52  O         -9.2950   18.2940  129.9350 O.2    24  ASP24      -0.2864
     53  CB        -9.8800   16.1850  128.1750 C.3    24  ASP24       0.1436
     54  CG        -9.7790   15.2690  126.9680 C.2    24  ASP24       0.3671
     55  OD1      -10.8260   14.7520  126.5220 O.co2  24  ASP24      -0.2456
     56  OD2       -8.6550   15.0670  126.4550 O.co2  24  ASP24      -0.2456
     57  N         -2.9950   17.1490  131.2440 N.3    29  GLN29      -0.1245
     58  CA        -2.4440   17.6990  130.0150 C.3    29  GLN29       0.1566
     59  C         -1.1410   18.4450  130.2550 C.2    29  GLN29       0.2260
     60  O         -0.3990   18.6960  129.3020 O.2    29  GLN29      -0.2867
     61  CB        -3.4650   18.6250  129.3550 C.3    29  GLN29       0.0367
     62  CG        -3.3390   18.7210  127.8420 C.3    29  GLN29       0.0905
     63  CD        -4.0000   17.5590  127.1080 C.2    29  GLN29       0.2608
     64  OE1       -4.3750   16.5530  127.7110 O.2    29  GLN29      -0.2717
     65  NE2       -4.1550   17.7050  125.7980 N.am   29  GLN29      -0.0878
     66  N          2.5880   17.0550  129.0840 N.3    32  ARG32      -0.1245
     67  CA         3.2500   17.2370  127.8030 C.3    32  ARG32       0.1563
     68  C          4.4680   18.1350  127.9040 C.2    32  ARG32       0.2260
     69  O          5.1770   18.3050  126.9100 O.2    32  ARG32      -0.2867
     70  CB         2.2840   17.8320  126.7940 C.3    32  ARG32       0.0307
     71  CG         1.1510   16.9310  126.4630 C.3    32  ARG32       0.0489
     72  CD        -0.0500   17.7410  126.0590 C.3    32  ARG32       0.2205
     73  NE        -1.1330   16.9050  125.5540 N.pl3  32  ARG32      -0.0865
     74  CZ        -1.1200   16.3010  124.3720 C.cat  32  ARG32       0.5346
     75  NH1       -0.0820   16.4380  123.5660 N.pl3  32  ARG32       0.1354
     76  NH2       -2.1490   15.5640  123.9910 N.pl3  32  ARG32       0.1354
     77  N          3.5290   12.6240  129.4250 N.3    52  PHE52      -0.1241
     78  CA         2.1380   12.4220  129.0280 C.3    52  PHE52       0.1605
     79  C          1.9520   11.0910  128.3110 C.2    52  PHE52       0.2264
     80  O          1.1370   10.2560  128.7290 O.2    52  PHE52      -0.2867
     81  CB         1.6840   13.5830  128.1380 C.3    52  PHE52       0.0534
     82  CG         0.3380   13.3760  127.4880 C.ar   52  PHE52      -0.0203
     83  CD1       -0.8290   13.5650  128.2060 C.ar   52  PHE52      -0.0042
     84  CD2        0.2350   13.0270  126.1510 C.ar   52  PHE52      -0.0042
     85  CE1       -2.0660   13.3900  127.6100 C.ar   52  PHE52      -0.0003
     86  CE2       -1.0090   12.8510  125.5580 C.ar   52  PHE52      -0.0003
     87  CZ        -2.1520   13.0330  126.2870 C.ar   52  PHE52      -0.0000
     88  N         -0.2140    7.2280  129.1810 N.3    56  LEU56      -0.1245
     89  CA        -1.1870    6.4910  128.3810 C.3    56  LEU56       0.1561
     90  C         -0.8000    5.0320  128.2230 C.2    56  LEU56       0.2260
     91  O         -1.6750    4.1740  128.0940 O.2    56  LEU56      -0.2867
     92  CB        -1.3390    7.1180  127.0000 C.3    56  LEU56       0.0270
     93  CG        -1.6300    8.6100  126.9440 C.3    56  LEU56       0.0019
     94  CD1       -1.8120    9.0300  125.4940 C.3    56  LEU56       0.0001
     95  CD2       -2.8540    8.9560  127.7830 C.3    56  LEU56       0.0001
@<TRIPOS>BOND
     1    32    30   am
     2    30    31    2
     3    30    29    1
     4    29    26    1
     5    16    14    1
     6    26    25    1
     7    26    27    1
     8    25    19   am
     9    27    28    2
    10    14    15    1
    11    14    11    1
    12    13    12    2
    13    19    20    2
    14    19    18    1
    15    12    11    1
    16    12    17   am
    17    11    10    1
    18    18    17    1
    19    18    21    1
    20    10     3   am
    21     9     8    1
    22     3     2    1
    23     3     4    2
    24     2     5    1
    25     2     1    1
    26    21    23    1
    27    21    22    1
    28    22    24    1
    29     5     6    1
    30     6     7    1
    31     7     8    1
    32    75    74    1
    33    76    74    1
    34    74    73    2
    35    94    93    1
    36    73    72    1
    37    86    84   ar
    38    86    87   ar
    39    65    63   am
    40    40    38    1
    41    72    71    1
    42    84    82   ar
    43    38    37    1
    44    39    37    1
    45    87    85   ar
    46    56    54   ar
    47    71    70    1
    48    55    54   ar
    49    70    67    1
    50    69    68    2
    51    93    92    1
    52    93    95    1
    53    54    53    1
    54    92    89    1
    55    37    34    1
    56    63    64    2
    57    63    62    1
    58    82    81    1
    59    82    83   ar
    60    85    83   ar
    61    67    68    1
    62    67    66    1
    63    62    61    1
    64    47    45    1
    65    91    90    2
    66    81    78    1
    67    53    50    1
    68    90    89    1
    69    79    80    2
    70    79    78    1
    71    34    35    1
    72    34    33    1
    73    89    88    1
    74    48    46    1
    75    36    35    2
    76    78    77    1
    77    50    49    1
    78    50    51    1
    79    45    46    1
    80    45    42    1
    81    60    59    2
    82    61    58    1
    83    49    43   am
    84    52    51    2
    85    43    44    2
    86    43    42    1
    87    58    59    1
    88    58    57    1
    89    42    41    1
