@<TRIPOS>MOLECULE
tmp/5yhzA00.pdb
 88 86 0 0 0
SMALL
GASTEIGER

@<TRIPOS>ATOM
      1  N         -5.3860   -2.5710    1.1080 N.3    23  HIS23      -0.1226
      2  CA        -5.2450   -1.8660   -0.1450 C.3    23  HIS23       0.1752
      3  C         -6.1190   -0.6450   -0.0680 C.2    23  HIS23       0.2596
      4  O         -6.4350   -0.0360   -1.0870 O.2    23  HIS23      -0.2718
      5  CB        -5.6520   -2.7670   -1.3210 C.3    23  HIS23       0.0759
      6  CG        -4.7640   -3.9540   -1.4700 C.ar   23  HIS23       0.0818
      7  ND1       -3.4390   -3.8490   -1.8470 N.ar   23  HIS23      -0.2268
      8  CD2       -4.9950   -5.2730   -1.2640 C.ar   23  HIS23       0.1154
      9  CE1       -2.9020   -5.0580   -1.8920 C.ar   23  HIS23       0.1986
     10  NE2       -3.8230   -5.9380   -1.5360 N.ar   23  HIS23      -0.2212
     11  N         -6.5380   -0.3380    1.1620 N.am   24  GLU24      -0.1965
     12  CA        -7.4220    0.7890    1.4170 C.3    24  GLU24       0.1733
     13  C         -6.9030    1.4990    2.6510 C.2    24  GLU24       0.2616
     14  O         -6.6200    0.8420    3.6800 O.2    24  GLU24      -0.2715
     15  CB        -8.8760    0.3360    1.6640 C.3    24  GLU24       0.0429
     16  CG        -9.8190    1.4960    1.4600 C.3    24  GLU24       0.1163
     17  CD       -11.2480    1.2690    1.9050 C.2    24  GLU24       0.3649
     18  OE1      -11.8930    2.3000    2.1090 O.co2  24  GLU24      -0.2457
     19  OE2      -11.7470    0.1260    2.0060 O.co2  24  GLU24      -0.2457
     20  N         -6.7880    2.8230    2.5760 N.am   25  ILE25      -0.1963
     21  CA        -6.2940    3.5610    3.7140 C.3    25  ILE25       0.1727
     22  C         -7.4770    4.0000    4.5290 C.2    25  ILE25       0.2616
     23  O         -8.2910    4.8030    4.0980 O.2    25  ILE25      -0.2715
     24  CB        -5.4470    4.7890    3.3170 C.3    25  ILE25       0.0290
     25  CG1       -4.3530    4.3970    2.3320 C.3    25  ILE25       0.0022
     26  CG2       -4.8510    5.4190    4.6020 C.3    25  ILE25       0.0023
     27  CD1       -3.3830    3.4020    2.9370 C.3    25  ILE25       0.0001
     28  N         -7.5540    3.5160    5.7500 N.am   26  LEU26      -0.1977
     29  CA        -8.7060    3.8280    6.5590 C.3    26  LEU26       0.1596
     30  C         -8.2440    4.1400    7.9590 C.2    26  LEU26       0.2287
     31  O         -7.4420    3.4040    8.4980 O.2    26  LEU26      -0.2864
     32  CB        -9.6260    2.5770    6.5880 C.3    26  LEU26       0.0297
     33  CG       -10.3970    2.3480    5.3060 C.3    26  LEU26       0.0022
     34  CD1      -11.1040    0.9430    5.2660 C.3    26  LEU26       0.0001
     35  CD2      -11.4330    3.4100    5.2030 C.3    26  LEU26       0.0001
     36  N        -11.6990   -4.2730   -0.6040 N.3    38  SER38      -0.1217
     37  CA       -12.3700   -3.0100   -0.4910 C.3    38  SER38       0.1889
     38  C        -13.6710   -3.0810   -1.2680 C.2    38  SER38       0.2288
     39  O        -14.6780   -2.4990   -0.8390 O.2    38  SER38      -0.2866
     40  CB       -11.4710   -1.8840   -1.0180 C.3    38  SER38       0.2089
     41  OG       -11.0990   -2.1570   -2.3630 O.3    38  SER38      -0.2183
     42  N        -17.3710   -2.4820    0.2540 N.3    42  HIS42      -0.1241
     43  CA       -18.2560   -1.4640   -0.2180 C.3    42  HIS42       0.1621
     44  C        -19.6210   -2.0170   -0.6510 C.2    42  HIS42       0.2264
     45  O        -20.6540   -1.3970   -0.5110 O.2    42  HIS42      -0.2867
     46  CB       -17.5600   -0.6920   -1.3190 C.3    42  HIS42       0.0745
     47  CG       -16.2840   -0.0770   -0.8460 C.ar   42  HIS42       0.0817
     48  ND1      -15.3440    0.4610   -1.6960 N.ar   42  HIS42      -0.2268
     49  CD2      -15.7940    0.0790    0.4080 C.ar   42  HIS42       0.1154
     50  CE1      -14.3230    0.9190   -0.9890 C.ar   42  HIS42       0.1986
     51  NE2      -14.5750    0.7180    0.2890 N.ar   42  HIS42      -0.2212
     52  N        -14.9380    4.8590    6.9310 N.3   112  HIS112     -0.1241
     53  CA       -14.9790    5.7960    5.8190 C.3   112  HIS112      0.1621
     54  C        -15.2830    7.1750    6.4250 C.2   112  HIS112      0.2264
     55  O        -14.6370    8.1820    6.0780 O.2   112  HIS112     -0.2867
     56  CB       -16.0590    5.4030    4.7860 C.3   112  HIS112      0.0745
     57  CG       -15.6350    4.3280    3.7910 C.ar  112  HIS112      0.0817
     58  ND1      -16.1480    4.2850    2.5150 N.ar  112  HIS112     -0.2268
     59  CD2      -14.7720    3.2860    3.8680 C.ar  112  HIS112      0.1154
     60  CE1      -15.6170    3.2790    1.8400 C.ar  112  HIS112      0.1986
     61  NE2      -14.8060    2.6310    2.6350 N.ar  112  HIS112     -0.2212
     62  N        -12.4170    8.6610    8.4120 N.3   115  THR115     -0.1203
     63  CA       -11.2610    9.0210    7.5950 C.3   115  THR115      0.1994
     64  C        -11.4980   10.2810    6.8720 C.2   115  THR115      0.2617
     65  O        -10.6670   11.2190    6.9060 O.2   115  THR115     -0.2717
     66  CB       -10.9600    7.8860    6.6390 C.3   115  THR115      0.1784
     67  OG1      -10.6270    6.8110    7.4770 O.3   115  THR115     -0.2211
     68  CG2       -9.7750    8.2150    5.6810 C.3   115  THR115      0.0376
     69  N        -12.6700   10.3520    6.2700 N.am  116  LEU116     -0.1979
     70  CA       -13.0540   11.5150    5.5160 C.3   116  LEU116      0.1596
     71  C        -13.2380   12.6990    6.4120 C.2   116  LEU116      0.2287
     72  O        -12.8580   13.8120    6.0360 O.2   116  LEU116     -0.2864
     73  CB       -14.3010   11.2790    4.6610 C.3   116  LEU116      0.0297
     74  CG       -14.0750   10.3170    3.4920 C.3   116  LEU116      0.0022
     75  CD1      -15.4030    9.8500    2.8780 C.3   116  LEU116      0.0001
     76  CD2      -13.2220   10.9740    2.4300 C.3   116  LEU116      0.0001
     77  N         -9.8590   13.9840    7.1920 N.3   119  TYR119     -0.1241
     78  CA        -9.2700   14.7450    6.1160 C.3   119  TYR119      0.1605
     79  C         -9.9250   16.0800    5.9690 C.2   119  TYR119      0.2264
     80  O         -9.2680   17.1040    5.6620 O.2   119  TYR119     -0.2867
     81  CB        -9.4420   14.0200    4.7920 C.3   119  TYR119      0.0534
     82  CG        -8.7330   12.6720    4.7360 C.ar  119  TYR119     -0.0201
     83  CD1       -7.7550   12.3580    5.6410 C.ar  119  TYR119     -0.0009
     84  CD2       -9.1230   11.7110    3.7980 C.ar  119  TYR119     -0.0009
     85  CE1       -7.0910   11.1180    5.5880 C.ar  119  TYR119      0.0417
     86  CE2       -8.5250   10.4590    3.7360 C.ar  119  TYR119      0.0417
     87  CZ        -7.5310   10.1810    4.5940 C.ar  119  TYR119      0.1957
     88  OH        -6.9730    8.9970    4.4810 O.3   119  TYR119     -0.2866
@<TRIPOS>BOND
     1    41    40    1
     2     9     7   ar
     3     9    10   ar
     4     7     6   ar
     5    48    50   ar
     6    48    47   ar
     7    10     8   ar
     8     6     5    1
     9     6     8   ar
    10     5     2    1
    11    46    47    1
    12    46    43    1
    13    38    39    2
    14    38    37    1
    15     4     3    2
    16    40    37    1
    17    50    51   ar
    18    47    49   ar
    19    44    45    2
    20    44    43    1
    21    36    37    1
    22    43    42    1
    23     2     3    1
    24     2     1    1
    25     3    11   am
    26    51    49   ar
    27    11    12    1
    28    12    15    1
    29    12    13    1
    30    16    15    1
    31    16    17    1
    32    60    58   ar
    33    60    61   ar
    34    17    19   ar
    35    17    18   ar
    36    25    27    1
    37    25    24    1
    38    76    74    1
    39    58    57   ar
    40    20    13   am
    41    20    21    1
    42    61    59   ar
    43    13    14    2
    44    75    74    1
    45    24    21    1
    46    24    26    1
    47    74    73    1
    48    21    22    1
    49    86    84   ar
    50    86    87   ar
    51    57    59   ar
    52    57    56    1
    53    84    82   ar
    54    23    22    2
    55    88    87    1
    56    22    28   am
    57    87    85   ar
    58    73    70    1
    59    82    81    1
    60    82    83   ar
    61    56    53    1
    62    81    78    1
    63    35    33    1
    64    34    33    1
    65    33    32    1
    66    70    69    1
    67    70    71    1
    68    85    83   ar
    69    80    79    2
    70    68    66    1
    71    28    29    1
    72    53    54    1
    73    53    52    1
    74    79    78    1
    75    72    71    2
    76    55    54    2
    77    78    77    1
    78    69    64   am
    79    29    32    1
    80    29    30    1
    81    66    67    1
    82    66    63    1
    83    64    65    2
    84    64    63    1
    85    63    62    1
    86    30    31    2
