@<TRIPOS>MOLECULE
tmp/5yifA00.pdb
 167 164 0 0 0
SMALL
GASTEIGER

@<TRIPOS>ATOM
      1  N          3.3070  -40.8990  -14.9860 N.3    17  GLN17      -0.1245
      2  CA         3.0910  -42.2130  -14.4540 C.3    17  GLN17       0.1566
      3  C          1.8890  -42.9930  -14.9860 C.2    17  GLN17       0.2260
      4  O          1.8730  -44.1890  -14.9600 O.2    17  GLN17      -0.2867
      5  CB         2.9780  -42.1040  -12.9550 C.3    17  GLN17       0.0367
      6  CG         4.1610  -41.4880  -12.2970 C.3    17  GLN17       0.0905
      7  CD         4.0450  -41.4890  -10.7980 C.2    17  GLN17       0.2608
      8  OE1        3.6810  -40.5200  -10.2240 O.2    17  GLN17      -0.2717
      9  NE2        4.3810  -42.5730  -10.1750 N.am   17  GLN17      -0.0878
     10  N          3.5500  -31.9910  -11.8370 N.3   118  HIS118     -0.1226
     11  CA         3.9460  -33.2530  -11.1760 C.3   118  HIS118      0.1752
     12  C          5.2070  -33.8090  -11.8620 C.2   118  HIS118      0.2596
     13  O          5.2080  -34.9440  -12.3270 O.2   118  HIS118     -0.2718
     14  CB         2.7810  -34.2910  -11.1990 C.3   118  HIS118      0.0759
     15  CG         2.8180  -35.2920  -10.0720 C.ar  118  HIS118      0.0818
     16  ND1        1.7430  -35.5160   -9.2330 N.ar  118  HIS118     -0.2268
     17  CD2        3.7910  -36.1420   -9.6680 C.ar  118  HIS118      0.1154
     18  CE1        2.0690  -36.4300   -8.3410 C.ar  118  HIS118      0.1986
     19  NE2        3.3060  -36.8310   -8.5840 N.ar  118  HIS118     -0.2212
     20  N          6.2440  -32.9680  -11.9390 N.am  119  TRP119     -0.1976
     21  CA         7.6430  -33.3270  -12.3290 C.3   119  TRP119      0.1640
     22  C          7.9880  -33.4000  -13.8530 C.2   119  TRP119      0.2290
     23  O          9.1570  -33.4870  -14.1880 O.2   119  TRP119     -0.2864
     24  CB         8.1120  -34.6210  -11.6450 C.3   119  TRP119      0.0576
     25  CG         7.8850  -34.6730  -10.1690 C.ar  119  TRP119      0.0006
     26  CD1        7.4460  -33.6490   -9.3600 C.ar  119  TRP119      0.0946
     27  CD2        8.1230  -35.7870   -9.3000 C.ar  119  TRP119      0.0152
     28  NE1        7.4280  -34.0570   -8.0490 N.ar  119  TRP119     -0.2442
     29  CE2        7.8250  -35.3660   -7.9790 C.ar  119  TRP119      0.0810
     30  CE3        8.5420  -37.0860   -9.5000 C.ar  119  TRP119      0.0012
     31  CZ2        7.9240  -36.2240   -6.8690 C.ar  119  TRP119      0.0191
     32  CZ3        8.6490  -37.9300   -8.3990 C.ar  119  TRP119      0.0001
     33  CH2        8.3490  -37.4950   -7.1020 C.ar  119  TRP119      0.0015
     34  N          3.8780  -30.1830   -7.0040 N.3   162  ASN162     -0.1225
     35  CA         3.8770  -31.3870   -6.2360 C.3   162  ASN162      0.1785
     36  C          5.2840  -31.7440   -5.8200 C.2   162  ASN162      0.2597
     37  O          6.1640  -31.9090   -6.6550 O.2   162  ASN162     -0.2718
     38  CB         3.3350  -32.5240   -7.0860 C.3   162  ASN162      0.1169
     39  CG         3.3130  -33.8470   -6.3250 C.2   162  ASN162      0.2627
     40  OD1        2.3510  -34.1420   -5.5770 O.2   162  ASN162     -0.2716
     41  ND2        4.3660  -34.6510   -6.5070 N.am  162  ASN162     -0.0877
     42  N          5.4530  -31.9340   -4.5430 N.am  163  ALA163     -0.1979
     43  CA         6.6730  -32.4900   -4.0500 C.3   163  ALA163      0.1597
     44  C          7.9460  -31.8750   -4.5350 C.2   163  ALA163      0.2287
     45  O          8.8380  -32.5450   -4.9580 O.2   163  ALA163     -0.2864
     46  CB         6.6630  -33.9920   -4.2860 C.3   163  ALA163      0.0319
     47  N         11.4590  -33.5110   -3.6290 N.3   166  MET166     -0.1245
     48  CA        11.9150  -34.6050   -4.4310 C.3   166  MET166      0.1570
     49  C         12.4450  -34.2770   -5.7920 C.2   166  MET166      0.2261
     50  O         13.5030  -34.6980   -6.1510 O.2   166  MET166     -0.2867
     51  CB        10.7700  -35.5870   -4.6240 C.3   166  MET166      0.0387
     52  CG        10.2040  -36.1160   -3.3480 C.3   166  MET166      0.0595
     53  SD        11.4950  -36.7280   -2.3070 S.3   166  MET166     -0.1393
     54  CE        11.8260  -38.2460   -3.1080 C.3   166  MET166      0.0692
     55  N          5.7250  -32.8720   -0.0070 N.3   220  VAL220     -0.1245
     56  CA         6.0680  -33.9940    0.8460 C.3   220  VAL220      0.1561
     57  C          6.0280  -33.5330    2.3110 C.2   220  VAL220      0.2260
     58  O          6.4730  -32.4180    2.6610 O.2   220  VAL220     -0.2867
     59  CB         7.4500  -34.5650    0.5020 C.3   220  VAL220      0.0252
     60  CG1        7.9850  -35.5010    1.5910 C.3   220  VAL220      0.0019
     61  CG2        7.4030  -35.2790   -0.8520 C.3   220  VAL220      0.0019
     62  N          1.6820  -34.7800    0.9250 N.3   295  ASN295     -0.1240
     63  CA         2.0380  -36.1200    0.5150 C.3   295  ASN295      0.1653
     64  C          2.8090  -36.7160    1.6680 C.2   295  ASN295      0.2266
     65  O          3.9500  -36.3520    1.9070 O.2   295  ASN295     -0.2867
     66  CB         2.9390  -36.0720   -0.6920 C.3   295  ASN295      0.1155
     67  CG         2.2150  -35.6540   -1.9590 C.2   295  ASN295      0.2627
     68  OD1        1.0400  -35.2030   -1.9350 O.2   295  ASN295     -0.2716
     69  ND2        2.9190  -35.8270   -3.1080 N.am  295  ASN295     -0.0877
     70  N          4.0090  -40.3260    3.6050 N.3   297  TYR297     -0.1241
     71  CA         4.1510  -41.7980    3.6890 C.3   297  TYR297      0.1605
     72  C          4.7950  -42.3170    4.9720 C.2   297  TYR297      0.2264
     73  O          4.3920  -43.3580    5.5200 O.2   297  TYR297     -0.2867
     74  CB         4.9190  -42.3140    2.4930 C.3   297  TYR297      0.0534
     75  CG         4.2210  -41.9920    1.1980 C.ar  297  TYR297     -0.0201
     76  CD1        4.3900  -40.7550    0.5710 C.ar  297  TYR297     -0.0009
     77  CD2        3.3660  -42.9050    0.6110 C.ar  297  TYR297     -0.0009
     78  CE1        3.7460  -40.4590   -0.6260 C.ar  297  TYR297      0.0417
     79  CE2        2.7090  -42.6210   -0.5810 C.ar  297  TYR297      0.0417
     80  CZ         2.9080  -41.4010   -1.1840 C.ar  297  TYR297      0.1957
     81  OH         2.2410  -41.1290   -2.3290 O.3   297  TYR297     -0.2866
     82  N         10.1670  -48.3660    3.6980 N.3   337  TRP337     -0.1241
     83  CA         9.5660  -47.1230    4.2070 C.3   337  TRP337      0.1605
     84  C          8.8530  -47.4720    5.4880 C.2   337  TRP337      0.2264
     85  O          8.1640  -48.4740    5.5610 O.2   337  TRP337     -0.2867
     86  CB         8.5740  -46.5060    3.2030 C.3   337  TRP337      0.0550
     87  CG         9.1970  -45.9800    1.9130 C.ar  337  TRP337      0.0003
     88  CD1       10.4590  -46.2190    1.4520 C.ar  337  TRP337      0.0946
     89  CD2        8.5520  -45.1880    0.8990 C.ar  337  TRP337      0.0152
     90  NE1       10.6450  -45.6320    0.2330 N.ar  337  TRP337     -0.2442
     91  CE2        9.5060  -44.9690   -0.1280 C.ar  337  TRP337      0.0810
     92  CE3        7.2850  -44.5970    0.7790 C.ar  337  TRP337      0.0012
     93  CZ2        9.2280  -44.2070   -1.2700 C.ar  337  TRP337      0.0191
     94  CZ3        7.0070  -43.8350   -0.3790 C.ar  337  TRP337      0.0001
     95  CH2        7.9770  -43.6580   -1.3810 C.ar  337  TRP337      0.0015
     96  N         -1.5680  -37.1840   -0.9610 N.3   364  GLU364     -0.1245
     97  CA        -1.0380  -38.5110   -1.2250 C.3   364  GLU364      0.1567
     98  C         -0.8000  -39.2200    0.0890 C.2   364  GLU364      0.2260
     99  O         -0.2490  -38.6410    1.0200 O.2   364  GLU364     -0.2867
    100  CB         0.2940  -38.4470   -1.9520 C.3   364  GLU364      0.0388
    101  CG         0.2030  -37.8430   -3.3480 C.3   364  GLU364      0.1160
    102  CD         1.3710  -38.1460   -4.2690 C.2   364  GLU364      0.3649
    103  OE1        1.6560  -37.4000   -5.2280 O.co2 364  GLU364     -0.2457
    104  OE2        1.9930  -39.1760   -4.0660 O.co2 364  GLU364     -0.2457
    105  N         -2.7750  -42.6310   -2.4430 N.3   410  TRP410     -0.1241
    106  CA        -1.8380  -42.7060   -3.5310 C.3   410  TRP410      0.1605
    107  C         -2.0130  -43.9690   -4.2740 C.2   410  TRP410      0.2264
    108  O         -1.8300  -45.0450   -3.7740 O.2   410  TRP410     -0.2867
    109  CB        -0.3680  -42.3900   -3.2450 C.3   410  TRP410      0.0550
    110  CG         0.4590  -42.5160   -4.5260 C.ar  410  TRP410      0.0003
    111  CD1        1.3760  -43.4570   -4.8090 C.ar  410  TRP410      0.0946
    112  CD2        0.3770  -41.6890   -5.6850 C.ar  410  TRP410      0.0152
    113  NE1        1.8770  -43.2750   -6.0460 N.ar  410  TRP410     -0.2442
    114  CE2        1.2820  -42.1880   -6.6100 C.ar  410  TRP410      0.0810
    115  CE3       -0.3710  -40.5640   -6.0260 C.ar  410  TRP410      0.0012
    116  CZ2        1.4680  -41.6060   -7.8380 C.ar  410  TRP410      0.0191
    117  CZ3       -0.1730  -39.9950   -7.2330 C.ar  410  TRP410      0.0001
    118  CH2        0.7270  -40.5170   -8.1290 C.ar  410  TRP410      0.0015
    119  N          5.8230  -46.2950  -10.8860 N.3   417  SER417     -0.1202
    120  CA         6.6400  -45.6810   -9.8370 C.3   417  SER417      0.2020
    121  C          7.9330  -45.3140  -10.5290 C.2   417  SER417      0.2618
    122  O          8.6420  -46.1810  -11.0390 O.2   417  SER417     -0.2717
    123  CB         6.8930  -46.6450   -8.6850 C.3   417  SER417      0.2103
    124  OG         7.8420  -46.1040   -7.7740 O.3   417  SER417     -0.2182
    125  N          8.1780  -44.0130  -10.5940 N.am  418  TRP418     -0.1975
    126  CA         9.3580  -43.3800  -11.2610 C.3   418  TRP418      0.1640
    127  C         10.6260  -44.2410  -11.2930 C.2   418  TRP418      0.2290
    128  O         11.1800  -44.5170  -12.3470 O.2   418  TRP418     -0.2864
    129  CB         9.7100  -42.0460  -10.5770 C.3   418  TRP418      0.0576
    130  CG         8.5660  -41.1460  -10.4270 C.ar  418  TRP418      0.0006
    131  CD1        7.7340  -41.0650   -9.3510 C.ar  418  TRP418      0.0946
    132  CD2        8.0740  -40.2160  -11.4000 C.ar  418  TRP418      0.0152
    133  NE1        6.7590  -40.1390   -9.5920 N.ar  418  TRP418     -0.2442
    134  CE2        6.9480  -39.5900  -10.8350 C.ar  418  TRP418      0.0810
    135  CE3        8.4910  -39.8380  -12.6900 C.ar  418  TRP418      0.0012
    136  CZ2        6.2260  -38.5820  -11.5080 C.ar  418  TRP418      0.0191
    137  CZ3        7.7840  -38.8480  -13.3640 C.ar  418  TRP418      0.0001
    138  CH2        6.6480  -38.2370  -12.7720 C.ar  418  TRP418      0.0015
    139  N         10.9300  -47.3700   -9.3840 N.3   420  ASN420     -0.1240
    140  CA        10.6700  -48.7290   -8.8920 C.3   420  ASN420      0.1653
    141  C          9.8570  -49.6430   -9.8380 C.2   420  ASN420      0.2266
    142  O          9.4040  -50.7680   -9.4630 O.2   420  ASN420     -0.2867
    143  CB         9.9550  -48.6160   -7.5530 C.3   420  ASN420      0.1155
    144  CG        10.7370  -47.7870   -6.5570 C.2   420  ASN420      0.2627
    145  OD1       11.7800  -48.1960   -6.1190 O.2   420  ASN420     -0.2716
    146  ND2       10.2160  -46.6210   -6.1860 N.am  420  ASN420     -0.0877
    147  N          6.1690  -51.8180   -7.8120 N.3   424  LYS424     -0.1245
    148  CA         5.7380  -51.1130   -6.6240 C.3   424  LYS424      0.1561
    149  C          4.3440  -50.5820   -6.8940 C.2   424  LYS424      0.2260
    150  O          4.1440  -49.4390   -7.3350 O.2   424  LYS424     -0.2867
    151  CB         6.7180  -50.0270   -6.2150 C.3   424  LYS424      0.0271
    152  CG         6.6620  -49.7510   -4.7180 C.3   424  LYS424      0.0035
    153  CD         7.7870  -48.8770   -4.2030 C.3   424  LYS424      0.0206
    154  CE         7.3330  -47.4890   -3.8290 C.3   424  LYS424      0.1093
    155  NZ         8.1980  -46.8630   -2.7820 N.3   424  LYS424     -0.1314
    156  N          0.6070  -49.4460   -6.0020 N.3   426  TYR426     -0.1241
    157  CA        -0.0240  -48.5370   -5.0970 C.3   426  TYR426      0.1605
    158  C         -1.5100  -48.3370   -5.3670 C.2   426  TYR426      0.2264
    159  O         -2.1360  -47.5900   -4.6590 O.2   426  TYR426     -0.2867
    160  CB         0.5950  -47.1620   -5.2520 C.3   426  TYR426      0.0534
    161  CG         1.8240  -46.8250   -4.4690 C.ar  426  TYR426     -0.0201
    162  CD1        1.7450  -46.4580   -3.1610 C.ar  426  TYR426     -0.0009
    163  CD2        3.0420  -46.7800   -5.0710 C.ar  426  TYR426     -0.0009
    164  CE1        2.8570  -46.1160   -2.4610 C.ar  426  TYR426      0.0417
    165  CE2        4.1590  -46.4030   -4.3880 C.ar  426  TYR426      0.0417
    166  CZ         4.0540  -46.0930   -3.0820 C.ar  426  TYR426      0.1957
    167  OH         5.1380  -45.7400   -2.3940 O.3   426  TYR426     -0.2866
@<TRIPOS>BOND
     1     1     2    1
     2     3     4    2
     3     3     2    1
     4     2     5    1
     5    23    22    2
     6    22    21    1
     7   137   138   ar
     8   137   135   ar
     9     5     6    1
    10   138   136   ar
    11   135   132   ar
    12   128   127    2
    13    21    20    1
    14    21    24    1
    15    13    12    2
    16     6     7    1
    17    20    12   am
    18    12    11    1
    19    10    11    1
    20    24    25    1
    21   136   134   ar
    22   132   134   ar
    23   132   130   ar
    24   127   126    1
    25   126   125    1
    26   126   129    1
    27    14    11    1
    28    14    15    1
    29   122   121    2
    30   119   120    1
    31   134   133   ar
    32     7     8    2
    33     7     9   am
    34   125   121   am
    35   129   130    1
    36   121   120    1
    37   130   131   ar
    38    25    26   ar
    39    25    27   ar
    40    15    17   ar
    41    15    16   ar
    42   141   142    2
    43   141   140    1
    44   120   123    1
    45    17    19   ar
    46   133   131   ar
    47    30    27   ar
    48    30    32   ar
    49   139   140    1
    50    26    28   ar
    51    27    29   ar
    52    16    18   ar
    53   140   143    1
    54   123   124    1
    55    19    18   ar
    56    32    33   ar
    57   118   116   ar
    58   118   117   ar
    59    28    29   ar
    60    29    31   ar
    61   116   114   ar
    62   147   148    1
    63   143   144    1
    64   150   149    2
    65   117   115   ar
    66    33    31   ar
    67    38    39    1
    68    38    35    1
    69    34    35    1
    70   149   148    1
    71    37    36    2
    72   148   151    1
    73   114   113   ar
    74   114   112   ar
    75   144   146   am
    76   144   145    2
    77    41    39   am
    78    39    40    2
    79    35    36    1
    80   151   152    1
    81    50    49    2
    82   113   111   ar
    83   115   112   ar
    84   156   157    1
    85    36    42   am
    86    49    48    1
    87   112   110   ar
    88   158   157    1
    89   158   159    2
    90   160   157    1
    91   160   161    1
    92   103   102   ar
    93   163   161   ar
    94   163   165   ar
    95    45    44    2
    96   111   110   ar
    97   152   153    1
    98    51    48    1
    99    51    52    1
   100    42    43    1
   101    44    43    1
   102   110   109    1
   103   161   162   ar
   104    48    47    1
   105   165   166   ar
   106    46    43    1
   107   107   108    2
   108   107   106    1
   109   102   104   ar
   110   102   101    1
   111   153   154    1
   112   154   155    1
   113   106   109    1
   114   106   105    1
   115    52    53    1
   116   101   100    1
   117   162   164   ar
   118    69    67   am
   119    54    53    1
   120   166   164   ar
   121   166   167    1
   122    81    80    1
   123    67    68    2
   124    67    66    1
   125   100    97    1
   126    95    93   ar
   127    95    94   ar
   128    93    91   ar
   129    97    96    1
   130    97    98    1
   131    80    78   ar
   132    80    79   ar
   133    61    59    1
   134    66    63    1
   135    78    76   ar
   136    79    77   ar
   137    94    92   ar
   138    91    90   ar
   139    91    89   ar
   140    55    56    1
   141    98    99    2
   142    90    88   ar
   143    59    56    1
   144    59    60    1
   145    63    62    1
   146    63    64    1
   147    76    75   ar
   148    77    75   ar
   149    92    89   ar
   150    56    57    1
   151    89    87   ar
   152    75    74    1
   153    88    87   ar
   154    64    65    2
   155    87    86    1
   156    57    58    2
   157    74    71    1
   158    86    83    1
   159    70    71    1
   160    71    72    1
   161    82    83    1
   162    83    84    1
   163    72    73    2
   164    84    85    2
