@<TRIPOS>MOLECULE
tmp/5yigA00.pdb
 135 123 0 0 0
SMALL
GASTEIGER

@<TRIPOS>ATOM
      1  N         42.7190   -2.1950   39.3130 N.3    31  ILE31      -0.1245
      2  CA        42.7740   -1.2990   38.1620 C.3    31  ILE31       0.1561
      3  C         41.9780   -1.8520   36.9790 C.2    31  ILE31       0.2260
      4  O         41.2200   -1.1250   36.3350 O.2    31  ILE31      -0.2867
      5  CB        44.2300   -1.0550   37.7310 C.3    31  ILE31       0.0252
      6  CG1       45.0520   -0.5790   38.9220 C.3    31  ILE31       0.0019
      7  CG2       44.3010   -0.0310   36.6190 C.3    31  ILE31       0.0019
      8  CD1       44.5410    0.6960   39.5170 C.3    31  ILE31       0.0001
      9  N         38.2040   -1.5420   37.0790 N.3    34  ASN34      -0.1225
     10  CA        37.6950   -0.2210   36.7280 C.3    34  ASN34       0.1785
     11  C         37.5500   -0.0500   35.2250 C.2    34  ASN34       0.2597
     12  O         36.6300    0.6160   34.7480 O.2    34  ASN34      -0.2718
     13  CB        38.6090    0.8640   37.2800 C.3    34  ASN34       0.1169
     14  CG        38.5180    0.9920   38.7730 C.2    34  ASN34       0.2627
     15  OD1       37.4690    0.7480   39.3620 O.2    34  ASN34      -0.2716
     16  ND2       39.6290    1.3530   39.4030 N.am   34  ASN34      -0.0877
     17  N         38.4480   -0.6780   34.4780 N.am   35  ALA35      -0.1979
     18  CA        38.3510   -0.6730   33.0300 C.3    35  ALA35       0.1597
     19  C         37.1930   -1.5650   32.6060 C.2    35  ALA35       0.2287
     20  O         36.4960   -1.2720   31.6320 O.2    35  ALA35      -0.2864
     21  CB        39.6520   -1.1440   32.4020 C.3    35  ALA35       0.0319
     22  N         34.5500   -2.1110   34.4160 N.3    37  ASP37      -0.1225
     23  CA        33.3350   -1.4310   34.8370 C.3    37  ASP37       0.1805
     24  C         32.9980   -0.3140   33.8440 C.2    37  ASP37       0.2597
     25  O         31.8740    0.1780   33.8100 O.2    37  ASP37      -0.2718
     26  CB        33.4870   -0.9010   36.2650 C.3    37  ASP37       0.1424
     27  CG        32.1630   -0.4800   36.8790 C.2    37  ASP37       0.3668
     28  OD1       31.2450   -1.3270   36.9580 O.co2  37  ASP37      -0.2456
     29  OD2       32.0580    0.6810   37.3310 O.co2  37  ASP37      -0.2456
     30  N         33.9700    0.0570   33.0150 N.am   38  GLU38      -0.1979
     31  CA        33.7410    1.0300   31.9540 C.3    38  GLU38       0.1602
     32  C         33.1290    0.3680   30.7440 C.2    38  GLU38       0.2287
     33  O         32.1770    0.8860   30.1590 O.2    38  GLU38      -0.2864
     34  CB        35.0460    1.6760   31.5150 C.3    38  GLU38       0.0415
     35  CG        35.1560    3.1110   31.8460 C.3    38  GLU38       0.1163
     36  CD        34.0790    3.9750   31.2300 C.2    38  GLU38       0.3649
     37  OE1       34.2950    4.4850   30.1140 O.co2  38  GLU38      -0.2457
     38  OE2       33.0260    4.1620   31.8750 O.co2  38  GLU38      -0.2457
     39  N         29.6710   -0.4990   31.1490 N.3    41  SER41      -0.1217
     40  CA        28.8520    0.7000   31.0540 C.3    41  SER41       0.1889
     41  C         28.7520    1.1560   29.6050 C.2    41  SER41       0.2288
     42  O         28.1070    2.1600   29.3080 O.2    41  SER41      -0.2866
     43  CB        29.4280    1.8150   31.9290 C.3    41  SER41       0.2089
     44  OG        29.3240    1.4810   33.3030 O.3    41  SER41      -0.2183
     45  N         47.6520   -0.9410   32.6040 N.3    59  VAL59      -0.1245
     46  CA        46.3120   -1.2590   32.1290 C.3    59  VAL59       0.1561
     47  C         45.7950   -0.0850   31.3210 C.2    59  VAL59       0.2260
     48  O         45.7700    1.0490   31.8060 O.2    59  VAL59      -0.2867
     49  CB        45.3250   -1.5450   33.2820 C.3    59  VAL59       0.0252
     50  CG1       43.9540   -1.8890   32.7290 C.3    59  VAL59       0.0019
     51  CG2       45.8370   -2.6590   34.1730 C.3    59  VAL59       0.0019
     52  N         42.4890    1.1270   28.8920 N.3    61  ASP61      -0.1239
     53  CA        41.1730    0.9220   28.2810 C.3    61  ASP61       0.1674
     54  C         40.9020    2.0160   27.2630 C.2    61  ASP61       0.2266
     55  O         41.7100    2.9260   27.0960 O.2    61  ASP61      -0.2867
     56  CB        40.0510    0.8790   29.3420 C.3    61  ASP61       0.1410
     57  CG        39.8590    2.2110   30.0880 C.2    61  ASP61       0.3668
     58  OD1       39.7180    3.2750   29.4410 O.co2  61  ASP61      -0.2456
     59  OD2       39.8450    2.1890   31.3410 O.co2  61  ASP61      -0.2456
     60  N         35.6590    6.4860   28.3460 N.3    64  ARG64      -0.1231
     61  CA        35.4860    7.9300   28.3070 C.3    64  ARG64       0.1694
     62  C         36.6570    8.6760   28.9280 C.2    64  ARG64       0.2593
     63  O         36.7770    9.8890   28.7670 O.2    64  ARG64      -0.2718
     64  CB        34.1890    8.3160   29.0140 C.3    64  ARG64       0.0321
     65  CG        32.9530    7.7830   28.3150 C.3    64  ARG64       0.0489
     66  CD        31.7240    7.9160   29.1790 C.3    64  ARG64       0.2205
     67  NE        31.7540    7.0220   30.3280 N.pl3  64  ARG64      -0.0865
     68  CZ        30.8050    6.9850   31.2570 C.cat  64  ARG64       0.5346
     69  NH1       29.7540    7.7890   31.1600 N.pl3  64  ARG64       0.1354
     70  NH2       30.9000    6.1380   32.2730 N.pl3  64  ARG64       0.1354
     71  N         37.5080    7.9490   29.6480 N.am   65  GLY65      -0.1942
     72  CA        38.5950    8.5600   30.3900 C.3    65  GLY65       0.2014
     73  C         38.0950    9.1310   31.7100 C.2    65  GLY65       0.2639
     74  O         36.9850    9.6680   31.7780 O.2    65  GLY65      -0.2714
     75  N         38.8940    9.0030   32.7660 N.am   66  MET66      -0.1963
     76  CA        38.5330    9.5880   34.0550 C.3    66  MET66       0.1722
     77  C         38.3630   11.0950   33.8950 C.2    66  MET66       0.2458
     78  O         38.9980   11.6980   33.0340 O.2    66  MET66      -0.2730
     79  CB        39.5970    9.2980   35.1130 C.3    66  MET66       0.0427
     80  CG        39.9870    7.8480   35.2390 C.3    66  MET66       0.0599
     81  SD        40.9610    7.5540   36.7260 S.3    66  MET66      -0.1393
     82  CE        39.6610    7.1350   37.8800 C.3    66  MET66       0.0692
     83  N         37.5020   11.7030   34.7220 N.am   67  PRO67      -0.2727
     84  CA        37.2540   13.1510   34.7150 C.3    67  PRO67       0.1402
     85  C         38.5300   13.9950   34.7880 C.2    67  PRO67       0.2269
     86  O         39.4860   13.6510   35.4870 O.2    67  PRO67      -0.2865
     87  CB        36.3850   13.3590   35.9580 C.3    67  PRO67       0.0296
     88  CG        35.6490   12.0760   36.0970 C.3    67  PRO67       0.0237
     89  CD        36.6000   10.9980   35.6500 C.3    67  PRO67       0.0939
     90  N         40.5090   10.8410   43.4570 N.3    81  ILE81      -0.1245
     91  CA        40.2700    9.4200   43.2680 C.3    81  ILE81       0.1561
     92  C         41.4590    8.5640   43.7390 C.2    81  ILE81       0.2260
     93  O         41.2680    7.4940   44.3280 O.2    81  ILE81      -0.2867
     94  CB        39.9400    9.1230   41.7920 C.3    81  ILE81       0.0252
     95  CG1       38.5800    9.7330   41.4410 C.3    81  ILE81       0.0019
     96  CG2       39.9280    7.6330   41.5270 C.3    81  ILE81       0.0019
     97  CD1       38.2300    9.6920   39.9740 C.3    81  ILE81       0.0001
     98  N         37.0180    2.5660   45.3530 N.3    88  VAL88      -0.1245
     99  CA        37.9910    2.6280   46.4350 C.3    88  VAL88       0.1561
    100  C         39.3310    2.0220   46.0080 C.2    88  VAL88       0.2260
    101  O         40.3800    2.3150   46.5890 O.2    88  VAL88      -0.2867
    102  CB        37.4600    1.9040   47.6830 C.3    88  VAL88       0.0252
    103  CG1       38.3920    2.1080   48.8660 C.3    88  VAL88       0.0019
    104  CG2       36.0680    2.4110   48.0200 C.3    88  VAL88       0.0019
    105  N         41.3580    2.3760   43.3300 N.3    90  SER90      -0.1217
    106  CA        42.4030    3.1630   42.6850 C.3    90  SER90       0.1889
    107  C         43.4350    3.7020   43.6740 C.2    90  SER90       0.2288
    108  O         44.6390    3.6200   43.4310 O.2    90  SER90      -0.2866
    109  CB        41.7750    4.3260   41.9200 C.3    90  SER90       0.2089
    110  OG        40.8740    3.8600   40.9350 O.3    90  SER90      -0.2183
    111  N         40.9600   12.6790   26.4780 N.3   106  ARG106     -0.1245
    112  CA        39.6060   13.0720   26.1010 C.3   106  ARG106      0.1563
    113  C         39.5820   14.4900   25.5480 C.2   106  ARG106      0.2260
    114  O         40.5060   15.2740   25.7890 O.2   106  ARG106     -0.2867
    115  CB        38.6340   12.9280   27.2720 C.3   106  ARG106      0.0307
    116  CG        39.0610   13.6000   28.5480 C.3   106  ARG106      0.0489
    117  CD        38.1830   13.1260   29.6960 C.3   106  ARG106      0.2205
    118  NE        36.7870   13.5150   29.5330 N.pl3 106  ARG106     -0.0865
    119  CZ        35.8040   13.0970   30.3230 C.cat 106  ARG106      0.5346
    120  NH1       36.0650   12.2620   31.3220 N.pl3 106  ARG106      0.1354
    121  NH2       34.5580   13.5040   30.1100 N.pl3 106  ARG106      0.1354
    122  N         41.7350    5.7240   29.4920 N.3   138  THR138     -0.1218
    123  CA        42.5620    5.8970   30.6790 C.3   138  THR138      0.1862
    124  C         43.7080    4.8920   30.6960 C.2   138  THR138      0.2287
    125  O         43.4930    3.7010   30.4760 O.2   138  THR138     -0.2866
    126  CB        41.7240    5.7340   31.9590 C.3   138  THR138      0.1770
    127  OG1       40.6310    6.6600   31.9360 O.3   138  THR138     -0.2211
    128  CG2       42.5730    5.9690   33.2000 C.3   138  THR138      0.0375
    129  N         46.6760    3.5360   33.2290 N.3   140  VAL140     -0.1245
    130  CA        47.3020    3.5520   34.5480 C.3   140  VAL140      0.1561
    131  C         48.5230    2.6500   34.5640 C.2   140  VAL140      0.2260
    132  O         48.4470    1.4850   34.1800 O.2   140  VAL140     -0.2867
    133  CB        46.3310    3.1000   35.6650 C.3   140  VAL140      0.0252
    134  CG1       47.0500    3.0460   37.0130 C.3   140  VAL140      0.0019
    135  CG2       45.1390    4.0260   35.7400 C.3   140  VAL140      0.0019
@<TRIPOS>BOND
     1   113   114    2
     2   113   112    1
     3   112   111    1
     4   112   115    1
     5    55    54    2
     6    54    53    1
     7   115   116    1
     8    53    52    1
     9    53    56    1
    10    61    60    1
    11    61    62    1
    12    61    64    1
    13    65    64    1
    14    65    66    1
    15   116   117    1
    16    63    62    2
    17    62    71   am
    18    66    67    1
    19    42    41    2
    20    56    57    1
    21    58    57   ar
    22   122   123    1
    23   118   117    1
    24   118   119    2
    25    41    40    1
    26    71    72    1
    27    57    59   ar
    28   121   119    1
    29    37    36   ar
    30    33    32    2
    31   119   120    1
    32    67    68    2
    33    72    73    1
    34   125   124    2
    35   123   124    1
    36   123   126    1
    37    32    31    1
    38    40    39    1
    39    40    43    1
    40    69    68    1
    41    36    35    1
    42    36    38   ar
    43    68    70    1
    44    47    48    2
    45    47    46    1
    46    34    35    1
    47    34    31    1
    48    20    19    2
    49    73    74    2
    50    73    75   am
    51    43    44    1
    52   127   126    1
    53    31    30    1
    54   126   128    1
    55    46    45    1
    56    46    49    1
    57    21    18    1
    58    19    18    1
    59    50    49    1
    60    75    76    1
    61    30    24   am
    62    18    17    1
    63    78    77    2
    64   129   130    1
    65    49    51    1
    66    25    24    2
    67    24    23    1
    68    77    76    1
    69    77    83   am
    70    76    79    1
    71   132   131    2
    72    22    23    1
    73    17    11   am
    74   130   131    1
    75   130   133    1
    76    84    83    1
    77    84    85    1
    78    84    87    1
    79    83    89    1
    80    12    11    2
    81    85    86    2
    82    23    26    1
    83    79    80    1
    84    11    10    1
    85    80    81    1
    86    89    88    1
    87   133   135    1
    88   133   134    1
    89    87    88    1
    90    26    27    1
    91     4     3    2
    92     7     5    1
    93    81    82    1
    94    10     9    1
    95    10    13    1
    96    27    28   ar
    97    27    29   ar
    98     3     2    1
    99    13    14    1
   100     5     2    1
   101     5     6    1
   102     2     1    1
   103    14    15    2
   104    14    16   am
   105     6     8    1
   106    97    95    1
   107   110   109    1
   108    95    94    1
   109    96    94    1
   110    94    91    1
   111   109   106    1
   112   106   105    1
   113   106   107    1
   114    91    90    1
   115    91    92    1
   116   108   107    2
   117    92    93    2
   118    98    99    1
   119   100    99    1
   120   100   101    2
   121    99   102    1
   122   102   104    1
   123   102   103    1
