@<TRIPOS>MOLECULE
tmp/5yijA00.pdb
 200 191 0 0 0
SMALL
GASTEIGER

@<TRIPOS>ATOM
      1  N        383.2470  -17.9320  347.2070 N.3   479  MET479     -0.1182
      2  CA       382.1710  -17.8520  346.2300 C.3   479  MET479      0.1917
      3  C        382.4330  -16.8100  345.1820 C.2   479  MET479      0.2635
      4  O        382.1870  -17.0390  344.0310 O.2   479  MET479     -0.2714
      5  CB       380.8380  -17.5370  346.9060 C.2   479  MET479      0.0083
      6  CG       379.6000  -17.9200  346.1070 C.2   479  MET479      0.0282
      7  SD       378.0360  -17.3850  346.8000 S.3   479  MET479     -0.1125
      8  CE       377.9480  -15.7160  346.2160 C.3   479  MET479      0.0742
      9  N        382.9230  -15.6590  345.5790 N.am  480  GLN480     -0.1963
     10  CA       383.1730  -14.6280  344.6230 C.3   480  GLN480      0.1733
     11  C        384.6030  -14.7160  344.2840 C.2   480  GLN480      0.2616
     12  O        385.4360  -14.7710  345.1400 O.2   480  GLN480     -0.2715
     13  CB       382.8880  -13.2620  345.2060 C.3   480  GLN480      0.0408
     14  CG       383.7090  -12.8550  346.4090 C.3   480  GLN480      0.0908
     15  CD       383.3840  -11.4490  346.8450 C.2   480  GLN480      0.2608
     16  OE1      383.0210  -10.6230  346.0350 O.2   480  GLN480     -0.2717
     17  NE2      383.4900  -11.1850  348.1210 N.am  480  GLN480     -0.0878
     18  N        384.8920  -14.7290  343.0090 N.am  481  ASN481     -0.1972
     19  CA       386.2230  -15.0180  342.5160 C.3   481  ASN481      0.1688
     20  C        386.4360  -16.4630  342.2910 C.2   481  ASN481      0.2292
     21  O        385.5440  -17.2650  342.3110 O.2   481  ASN481     -0.2864
     22  CB       387.3540  -14.3080  343.3040 C.3   481  ASN481      0.1181
     23  CG       388.0240  -15.1390  344.4030 C.2   481  ASN481      0.2629
     24  OD1      388.0260  -16.3660  344.4490 O.2   481  ASN481     -0.2716
     25  ND2      388.6780  -14.4160  345.2900 N.am  481  ASN481     -0.0877
     26  N        382.8860  -21.1940  341.5500 N.3   486  PHE486     -0.1227
     27  CA       381.5200  -20.7210  341.3210 C.3   486  PHE486      0.1736
     28  C        381.0020  -21.1170  339.9420 C.2   486  PHE486      0.2596
     29  O        379.7960  -21.2110  339.7300 O.2   486  PHE486     -0.2718
     30  CB       381.4240  -19.1970  341.4990 C.3   486  PHE486      0.0547
     31  CG       382.0060  -18.4030  340.3600 C.ar  486  PHE486     -0.0202
     32  CD1      381.3630  -18.3390  339.1320 C.ar  486  PHE486     -0.0042
     33  CD2      383.1780  -17.6900  340.5280 C.ar  486  PHE486     -0.0042
     34  CE1      381.8950  -17.6160  338.0910 C.ar  486  PHE486     -0.0003
     35  CE2      383.7100  -16.9530  339.4890 C.ar  486  PHE486     -0.0003
     36  CZ       383.0670  -16.9170  338.2690 C.ar  486  PHE486     -0.0000
     37  N        381.9160  -21.3180  339.0000 N.am  487  SER487     -0.1952
     38  CA       381.5360  -21.7040  337.6510 C.3   487  SER487      0.1924
     39  C        380.9270  -23.0910  337.6680 C.2   487  SER487      0.2314
     40  O        379.9390  -23.3580  336.9890 O.2   487  SER487     -0.2863
     41  CB       382.7440  -21.6710  336.7180 C.3   487  SER487      0.2116
     42  OG       383.3430  -20.3880  336.7070 O.3   487  SER487     -0.2180
     43  N        377.5590  -23.0600  340.2420 N.3   490  ASN490     -0.1240
     44  CA       376.3790  -22.4880  339.6010 C.3   490  ASN490      0.1653
     45  C        375.9160  -23.3260  338.4130 C.2   490  ASN490      0.2266
     46  O        374.7220  -23.5600  338.2360 O.2   490  ASN490     -0.2867
     47  CB       376.6560  -21.0490  339.1550 C.3   490  ASN490      0.1155
     48  CG       376.8390  -20.0990  340.3230 C.2   490  ASN490      0.2627
     49  OD1      376.7180  -20.4940  341.4800 O.2   490  ASN490     -0.2716
     50  ND2      377.1370  -18.8410  340.0250 N.am  490  ASN490     -0.0877
     51  N        372.1110  -25.1850  338.5910 N.3   494  GLN494     -0.1245
     52  CA       371.0480  -24.9490  337.6230 C.3   494  GLN494      0.1566
     53  C        370.9630  -26.0720  336.5990 C.2   494  GLN494      0.2260
     54  O        370.2740  -25.9450  335.5900 O.2   494  GLN494     -0.2867
     55  CB       371.2570  -23.6090  336.9140 C.3   494  GLN494      0.0367
     56  CG       371.2390  -22.4070  337.8420 C.3   494  GLN494      0.0905
     57  CD       371.3860  -21.0960  337.1000 C.2   494  GLN494      0.2608
     58  OE1      371.5410  -20.0410  337.7090 O.2   494  GLN494     -0.2717
     59  NE2      371.3380  -21.1560  335.7750 N.am  494  GLN494     -0.0878
     60  N        372.7700  -27.1020  334.3340 N.3   496  ARG496     -0.1245
     61  CA       373.2130  -26.7950  332.9790 C.3   496  ARG496      0.1563
     62  C        374.7220  -26.9370  332.8410 C.2   496  ARG496      0.2260
     63  O        375.3550  -26.2210  332.0630 O.2   496  ARG496     -0.2867
     64  CB       372.7750  -25.3880  332.5760 C.3   496  ARG496      0.0307
     65  CG       372.9200  -24.3460  333.6650 C.3   496  ARG496      0.0489
     66  CD       374.2660  -23.6530  333.6200 C.3   496  ARG496      0.2205
     67  NE       374.2170  -22.3830  334.3360 N.pl3 496  ARG496     -0.0865
     68  CZ       375.2740  -21.6170  334.5820 C.cat 496  ARG496      0.5346
     69  NH1      376.4780  -21.9920  334.1730 N.pl3 496  ARG496      0.1354
     70  NH2      375.1260  -20.4780  335.2430 N.pl3 496  ARG496      0.1354
     71  N        372.0820   -7.6780  337.0100 N.3   533  ARG533     -0.1231
     72  CA       372.8220   -8.9040  336.7820 C.3   533  ARG533      0.1694
     73  C        373.1450   -9.0620  335.3010 C.2   533  ARG533      0.2593
     74  O        372.2750   -8.8940  334.4460 O.2   533  ARG533     -0.2718
     75  CB       372.0350  -10.1060  337.2930 C.3   533  ARG533      0.0321
     76  CG       372.6880  -11.4290  336.9830 C.3   533  ARG533      0.0489
     77  CD       371.8860  -12.5810  337.5360 C.3   533  ARG533      0.2205
     78  NE       372.4000  -13.8580  337.0570 N.pl3 533  ARG533     -0.0865
     79  CZ       373.5960  -14.3400  337.3760 C.cat 533  ARG533      0.5346
     80  NH1      373.9920  -15.5140  336.9010 N.pl3 533  ARG533      0.1354
     81  NH2      374.3980  -13.6450  338.1680 N.pl3 533  ARG533      0.1354
     82  N        374.4030   -9.3730  335.0040 N.am  534  GLY534     -0.1942
     83  CA       374.8470   -9.4980  333.6300 C.3   534  GLY534      0.2014
     84  C        375.2000  -10.9210  333.2520 C.2   534  GLY534      0.2639
     85  O        375.7390  -11.6780  334.0550 O.2   534  GLY534     -0.2714
     86  N        374.8890  -11.2840  332.0160 N.am  535  LEU535     -0.1963
     87  CA       375.2290  -12.5970  331.4960 C.3   535  LEU535      0.1728
     88  C        375.7870  -12.4540  330.0910 C.2   535  LEU535      0.2616
     89  O        375.4960  -11.4800  329.4000 O.2   535  LEU535     -0.2715
     90  CB       374.0060  -13.5130  331.4810 C.3   535  LEU535      0.0311
     91  CG       373.1770  -13.6490  332.7580 C.3   535  LEU535      0.0022
     92  CD1      371.8430  -14.2920  332.4280 C.3   535  LEU535      0.0001
     93  CD2      373.9120  -14.4620  333.8110 C.3   535  LEU535      0.0001
     94  N        376.5930  -13.4230  329.6700 N.am  536  ASN536     -0.1958
     95  CA       377.0920  -13.4440  328.3040 C.3   536  ASN536      0.1819
     96  C        376.4040  -14.5340  327.5080 C.2   536  ASN536      0.2621
     97  O        376.5360  -15.7170  327.8150 O.2   536  ASN536     -0.2715
     98  CB       378.6060  -13.6390  328.2780 C.3   536  ASN536      0.1195
     99  CG       379.3550  -12.4100  328.7440 C.2   536  ASN536      0.2630
    100  OD1      378.9120  -11.7050  329.6520 O.2   536  ASN536     -0.2716
    101  ND2      380.4930  -12.1370  328.1160 N.am  536  ASN536     -0.0877
    102  N        375.6620  -14.1240  326.4870 N.am  537  LEU537     -0.1977
    103  CA       374.8680  -15.0590  325.7090 C.3   537  LEU537      0.1596
    104  C        374.9080  -14.7180  324.2270 C.2   537  LEU537      0.2287
    105  O        375.1300  -13.5670  323.8560 O.2   537  LEU537     -0.2864
    106  CB       373.4270  -15.0620  326.2140 C.3   537  LEU537      0.0297
    107  CG       373.2670  -15.2960  327.7170 C.3   537  LEU537      0.0022
    108  CD1      371.8550  -14.9620  328.1570 C.3   537  LEU537      0.0001
    109  CD2      373.6280  -16.7320  328.0780 C.3   537  LEU537      0.0001
    110  N        370.4200  -16.5940  320.9880 N.3   541  PHE541     -0.1241
    111  CA       369.7770  -17.1120  322.1960 C.3   541  PHE541      0.1605
    112  C        369.1290  -15.9840  323.0040 C.2   541  PHE541      0.2264
    113  O        368.1550  -16.1960  323.7240 O.2   541  PHE541     -0.2867
    114  CB       370.7850  -17.8710  323.0600 C.3   541  PHE541      0.0534
    115  CG       370.2640  -18.2350  324.4190 C.ar  541  PHE541     -0.0203
    116  CD1      369.5340  -19.3950  324.6110 C.ar  541  PHE541     -0.0042
    117  CD2      370.5040  -17.4170  325.5070 C.ar  541  PHE541     -0.0042
    118  CE1      369.0540  -19.7300  325.8650 C.ar  541  PHE541     -0.0003
    119  CE2      370.0280  -17.7470  326.7590 C.ar  541  PHE541     -0.0003
    120  CZ       369.3030  -18.9040  326.9380 C.ar  541  PHE541     -0.0000
    121  N        365.9470  -18.7810  335.7380 N.3   580  MET580     -0.1245
    122  CA       367.2960  -18.5130  335.2540 C.3   580  MET580      0.1570
    123  C        368.1350  -17.8960  336.3580 C.2   580  MET580      0.2261
    124  O        369.3570  -17.7880  336.2450 O.2   580  MET580     -0.2867
    125  CB       367.2700  -17.5820  334.0430 C.3   580  MET580      0.0387
    126  CG       367.2360  -18.3030  332.7160 C.3   580  MET580      0.0595
    127  SD       368.0760  -17.3680  331.4300 S.3   580  MET580     -0.1393
    128  CE       366.9960  -15.9450  331.2970 C.3   580  MET580      0.0692
    129  N        372.7030  -16.7330  343.0180 N.3   586  ALA586     -0.1231
    130  CA       373.0610  -15.8410  341.9290 C.3   586  ALA586      0.1694
    131  C        373.5800  -14.5150  342.4620 C.2   586  ALA586      0.2593
    132  O        373.0350  -13.9580  343.4170 O.2   586  ALA586     -0.2718
    133  CB       371.8730  -15.6180  341.0210 C.3   586  ALA586      0.0304
    134  N        374.6400  -14.0210  341.8330 N.am  587  SER587     -0.1938
    135  CA       375.2940  -12.7880  342.2520 C.3   587  SER587      0.2055
    136  C        374.8300  -11.5840  341.4310 C.2   587  SER587      0.2644
    137  O        374.6370  -11.6800  340.2220 O.2   587  SER587     -0.2714
    138  CB       376.8070  -12.9470  342.1490 C.3   587  SER587      0.2130
    139  OG       377.1510  -13.6040  340.9450 O.3   587  SER587     -0.2179
    140  N        374.6530  -10.4520  342.1050 N.am  588  THR588     -0.1936
    141  CA       374.1390   -9.2410  341.4800 C.3   588  THR588      0.2028
    142  C        374.7630   -7.9970  342.1080 C.2   588  THR588      0.2642
    143  O        375.2870   -8.0550  343.2180 O.2   588  THR588     -0.2714
    144  CB       372.6100   -9.1480  341.6120 C.3   588  THR588      0.1808
    145  OG1      372.2620   -8.9860  342.9910 O.3   588  THR588     -0.2208
    146  CG2      371.9480  -10.4060  341.0810 C.3   588  THR588      0.0379
    147  N        374.6980   -6.8730  341.4000 N.am  589  THR589     -0.1950
    148  CA       375.2220   -5.6090  341.9170 C.3   589  THR589      0.1897
    149  C        374.1230   -4.5780  342.1170 C.2   589  THR589      0.2313
    150  O        372.9780   -4.7900  341.7180 O.2   589  THR589     -0.2863
    151  CB       376.2830   -5.0000  340.9830 C.3   589  THR589      0.1794
    152  OG1      375.8130   -5.0440  339.6310 O.3   589  THR589     -0.2208
    153  CG2      377.5770   -5.7700  341.0790 C.3   589  THR589      0.0378
    154  N        378.9780   -1.8730  336.7640 N.3   594  LEU594     -0.1231
    155  CA       379.7390   -3.1080  336.8880 C.3   594  LEU594      0.1693
    156  C        379.3600   -4.1370  335.8280 C.2   594  LEU594      0.2591
    157  O        380.1810   -4.9690  335.4480 O.2   594  LEU594     -0.2718
    158  CB       379.5600   -3.7110  338.2780 C.3   594  LEU594      0.0284
    159  CG       380.6260   -4.7550  338.5960 C.3   594  LEU594      0.0019
    160  CD1      381.9940   -4.1270  338.4470 C.3   594  LEU594      0.0001
    161  CD2      380.4500   -5.3110  339.9940 C.3   594  LEU594      0.0001
    162  N        378.1190   -4.0880  335.3540 N.am  595  VAL595     -0.1980
    163  CA       377.6720   -5.0280  334.3300 C.3   595  VAL595      0.1595
    164  C        377.8720   -4.4540  332.9320 C.2   595  VAL595      0.2287
    165  O        378.2350   -5.1760  332.0020 O.2   595  VAL595     -0.2864
    166  CB       376.1860   -5.4180  334.5130 C.3   595  VAL595      0.0276
    167  CG1      376.0150   -6.3070  335.7340 C.3   595  VAL595      0.0022
    168  CG2      375.3120   -4.1810  334.6120 C.3   595  VAL595      0.0022
    169  N        382.3920   -5.6530  332.8240 N.3   599  TRP599     -0.1241
    170  CA       382.2250   -7.0240  332.3420 C.3   599  TRP599      0.1605
    171  C        381.6680   -7.1050  330.9310 C.2   599  TRP599      0.2264
    172  O        381.6110   -8.1870  330.3420 O.2   599  TRP599     -0.2867
    173  CB       381.3260   -7.8070  333.2890 C.3   599  TRP599      0.0550
    174  CG       381.9760   -8.0460  334.5930 C.ar  599  TRP599      0.0003
    175  CD1      383.3030   -8.2660  334.8170 C.ar  599  TRP599      0.0946
    176  CD2      381.3440   -8.0630  335.8710 C.ar  599  TRP599      0.0152
    177  NE1      383.5350   -8.4330  336.1600 N.ar  599  TRP599     -0.2442
    178  CE2      382.3450   -8.3110  336.8300 C.ar  599  TRP599      0.0810
    179  CE3      380.0260   -7.8980  336.3000 C.ar  599  TRP599      0.0012
    180  CZ2      382.0720   -8.3970  338.1870 C.ar  599  TRP599      0.0191
    181  CZ3      379.7570   -7.9820  337.6450 C.ar  599  TRP599      0.0001
    182  CH2      380.7740   -8.2290  338.5740 C.ar  599  TRP599      0.0015
    183  N        382.6900   -4.0620  344.1570 N.3   627  GLU627     -0.1245
    184  CA       381.6690   -4.6740  343.3140 C.3   627  GLU627      0.1567
    185  C        380.2530   -4.3570  343.7800 C.2   627  GLU627      0.2260
    186  O        379.3080   -4.4610  343.0010 O.2   627  GLU627     -0.2867
    187  CB       381.8560   -6.1910  343.2710 C.3   627  GLU627      0.0388
    188  CG       383.0940   -6.6550  342.5310 C.3   627  GLU627      0.1160
    189  CD       383.3130   -8.1520  342.6580 C.2   627  GLU627      0.3649
    190  OE1      382.6890   -8.7720  343.5460 O.co2 627  GLU627     -0.2457
    191  OE2      384.1060   -8.7090  341.8710 O.co2 627  GLU627     -0.2457
    192  N        378.2800   -6.0850  345.7210 N.3   629  GLU629     -0.1245
    193  CA       377.6020   -7.3060  345.3120 C.3   629  GLU629      0.1567
    194  C        376.5780   -7.7940  346.3280 C.2   629  GLU629      0.2260
    195  O        376.7670   -7.6580  347.5360 O.2   629  GLU629     -0.2867
    196  CB       378.6300   -8.4070  345.0510 C.3   629  GLU629      0.0388
    197  CG       378.0260   -9.7470  344.6740 C.3   629  GLU629      0.1160
    198  CD       379.0740  -10.8290  344.5230 C.2   629  GLU629      0.3649
    199  OE1      380.2690  -10.5310  344.7320 O.co2 629  GLU629     -0.2457
    200  OE2      378.7070  -11.9770  344.1930 O.co2 629  GLU629     -0.2457
@<TRIPOS>BOND
     1   110   111    1
     2   111   112    1
     3   111   114    1
     4   112   113    2
     5   114   115    1
     6   105   104    2
     7   104   103    1
     8   115   116   ar
     9   115   117   ar
    10   116   118   ar
    11   117   119   ar
    12   103   106    1
    13   103   102    1
    14   118   120   ar
    15   106   107    1
    16   102    96   am
    17   119   120   ar
    18    96    97    2
    19    96    95    1
    20   107   109    1
    21   107   108    1
    22   101    99   am
    23    98    95    1
    24    98    99    1
    25    95    94    1
    26    99   100    2
    27    89    88    2
    28    94    88   am
    29    88    87    1
    30   172   171    2
    31   171   170    1
    32   128   127    1
    33   127   126    1
    34    90    87    1
    35    90    91    1
    36    87    86    1
    37   165   164    2
    38    86    84   am
    39    63    62    2
    40   170   169    1
    41   170   173    1
    42    92    91    1
    43    64    61    1
    44    64    65    1
    45   126   125    1
    46    91    93    1
    47    62    61    1
    48   164   163    1
    49    61    60    1
    50    84    83    1
    51    84    85    2
    52   173   174    1
    53    66    65    1
    54    66    67    1
    55    83    82    1
    56   125   122    1
    57    69    68    1
    58   163   166    1
    59   163   162    1
    60    67    68    2
    61    74    73    2
    62   166   168    1
    63   166   167    1
    64    68    70    1
    65   174   175   ar
    66   174   176   ar
    67   175   177   ar
    68    82    73   am
    69   122   121    1
    70   122   123    1
    71    73    72    1
    72   162   156   am
    73   157   156    2
    74    54    53    2
    75    59    57   am
    76   156   155    1
    77   176   179   ar
    78   176   178   ar
    79   177   178   ar
    80   124   123    2
    81   179   181   ar
    82    53    52    1
    83    42    41    1
    84    41    38    1
    85   154   155    1
    86    72    71    1
    87    72    75    1
    88   178   180   ar
    89   155   158    1
    90    80    79    1
    91    55    52    1
    92    55    56    1
    93    76    75    1
    94    76    77    1
    95    40    39    2
    96    78    79    2
    97    78    77    1
    98    57    58    2
    99    57    56    1
   100    79    81    1
   101    52    51    1
   102   181   182   ar
   103    38    39    1
   104    38    37    1
   105    34    36   ar
   106    34    32   ar
   107   180   182   ar
   108    46    45    2
   109    36    35   ar
   110   158   159    1
   111    45    44    1
   112   160   159    1
   113   159   161    1
   114    37    28   am
   115    32    31   ar
   116    47    44    1
   117    47    48    1
   118    35    33   ar
   119    44    43    1
   120   152   151    1
   121    29    28    2
   122    28    27    1
   123    50    48   am
   124   137   136    2
   125    48    49    2
   126    31    33   ar
   127    31    30    1
   128   139   138    1
   129   151   153    1
   130   151   148    1
   131   133   130    1
   132   146   144    1
   133    27    30    1
   134    27    26    1
   135   147   148    1
   136   147   142   am
   137   136   140   am
   138   136   135    1
   139   141   144    1
   140   141   140    1
   141   141   142    1
   142   144   145    1
   143   150   149    2
   144   134   135    1
   145   134   131   am
   146   191   189   ar
   147   148   149    1
   148   130   131    1
   149   130   129    1
   150   142   143    2
   151   138   135    1
   152    20    21    2
   153    20    19    1
   154   131   132    2
   155    19    18    1
   156    19    22    1
   157   188   189    1
   158   188   187    1
   159   189   190   ar
   160   186   185    2
   161    18    11   am
   162   187   184    1
   163    22    23    1
   164   184   185    1
   165   184   183    1
   166     4     3    2
   167   200   198   ar
   168    11    10    1
   169    11    12    2
   170    23    24    2
   171    23    25   am
   172   198   197    1
   173   198   199   ar
   174    10    13    1
   175    10     9    1
   176   197   196    1
   177   196   193    1
   178     3     9   am
   179     3     2    1
   180    13    14    1
   181   193   192    1
   182   193   194    1
   183    16    15    2
   184     6     7    1
   185     6     5    2
   186     8     7    1
   187     2     5    1
   188     2     1    1
   189   194   195    2
   190    14    15    1
   191    15    17   am
