@<TRIPOS>MOLECULE
tmp/5yjbA01.pdb
 199 193 0 0 0
SMALL
GASTEIGER

@<TRIPOS>ATOM
      1  N         10.9230  -63.5670  -38.2250 N.3   159  GLY159     -0.1210
      2  CA        10.0340  -63.2920  -37.1160 C.3   159  GLY159      0.1956
      3  C         10.1540  -61.8700  -36.6340 C.2   159  GLY159      0.2612
      4  O         10.0060  -60.9340  -37.4140 O.2   159  GLY159     -0.2717
      5  N         10.4210  -61.6910  -35.3500 N.am  160  ALA160     -0.1965
      6  CA        10.6540  -60.3620  -34.8170 C.3   160  ALA160      0.1728
      7  C         11.9090  -59.7580  -35.4200 C.2   160  ALA160      0.2616
      8  O         12.8650  -60.4700  -35.7370 O.2   160  ALA160     -0.2715
      9  CB        10.7710  -60.4170  -33.3000 C.3   160  ALA160      0.0334
     10  N         11.9010  -58.4300  -35.5830 N.am  161  MET161     -0.1963
     11  CA        13.0190  -57.7740  -36.2560 C.3   161  MET161      0.1736
     12  C         13.3180  -56.3790  -35.7110 C.2   161  MET161      0.2616
     13  O         14.4150  -55.8490  -35.9360 O.2   161  MET161     -0.2715
     14  CB        12.7640  -57.7030  -37.7680 C.3   161  MET161      0.0427
     15  CG        11.4320  -57.0490  -38.1470 C.3   161  MET161      0.0599
     16  SD        11.0530  -57.1510  -39.9220 S.3   161  MET161     -0.1393
     17  CE        12.6330  -56.6910  -40.6250 C.3   161  MET161      0.0692
     18  N         12.3720  -55.7760  -34.9880 N.am  162  VAL162     -0.1977
     19  CA        12.4760  -54.3810  -34.5620 C.3   162  VAL162      0.1596
     20  C         12.4980  -54.2960  -33.0410 C.2   162  VAL162      0.2287
     21  O         11.7840  -55.0410  -32.3600 O.2   162  VAL162     -0.2864
     22  CB        11.3210  -53.5310  -35.1290 C.3   162  VAL162      0.0276
     23  CG1       11.1860  -52.2460  -34.3470 C.3   162  VAL162      0.0022
     24  CG2       11.5740  -53.2270  -36.5670 C.3   162  VAL162      0.0022
     25  N         11.3600  -51.5860  -30.5740 N.3   164  THR164     -0.1218
     26  CA        10.5080  -50.4000  -30.6950 C.3   164  THR164      0.1862
     27  C         10.8810  -49.3450  -29.6420 C.2   164  THR164      0.2287
     28  O         10.0800  -48.9540  -28.7840 O.2   164  THR164     -0.2866
     29  CB         9.0330  -50.7940  -30.6120 C.3   164  THR164      0.1770
     30  OG1        8.7040  -51.2440  -29.2880 O.3   164  THR164     -0.2211
     31  CG2        8.7210  -51.9100  -31.5940 C.3   164  THR164      0.0375
     32  N         16.5350  -46.8370  -38.5990 N.3   185  ILE185     -0.1245
     33  CA        15.7580  -46.9540  -39.8360 C.3   185  ILE185      0.1561
     34  C         15.5080  -45.5710  -40.4330 C.2   185  ILE185      0.2260
     35  O         14.7810  -44.7580  -39.8490 O.2   185  ILE185     -0.2867
     36  CB        14.4170  -47.6590  -39.6130 C.3   185  ILE185      0.0252
     37  CG1       14.5990  -48.9650  -38.8410 C.3   185  ILE185      0.0019
     38  CG2       13.7480  -47.8880  -40.9620 C.3   185  ILE185      0.0019
     39  CD1       13.2560  -49.6250  -38.4430 C.3   185  ILE185      0.0001
     40  N         -0.0350  -50.1100  -44.3980 N.3   364  ASN364     -0.1240
     41  CA         1.0710  -49.9330  -43.4590 C.3   364  ASN364      0.1653
     42  C          0.6100  -50.0930  -42.0150 C.2   364  ASN364      0.2266
     43  O          1.3390  -50.6410  -41.1740 O.2   364  ASN364     -0.2867
     44  CB         1.7230  -48.5590  -43.6470 C.3   364  ASN364      0.1155
     45  CG         3.1280  -48.4890  -43.0320 C.2   364  ASN364      0.2627
     46  OD1        3.9360  -49.4070  -43.1900 O.2   364  ASN364     -0.2716
     47  ND2        3.4100  -47.4130  -42.3090 N.am  364  ASN364     -0.0877
     48  N         -0.2660  -53.5880  -41.3460 N.3   367  PHE367     -0.1227
     49  CA         0.9350  -54.3990  -41.1830 C.3   367  PHE367      0.1736
     50  C          1.4110  -54.3960  -39.7500 C.2   367  PHE367      0.2595
     51  O          1.6290  -55.4540  -39.1630 O.2   367  PHE367     -0.2718
     52  CB         2.0620  -53.9210  -42.0860 C.3   367  PHE367      0.0547
     53  CG         3.3120  -54.7310  -41.9330 C.ar  367  PHE367     -0.0202
     54  CD1        3.4090  -55.9820  -42.5110 C.ar  367  PHE367     -0.0042
     55  CD2        4.3740  -54.2620  -41.1880 C.ar  367  PHE367     -0.0042
     56  CE1        4.5550  -56.7430  -42.3710 C.ar  367  PHE367     -0.0003
     57  CE2        5.5200  -55.0140  -41.0520 C.ar  367  PHE367     -0.0003
     58  CZ         5.6050  -56.2640  -41.6400 C.ar  367  PHE367     -0.0000
     59  N          1.6170  -53.2140  -39.1700 N.am  368  ALA368     -0.1966
     60  CA         2.2090  -53.2100  -37.8430 C.3   368  ALA368      0.1728
     61  C          1.2350  -53.7030  -36.7960 C.2   368  ALA368      0.2616
     62  O          1.6680  -54.1070  -35.7140 O.2   368  ALA368     -0.2715
     63  CB         2.7130  -51.8290  -37.4680 C.3   368  ALA368      0.0334
     64  N         -0.0580  -53.7010  -37.1030 N.am  369  ASN369     -0.1972
     65  CA        -1.0450  -54.3020  -36.2260 C.3   369  ASN369      0.1688
     66  C         -1.3690  -55.7340  -36.5960 C.2   369  ASN369      0.2292
     67  O         -2.0900  -56.4070  -35.8500 O.2   369  ASN369     -0.2864
     68  CB        -2.3060  -53.4580  -36.2090 C.3   369  ASN369      0.1181
     69  CG        -2.0920  -52.1870  -35.4780 C.2   369  ASN369      0.2629
     70  OD1       -2.0430  -52.1720  -34.2580 O.2   369  ASN369     -0.2716
     71  ND2       -1.8960  -51.1090  -36.2140 N.am  369  ASN369     -0.0877
     72  N         -8.0790  -50.2260  -29.6830 N.3   381  TRP381     -0.1241
     73  CA        -6.9660  -50.7290  -30.4880 C.3   381  TRP381      0.1605
     74  C         -5.6370  -50.0360  -30.1700 C.2   381  TRP381      0.2264
     75  O         -4.5750  -50.6530  -30.2970 O.2   381  TRP381     -0.2867
     76  CB        -7.2930  -50.5970  -31.9740 C.3   381  TRP381      0.0550
     77  CG        -7.0700  -49.2280  -32.5330 C.ar  381  TRP381      0.0003
     78  CD1       -7.9450  -48.1780  -32.5240 C.ar  381  TRP381      0.0946
     79  CD2       -5.8870  -48.7610  -33.1960 C.ar  381  TRP381      0.0152
     80  NE1       -7.3780  -47.0860  -33.1410 N.ar  381  TRP381     -0.2442
     81  CE2       -6.1170  -47.4180  -33.5630 C.ar  381  TRP381      0.0810
     82  CE3       -4.6560  -49.3500  -33.5130 C.ar  381  TRP381      0.0012
     83  CZ2       -5.1660  -46.6560  -34.2400 C.ar  381  TRP381      0.0191
     84  CZ3       -3.7040  -48.5850  -34.1810 C.ar  381  TRP381      0.0001
     85  CH2       -3.9670  -47.2500  -34.5360 C.ar  381  TRP381      0.0015
     86  N         -2.3760  -49.8270  -25.9480 N.3   384  ASP384     -0.1239
     87  CA        -0.9850  -50.0660  -25.5800 C.3   384  ASP384      0.1674
     88  C         -0.0610  -48.9130  -25.9720 C.2   384  ASP384      0.2266
     89  O          1.1260  -48.9420  -25.6150 O.2   384  ASP384     -0.2867
     90  CB        -0.4960  -51.4000  -26.1880 C.3   384  ASP384      0.1410
     91  CG        -0.3840  -51.3750  -27.7130 C.2   384  ASP384      0.3668
     92  OD1       -1.3380  -50.9620  -28.3990 O.co2 384  ASP384     -0.2456
     93  OD2        0.6780  -51.7910  -28.2260 O.co2 384  ASP384     -0.2456
     94  N         13.2190  -46.5420  -33.2990 N.3   393  HIS393     -0.1241
     95  CA        13.0430  -47.9490  -33.6300 C.3   393  HIS393      0.1621
     96  C         14.3070  -48.4760  -34.2960 C.2   393  HIS393      0.2264
     97  O         14.9080  -47.8050  -35.1360 O.2   393  HIS393     -0.2867
     98  CB        11.8390  -48.1340  -34.5570 C.3   393  HIS393      0.0745
     99  CG        10.5230  -47.9250  -33.8800 C.ar  393  HIS393      0.0817
    100  ND1       10.4190  -47.6300  -32.5350 N.ar  393  HIS393     -0.2268
    101  CD2        9.2550  -47.9710  -34.3560 C.ar  393  HIS393      0.1154
    102  CE1        9.1430  -47.5100  -32.2100 C.ar  393  HIS393      0.1986
    103  NE2        8.4160  -47.7150  -33.2950 N.ar  393  HIS393     -0.2212
    104  N          0.8830  -61.5040  -40.2090 N.3   488  LEU488     -0.1245
    105  CA         1.6470  -60.8370  -41.2540 C.3   488  LEU488      0.1561
    106  C          2.6630  -61.8230  -41.8270 C.2   488  LEU488      0.2260
    107  O          2.9560  -62.8410  -41.2070 O.2   488  LEU488     -0.2867
    108  CB         2.3230  -59.5840  -40.7050 C.3   488  LEU488      0.0270
    109  CG         3.5070  -59.6800  -39.7520 C.3   488  LEU488      0.0019
    110  CD1        4.8370  -59.7320  -40.4900 C.3   488  LEU488      0.0001
    111  CD2        3.4870  -58.4470  -38.8900 C.3   488  LEU488      0.0001
    112  N          6.4640  -62.3130  -44.5420 N.3   490  LYS490     -0.1245
    113  CA         7.5940  -61.7220  -45.2590 C.3   490  LYS490      0.1561
    114  C          8.0950  -62.6340  -46.3680 C.2   490  LYS490      0.2260
    115  O          7.9850  -63.8560  -46.2900 O.2   490  LYS490     -0.2867
    116  CB         8.7750  -61.4260  -44.3410 C.3   490  LYS490      0.0271
    117  CG         8.4070  -60.5750  -43.1650 C.3   490  LYS490      0.0035
    118  CD         9.6330  -60.1610  -42.3730 C.3   490  LYS490      0.0206
    119  CE         9.7590  -60.9730  -41.1160 C.3   490  LYS490      0.1093
    120  NZ        10.2920  -60.1030  -40.0430 N.3   490  LYS490     -0.1314
    121  N         13.6050  -47.9930  -46.9580 N.3   506  LEU506     -0.1245
    122  CA        12.2290  -48.3880  -47.2140 C.3   506  LEU506      0.1561
    123  C         11.7620  -47.8690  -48.5570 C.2   506  LEU506      0.2260
    124  O         12.1240  -46.7640  -48.9620 O.2   506  LEU506     -0.2867
    125  CB        11.2960  -47.8570  -46.1340 C.3   506  LEU506      0.0270
    126  CG        11.6320  -48.4000  -44.7500 C.3   506  LEU506      0.0019
    127  CD1       10.7720  -47.7770  -43.6680 C.3   506  LEU506      0.0001
    128  CD2       11.4640  -49.8910  -44.7760 C.3   506  LEU506      0.0001
    129  N          5.4750  -53.1500  -49.1290 N.3   522  LEU522     -0.1245
    130  CA         6.6560  -52.4700  -48.6210 C.3   522  LEU522      0.1561
    131  C          7.8770  -53.3530  -48.8430 C.2   522  LEU522      0.2260
    132  O          7.7950  -54.5790  -48.7170 O.2   522  LEU522     -0.2867
    133  CB         6.4740  -52.1320  -47.1360 C.3   522  LEU522      0.0270
    134  CG         7.6350  -51.5500  -46.3360 C.3   522  LEU522      0.0019
    135  CD1        8.1740  -50.3110  -46.9950 C.3   522  LEU522      0.0001
    136  CD2        7.1530  -51.2320  -44.9440 C.3   522  LEU522      0.0001
    137  N         12.1150  -53.7000  -47.8880 N.3   524  TRP524     -0.1241
    138  CA        12.9400  -53.2980  -46.7550 C.3   524  TRP524      0.1605
    139  C         14.3790  -53.7820  -46.9160 C.2   524  TRP524      0.2264
    140  O         14.6380  -54.9880  -47.0070 O.2   524  TRP524     -0.2867
    141  CB        12.3180  -53.8250  -45.4670 C.3   524  TRP524      0.0550
    142  CG        12.7550  -53.1690  -44.2310 C.ar  524  TRP524      0.0003
    143  CD1       13.8860  -52.4230  -44.0280 C.ar  524  TRP524      0.0946
    144  CD2       12.0630  -53.2040  -42.9870 C.ar  524  TRP524      0.0152
    145  NE1       13.9360  -51.9900  -42.7180 N.ar  524  TRP524     -0.2442
    146  CE2       12.8250  -52.4620  -42.0600 C.ar  524  TRP524      0.0810
    147  CE3       10.8670  -53.7940  -42.5630 C.ar  524  TRP524      0.0012
    148  CZ2       12.4250  -52.2960  -40.7380 C.ar  524  TRP524      0.0191
    149  CZ3       10.4780  -53.6380  -41.2480 C.ar  524  TRP524      0.0001
    150  CH2       11.2530  -52.8960  -40.3530 C.ar  524  TRP524      0.0015
    151  N          0.8420  -62.2430  -34.1160 N.3   590  TYR590     -0.1227
    152  CA         0.7330  -61.7950  -32.7340 C.3   590  TYR590      0.1736
    153  C         -0.6810  -61.2990  -32.4740 C.2   590  TYR590      0.2596
    154  O         -1.5040  -61.1550  -33.3870 O.2   590  TYR590     -0.2718
    155  CB         1.7720  -60.7250  -32.3630 C.3   590  TYR590      0.0548
    156  CG         2.0530  -59.6480  -33.3750 C.ar  590  TYR590     -0.0200
    157  CD1        1.2050  -58.5560  -33.5100 C.ar  590  TYR590     -0.0009
    158  CD2        3.2000  -59.6890  -34.1670 C.ar  590  TYR590     -0.0009
    159  CE1        1.4680  -57.5420  -34.4160 C.ar  590  TYR590      0.0417
    160  CE2        3.4780  -58.6740  -35.0850 C.ar  590  TYR590      0.0417
    161  CZ         2.5950  -57.6040  -35.2080 C.ar  590  TYR590      0.1957
    162  OH         2.8160  -56.5770  -36.1070 O.3   590  TYR590     -0.2866
    163  N         -0.9620  -61.0800  -31.1990 N.am  591  SER591     -0.1938
    164  CA        -2.2870  -60.6790  -30.7750 C.3   591  SER591      0.2055
    165  C         -2.5910  -59.2270  -31.1800 C.2   591  SER591      0.2643
    166  O         -1.7000  -58.4260  -31.4840 O.2   591  SER591     -0.2714
    167  CB        -2.4000  -60.8510  -29.2650 C.3   591  SER591      0.2130
    168  OG        -1.3110  -60.2250  -28.6000 O.3   591  SER591     -0.2179
    169  N         -3.8810  -58.8960  -31.1820 N.am  592  TYR592     -0.1973
    170  CA        -4.3650  -57.5630  -31.5110 C.3   592  TYR592      0.1639
    171  C         -5.6690  -57.3530  -30.7540 C.2   592  TYR592      0.2290
    172  O         -6.4500  -58.2940  -30.5850 O.2   592  TYR592     -0.2864
    173  CB        -4.5740  -57.3800  -33.0220 C.3   592  TYR592      0.0560
    174  CG        -5.7800  -58.1220  -33.6150 C.ar  592  TYR592     -0.0198
    175  CD1       -7.0750  -57.6500  -33.4440 C.ar  592  TYR592     -0.0009
    176  CD2       -5.6150  -59.2720  -34.3790 C.ar  592  TYR592     -0.0009
    177  CE1       -8.1670  -58.3040  -33.9880 C.ar  592  TYR592      0.0417
    178  CE2       -6.7130  -59.9340  -34.9510 C.ar  592  TYR592      0.0417
    179  CZ        -7.9960  -59.4440  -34.7440 C.ar  592  TYR592      0.1957
    180  OH        -9.1040  -60.1050  -35.2910 O.3   592  TYR592     -0.2866
    181  N          1.6780  -55.9000  -25.3560 N.3   637  PRO637     -0.2102
    182  CA         1.4160  -57.1200  -26.1240 C.3   637  PRO637      0.1504
    183  C          2.2320  -57.1500  -27.4080 C.2   637  PRO637      0.2576
    184  O          2.8740  -56.1820  -27.8210 O.2   637  PRO637     -0.2718
    185  CB        -0.0800  -57.0400  -26.4350 C.3   637  PRO637      0.0282
    186  CG        -0.6010  -55.8990  -25.6080 C.3   637  PRO637      0.0208
    187  CD         0.5580  -54.9590  -25.4900 C.3   637  PRO637      0.0893
    188  N          2.2080  -58.3190  -28.0230 N.am  638  ALA638     -0.1966
    189  CA         2.6230  -58.4840  -29.4050 C.3   638  ALA638      0.1728
    190  C          4.0420  -57.9740  -29.6510 C.2   638  ALA638      0.2616
    191  O          4.3570  -57.4390  -30.7120 O.2   638  ALA638     -0.2715
    192  CB         1.6130  -57.8160  -30.3230 C.3   638  ALA638      0.0334
    193  N          4.9180  -58.1470  -28.6700 N.am  639  THR639     -0.1951
    194  CA         6.3200  -57.7970  -28.8220 C.3   639  THR639      0.1897
    195  C          7.1910  -58.8490  -28.1560 C.2   639  THR639      0.2313
    196  O          6.7250  -59.6610  -27.3550 O.2   639  THR639     -0.2863
    197  CB         6.6290  -56.4580  -28.1830 C.3   639  THR639      0.1794
    198  OG1        6.2270  -56.5210  -26.8040 O.3   639  THR639     -0.2208
    199  CG2        5.8820  -55.3690  -28.9000 C.3   639  THR639      0.0378
@<TRIPOS>BOND
     1   129   130    1
     2   124   123    2
     3   131   132    2
     4   131   130    1
     5   130   133    1
     6   123   122    1
     7   137   138    1
     8   122   121    1
     9   122   125    1
    10   133   134    1
    11   140   139    2
    12   135   134    1
    13   139   138    1
    14   138   141    1
    15   114   115    2
    16   114   113    1
    17   134   136    1
    18   125   126    1
    19   141   142    1
    20   113   112    1
    21   113   116    1
    22   128   126    1
    23   126   127    1
    24    40    41    1
    25   116   117    1
    26   142   143   ar
    27   142   144   ar
    28   143   145   ar
    29    44    41    1
    30    44    45    1
    31    41    42    1
    32    46    45    2
    33   117   118    1
    34    45    47   am
    35   144   147   ar
    36   144   146   ar
    37   145   146   ar
    38   147   149   ar
    39    54    56   ar
    40    54    53   ar
    41   118   119    1
    42    56    58   ar
    43    52    53    1
    44    52    49    1
    45   146   148   ar
    46    42    43    2
    47    53    55   ar
    48   106   105    1
    49   106   107    2
    50    58    57   ar
    51    48    49    1
    52   105   108    1
    53   105   104    1
    54   149   150   ar
    55    55    57   ar
    56    49    50    1
    57   119   120    1
    58    38    36    1
    59   148   150   ar
    60   108   109    1
    61    17    16    1
    62   110   109    1
    63    34    35    2
    64    34    33    1
    65    16    15    1
    66    33    36    1
    67    33    32    1
    68   109   111    1
    69    50    59   am
    70    50    51    2
    71    36    37    1
    72    59    60    1
    73    37    39    1
    74     1     2    1
    75    15    14    1
    76    60    63    1
    77    60    61    1
    78    14    11    1
    79     4     3    2
    80     2     3    1
    81    64    61   am
    82    64    65    1
    83    61    62    2
    84     3     5   am
    85    66    65    1
    86    66    67    2
    87    24    22    1
    88    11    12    1
    89    11    10    1
    90    65    68    1
    91    71    69   am
    92    68    69    1
    93   162   161    1
    94    13    12    2
    95     8     7    2
    96    12    18   am
    97    10     7   am
    98    69    70    2
    99     7     6    1
   100     5     6    1
   101   180   179    1
   102   161   160   ar
   103   161   159   ar
   104    97    96    2
   105    22    19    1
   106    22    23    1
   107   160   158   ar
   108    18    19    1
   109   178   179   ar
   110   178   176   ar
   111     6     9    1
   112   179   177   ar
   113    19    20    1
   114    98    99    1
   115    98    95    1
   116    85    83   ar
   117    85    84   ar
   118   159   157   ar
   119   176   174   ar
   120   101    99   ar
   121   101   103   ar
   122    96    95    1
   123    83    81   ar
   124    84    82   ar
   125   158   156   ar
   126   151   152    1
   127   177   175   ar
   128    99   100   ar
   129    95    94    1
   130   174   175   ar
   131   174   173    1
   132    81    79   ar
   133    81    80   ar
   134    82    79   ar
   135   157   156   ar
   136   154   153    2
   137   156   155    1
   138   103   102   ar
   139    79    77   ar
   140    80    78   ar
   141    20    21    2
   142   173   170    1
   143   152   153    1
   144   152   155    1
   145   100   102   ar
   146    77    78   ar
   147    77    76    1
   148   153   163   am
   149    76    73    1
   150    31    29    1
   151   170   169    1
   152   170   171    1
   153   166   165    2
   154   163   164    1
   155   169   165   am
   156   165   164    1
   157   164   167    1
   158   171   172    2
   159   191   190    2
   160    26    29    1
   161    26    25    1
   162    26    27    1
   163    29    30    1
   164    73    74    1
   165    73    72    1
   166   192   189    1
   167    75    74    2
   168   190   189    1
   169   190   193   am
   170    27    28    2
   171   189   188    1
   172   167   168    1
   173   199   197    1
   174   194   193    1
   175   194   197    1
   176   194   195    1
   177    92    91   ar
   178    93    91   ar
   179   197   198    1
   180   195   196    2
   181   188   183   am
   182   184   183    2
   183    91    90    1
   184   183   182    1
   185   185   182    1
   186   185   186    1
   187    90    87    1
   188   182   181    1
   189    88    89    2
   190    88    87    1
   191    86    87    1
   192   186   187    1
   193   187   181    1
