@<TRIPOS>MOLECULE
tmp/5yjfD01.pdb
 122 117 0 0 0
SMALL
GASTEIGER

@<TRIPOS>ATOM
      1  N          5.1390   32.6930  -42.8590 N.3    11  PHE11      -0.1241
      2  CA         5.6830   31.7290  -41.8990 C.3    11  PHE11       0.1605
      3  C          5.2630   30.2920  -42.2510 C.2    11  PHE11       0.2264
      4  O          4.1820   29.8490  -41.8730 O.2    11  PHE11      -0.2867
      5  CB         5.2510   32.0930  -40.4680 C.3    11  PHE11       0.0534
      6  CG         6.0790   31.4410  -39.3890 C.ar   11  PHE11      -0.0203
      7  CD1        7.0680   32.1640  -38.7240 C.ar   11  PHE11      -0.0042
      8  CD2        5.8750   30.1080  -39.0350 C.ar   11  PHE11      -0.0042
      9  CE1        7.8400   31.5760  -37.7180 C.ar   11  PHE11      -0.0003
     10  CE2        6.6500   29.5050  -38.0340 C.ar   11  PHE11      -0.0003
     11  CZ         7.6270   30.2430  -37.3730 C.ar   11  PHE11      -0.0000
     12  N         10.1360   26.0870  -41.0660 N.3    16  TYR16      -0.1241
     13  CA        10.7490   26.5400  -39.8080 C.3    16  TYR16       0.1605
     14  C         11.2290   25.3820  -38.9310 C.2    16  TYR16       0.2264
     15  O         12.3610   25.3960  -38.4260 O.2    16  TYR16      -0.2867
     16  CB         9.7390   27.3930  -39.0390 C.3    16  TYR16       0.0534
     17  CG        10.1860   27.8890  -37.6880 C.ar   16  TYR16      -0.0201
     18  CD1       10.9800   29.0320  -37.5660 C.ar   16  TYR16      -0.0009
     19  CD2        9.7830   27.2440  -36.5250 C.ar   16  TYR16      -0.0009
     20  CE1       11.3770   29.5090  -36.3070 C.ar   16  TYR16       0.0417
     21  CE2       10.1780   27.7060  -35.2680 C.ar   16  TYR16       0.0417
     22  CZ        10.9710   28.8340  -35.1710 C.ar   16  TYR16       0.1957
     23  OH        11.3440   29.2880  -33.9360 O.3    16  TYR16      -0.2866
     24  N         15.3130   24.9760  -38.0360 N.3    20  TYR20      -0.1227
     25  CA        15.8870   25.2480  -36.7230 C.3    20  TYR20       0.1736
     26  C         15.7640   24.1530  -35.6730 C.2    20  TYR20       0.2595
     27  O         16.3060   24.2950  -34.5690 O.2    20  TYR20      -0.2718
     28  CB        15.2570   26.5150  -36.1620 C.3    20  TYR20       0.0548
     29  CG        15.6330   27.7840  -36.8780 C.ar   20  TYR20      -0.0200
     30  CD1       16.8570   28.4120  -36.6310 C.ar   20  TYR20      -0.0009
     31  CD2       14.7540   28.3780  -37.7810 C.ar   20  TYR20      -0.0009
     32  CE1       17.2050   29.5920  -37.2810 C.ar   20  TYR20       0.0417
     33  CE2       15.0900   29.5590  -38.4330 C.ar   20  TYR20       0.0417
     34  CZ        16.3180   30.1580  -38.1760 C.ar   20  TYR20       0.1957
     35  OH        16.6510   31.3300  -38.8150 O.3    20  TYR20      -0.2866
     36  N         15.0500   23.0750  -35.9810 N.am   21  TYR21      -0.1976
     37  CA        14.7220   22.0860  -34.9390 C.3    21  TYR21       0.1639
     38  C         14.9340   20.5920  -35.2690 C.2    21  TYR21       0.2290
     39  O         14.4430   19.7180  -34.5470 O.2    21  TYR21      -0.2864
     40  CB        13.3290   22.3690  -34.3570 C.3    21  TYR21       0.0560
     41  CG        13.2820   23.6830  -33.6170 C.ar   21  TYR21      -0.0198
     42  CD1       13.7320   23.7740  -32.3010 C.ar   21  TYR21      -0.0009
     43  CD2       12.8130   24.8380  -34.2360 C.ar   21  TYR21      -0.0009
     44  CE1       13.7200   24.9820  -31.6190 C.ar   21  TYR21       0.0417
     45  CE2       12.7890   26.0420  -33.5680 C.ar   21  TYR21       0.0417
     46  CZ        13.2400   26.1120  -32.2530 C.ar   21  TYR21       0.1957
     47  OH        13.2100   27.3150  -31.5680 O.3    21  TYR21      -0.2866
     48  N         11.5760   32.7980  -27.8790 N.3   157  LEU157     -0.1245
     49  CA        11.9740   33.3310  -29.1840 C.3   157  LEU157      0.1561
     50  C         10.8370   34.0460  -29.9250 C.2   157  LEU157      0.2260
     51  O         10.8380   34.1130  -31.1720 O.2   157  LEU157     -0.2867
     52  CB        12.5610   32.2180  -30.0460 C.3   157  LEU157      0.0270
     53  CG        14.0240   31.8890  -29.8450 C.3   157  LEU157      0.0019
     54  CD1       14.2670   30.5190  -30.4200 C.3   157  LEU157      0.0001
     55  CD2       14.9050   32.9540  -30.5220 C.3   157  LEU157      0.0001
     56  N         10.8550   39.1740  -29.5020 N.3   160  ASP160     -0.1225
     57  CA        11.7020   39.9030  -30.4420 C.3   160  ASP160      0.1805
     58  C         11.1040   39.9980  -31.8370 C.2   160  ASP160      0.2597
     59  O         11.1610   41.0560  -32.4740 O.2   160  ASP160     -0.2718
     60  CB        13.0810   39.2560  -30.5150 C.3   160  ASP160      0.1424
     61  CG        13.8350   39.3540  -29.1990 C.2   160  ASP160      0.3668
     62  OD1       15.0630   39.1170  -29.1990 O.co2 160  ASP160     -0.2456
     63  OD2       13.2040   39.6690  -28.1570 O.co2 160  ASP160     -0.2456
     64  N         10.5250   38.8900  -32.2980 N.am  161  ALA161     -0.1979
     65  CA         9.9380   38.7980  -33.6290 C.3   161  ALA161      0.1597
     66  C          8.6370   39.5910  -33.7280 C.2   161  ALA161      0.2287
     67  O          8.1880   39.9160  -34.8330 O.2   161  ALA161     -0.2864
     68  CB         9.6980   37.3380  -33.9880 C.3   161  ALA161      0.0319
     69  N         14.9860   34.5270  -25.6670 N.3   190  ASP190     -0.1225
     70  CA        15.0170   35.1160  -26.9950 C.3   190  ASP190      0.1805
     71  C         16.4390   35.4790  -27.4150 C.2   190  ASP190      0.2597
     72  O         17.3820   35.3870  -26.6160 O.2   190  ASP190     -0.2718
     73  CB        14.0980   36.3460  -27.0670 C.3   190  ASP190      0.1424
     74  CG        13.1800   36.3240  -28.2960 C.2   190  ASP190      0.3668
     75  OD1       13.6710   36.0920  -29.4350 O.co2 190  ASP190     -0.2456
     76  OD2       11.9610   36.5440  -28.1240 O.co2 190  ASP190     -0.2456
     77  N         16.5800   35.8790  -28.6780 N.am  191  ALA191     -0.1979
     78  CA        17.8590   36.3090  -29.2390 C.3   191  ALA191      0.1597
     79  C         18.2950   37.6420  -28.6430 C.2   191  ALA191      0.2287
     80  O         17.4530   38.4700  -28.3130 O.2   191  ALA191     -0.2864
     81  CB        17.7520   36.4180  -30.7530 C.3   191  ALA191      0.0319
     82  N         19.7800   40.8530  -32.0540 N.3   194  SER194     -0.1217
     83  CA        19.4470   40.2490  -33.3240 C.3   194  SER194      0.1889
     84  C         18.5200   41.2120  -34.0220 C.2   194  SER194      0.2288
     85  O         17.6090   41.7620  -33.3950 O.2   194  SER194     -0.2866
     86  CB        18.7350   38.9250  -33.0900 C.3   194  SER194      0.2089
     87  OG        18.6400   38.1720  -34.2800 O.3   194  SER194     -0.2183
     88  N         16.1340   37.2260  -38.6240 N.3   197  TYR197     -0.1241
     89  CA        16.3550   35.7730  -38.7040 C.3   197  TYR197      0.1605
     90  C         15.6750   35.1780  -39.9490 C.2   197  TYR197      0.2264
     91  O         14.6090   35.6420  -40.3680 O.2   197  TYR197     -0.2867
     92  CB        15.8890   35.0640  -37.4250 C.3   197  TYR197      0.0534
     93  CG        14.3850   34.9310  -37.2820 C.ar  197  TYR197     -0.0201
     94  CD1       13.7540   33.7100  -37.5110 C.ar  197  TYR197     -0.0009
     95  CD2       13.5980   36.0220  -36.9160 C.ar  197  TYR197     -0.0009
     96  CE1       12.3790   33.5800  -37.3850 C.ar  197  TYR197      0.0417
     97  CE2       12.2240   35.9050  -36.7820 C.ar  197  TYR197      0.0417
     98  CZ        11.6180   34.6780  -37.0170 C.ar  197  TYR197      0.1957
     99  OH        10.2500   34.5510  -36.8880 O.3   197  TYR197     -0.2866
    100  N         13.4000   41.4080  -36.4030 N.3   205  SER205     -0.1217
    101  CA        13.6480   41.1310  -34.9930 C.3   205  SER205      0.1889
    102  C         14.1310   42.4020  -34.2860 C.2   205  SER205      0.2288
    103  O         14.8510   43.2060  -34.8730 O.2   205  SER205     -0.2866
    104  CB        14.6950   40.0240  -34.8410 C.3   205  SER205      0.2089
    105  OG        14.9910   39.7750  -33.4750 O.3   205  SER205     -0.2183
    106  N         23.4640   31.9120  -33.8420 N.3   234  TYR234     -0.1241
    107  CA        22.9660   31.1540  -34.9670 C.3   234  TYR234      0.1605
    108  C         23.9870   31.1850  -36.1040 C.2   234  TYR234      0.2264
    109  O         24.9840   31.9220  -36.0480 O.2   234  TYR234     -0.2867
    110  CB        21.6190   31.7190  -35.4350 C.3   234  TYR234      0.0534
    111  CG        20.4330   31.3480  -34.5630 C.ar  234  TYR234     -0.0201
    112  CD1       19.8670   30.0740  -34.6120 C.ar  234  TYR234     -0.0009
    113  CD2       19.8680   32.2800  -33.6980 C.ar  234  TYR234     -0.0009
    114  CE1       18.7800   29.7420  -33.8080 C.ar  234  TYR234      0.0417
    115  CE2       18.7850   31.9570  -32.8950 C.ar  234  TYR234      0.0417
    116  CZ        18.2470   30.6920  -32.9510 C.ar  234  TYR234      0.1957
    117  OH        17.1660   30.3950  -32.1520 O.3   234  TYR234     -0.2866
    118  N         20.9110   34.2440  -39.1110 N.3   239  ALA239     -0.1245
    119  CA        20.6310   35.2810  -38.1200 C.3   239  ALA239      0.1562
    120  C         21.9080   35.9630  -37.6650 C.2   239  ALA239      0.2260
    121  O         22.9960   35.3830  -37.7420 O.2   239  ALA239     -0.2867
    122  CB        19.8760   34.7080  -36.9240 C.3   239  ALA239      0.0290
@<TRIPOS>BOND
     1     1     2    1
     2     3     2    1
     3     3     4    2
     4     2     5    1
     5    12    13    1
     6     5     6    1
     7    91    90    2
     8    90    89    1
     9    13    16    1
    10    13    14    1
    11     6     8   ar
    12     6     7   ar
    13   118   119    1
    14    16    17    1
    15     8    10   ar
    16    14    15    2
    17    35    34    1
    18     7     9   ar
    19    89    88    1
    20    89    92    1
    21    33    34   ar
    22    33    31   ar
    23    34    32   ar
    24   119   120    1
    25   119   122    1
    26    24    25    1
    27    10    11   ar
    28    31    29   ar
    29   121   120    2
    30     9    11   ar
    31    17    18   ar
    32    17    19   ar
    33    18    20   ar
    34    94    96   ar
    35    94    93   ar
    36    92    93    1
    37    96    98   ar
    38    93    95   ar
    39    32    30   ar
    40    98    99    1
    41    98    97   ar
    42    95    97   ar
    43    29    30   ar
    44    29    28    1
    45    25    28    1
    46    25    26    1
    47    19    21   ar
    48   100   101    1
    49    20    22   ar
    50   108   109    2
    51   108   107    1
    52    36    26   am
    53    36    37    1
    54    26    27    2
    55   110   107    1
    56   110   111    1
    57    38    37    1
    58    38    39    2
    59    21    22   ar
    60    22    23    1
    61   101   104    1
    62   101   102    1
    63   107   106    1
    64    37    40    1
    65   103   102    2
    66   104   105    1
    67    67    66    2
    68   112   111   ar
    69   112   114   ar
    70   111   113   ar
    71    40    41    1
    72    87    86    1
    73    43    41   ar
    74    43    45   ar
    75    84    85    2
    76    84    83    1
    77    68    65    1
    78   114   116   ar
    79    66    65    1
    80   113   115   ar
    81    65    64    1
    82    41    42   ar
    83    45    46   ar
    84    83    86    1
    85    83    82    1
    86   116   115   ar
    87   116   117    1
    88    59    58    2
    89    42    44   ar
    90    64    58   am
    91    46    44   ar
    92    46    47    1
    93    58    57    1
    94    51    50    2
    95    81    78    1
    96    55    53    1
    97    60    57    1
    98    60    61    1
    99    57    56    1
   100    54    53    1
   101    52    53    1
   102    52    49    1
   103    50    49    1
   104    75    74   ar
   105    78    77    1
   106    78    79    1
   107    61    62   ar
   108    61    63   ar
   109    49    48    1
   110    77    71   am
   111    79    80    2
   112    74    76   ar
   113    74    73    1
   114    71    70    1
   115    71    72    2
   116    73    70    1
   117    70    69    1
