@<TRIPOS>MOLECULE
tmp/5yjkA00.pdb
 198 196 0 0 0
SMALL
GASTEIGER

@<TRIPOS>ATOM
      1  N         12.5370   44.3280   35.7890 N.3    23  GLN23      -0.1231
      2  CA        12.8070   44.5080   34.3920 C.3    23  GLN23       0.1698
      3  C         13.3170   43.2340   33.6990 C.2    23  GLN23       0.2592
      4  O         14.2080   42.5420   34.2000 O.2    23  GLN23      -0.2718
      5  CB        13.7560   45.6720   34.2670 C.3    23  GLN23       0.0381
      6  CG        15.0280   45.3500   33.5570 C.3    23  GLN23       0.0905
      7  CD        15.8530   46.5630   33.4080 C.2    23  GLN23       0.2608
      8  OE1       15.5980   47.5710   34.0710 O.2    23  GLN23      -0.2717
      9  NE2       16.8700   46.4900   32.5390 N.am   23  GLN23      -0.0878
     10  N         12.7660   42.9620   32.5270 N.am   24  LEU24      -0.1966
     11  CA        13.0020   41.6860   31.8610 C.3    24  LEU24       0.1728
     12  C         14.4400   41.3850   31.4700 C.2    24  LEU24       0.2616
     13  O         15.1290   42.2090   30.8890 O.2    24  LEU24      -0.2715
     14  CB        12.1260   41.5870   30.6380 C.3    24  LEU24       0.0311
     15  CG        12.3400   40.4550   29.6490 C.3    24  LEU24       0.0022
     16  CD1       11.7150   39.2100   30.2210 C.3    24  LEU24       0.0001
     17  CD2       11.6930   40.8200   28.3320 C.3    24  LEU24       0.0001
     18  N         14.8770   40.1700   31.7670 N.am   25  HIS25      -0.1959
     19  CA        16.2010   39.7730   31.3670 C.3    25  HIS25       0.1787
     20  C         16.1430   38.6960   30.2840 C.2    25  HIS25       0.2620
     21  O         16.6690   38.8620   29.1970 O.2    25  HIS25      -0.2715
     22  CB        17.0020   39.3250   32.5830 C.3    25  HIS25       0.0785
     23  CG        18.4710   39.2950   32.3490 C.ar   25  HIS25       0.0821
     24  ND1       19.2570   40.4380   32.3230 N.ar   25  HIS25      -0.2267
     25  CD2       19.3090   38.2510   32.1320 C.ar   25  HIS25       0.1154
     26  CE1       20.5130   40.0870   32.0870 C.ar   25  HIS25       0.1986
     27  NE2       20.5690   38.7670   31.9660 N.ar   25  HIS25      -0.2212
     28  N         15.4840   37.5910   30.5870 N.am   26  CYS26      -0.1968
     29  CA        15.4040   36.4620   29.6890 C.3    26  CYS26       0.1712
     30  C         14.0730   35.8040   29.7850 C.2    26  CYS26       0.2296
     31  O         13.2580   36.1640   30.5960 O.2    26  CYS26      -0.2864
     32  CB        16.4870   35.4480   30.0570 C.3    26  CYS26       0.0983
     33  SG        18.0280   35.9740   29.2810 S.3    26  CYS26      -0.0798
     34  N         23.6310   32.0020   28.4200 N.3    41  HIS41      -0.1241
     35  CA        23.9500   33.4200   28.3130 C.3    41  HIS41       0.1621
     36  C         23.0230   34.3570   29.1380 C.2    41  HIS41       0.2264
     37  O         23.2430   35.5370   29.1940 O.2    41  HIS41      -0.2867
     38  CB        24.0700   33.8510   26.8530 C.3    41  HIS41       0.0745
     39  CG        22.7610   34.0990   26.1780 C.ar   41  HIS41       0.0817
     40  ND1       22.0320   33.1040   25.5640 N.ar   41  HIS41      -0.2268
     41  CD2       22.0470   35.2350   26.0230 C.ar   41  HIS41       0.1154
     42  CE1       20.9220   33.6160   25.0720 C.ar   41  HIS41       0.1986
     43  NE2       20.9240   34.9090   25.3100 N.ar   41  HIS41      -0.2212
     44  N         28.7730   30.3130   21.8570 N.3    80  HIS80      -0.1241
     45  CA        27.4310   30.0350   22.3850 C.3    80  HIS80       0.1621
     46  C         26.9260   28.6540   22.0340 C.2    80  HIS80       0.2264
     47  O         25.7390   28.4350   21.8620 O.2    80  HIS80      -0.2867
     48  CB        26.4330   31.0770   21.9380 C.3    80  HIS80       0.0745
     49  CG        26.9170   32.4820   22.0990 C.ar   80  HIS80       0.0817
     50  ND1       27.0330   33.1000   23.3350 N.ar   80  HIS80      -0.2268
     51  CD2       27.2880   33.3970   21.1720 C.ar   80  HIS80       0.1154
     52  CE1       27.4640   34.3390   23.1490 C.ar   80  HIS80       0.1986
     53  NE2       27.6210   34.5430   21.8520 N.ar   80  HIS80      -0.2212
     54  N         24.3310   26.4520   24.7450 N.3    83  ASP83      -0.1239
     55  CA        23.6830   27.5490   25.4530 C.3    83  ASP83       0.1674
     56  C         22.4280   27.0660   26.2060 C.2    83  ASP83       0.2266
     57  O         21.3060   27.1760   25.7290 O.2    83  ASP83      -0.2867
     58  CB        23.3280   28.6650   24.4860 C.3    83  ASP83       0.1410
     59  CG        22.9640   29.9740   25.1820 C.2    83  ASP83       0.3668
     60  OD1       23.1320   30.0980   26.4270 O.co2  83  ASP83      -0.2456
     61  OD2       22.5560   30.9120   24.4630 O.co2  83  ASP83      -0.2456
     62  N         13.2140   49.5220   20.0390 N.3   128  VAL128     -0.1245
     63  CA        12.6030   48.5180   20.9300 C.3   128  VAL128      0.1561
     64  C         11.2450   48.8710   21.5950 C.2   128  VAL128      0.2260
     65  O         11.0500   49.9890   22.0880 O.2   128  VAL128     -0.2867
     66  CB        13.6010   48.0330   21.9980 C.3   128  VAL128      0.0252
     67  CG1       14.6610   47.1780   21.3490 C.3   128  VAL128      0.0019
     68  CG2       14.2350   49.1960   22.7450 C.3   128  VAL128      0.0019
     69  N          8.6700   46.9190   24.3570 N.3   130  PHE130     -0.1241
     70  CA         8.3720   45.7830   25.2140 C.3   130  PHE130      0.1605
     71  C          6.8950   45.6360   25.6680 C.2   130  PHE130      0.2264
     72  O          6.3030   46.5470   26.2840 O.2   130  PHE130     -0.2867
     73  CB         9.2880   45.7510   26.3990 C.3   130  PHE130      0.0534
     74  CG        10.7310   45.5680   26.0410 C.ar  130  PHE130     -0.0203
     75  CD1       11.2400   44.3040   25.7660 C.ar  130  PHE130     -0.0042
     76  CD2       11.5900   46.6410   26.0260 C.ar  130  PHE130     -0.0042
     77  CE1       12.5810   44.1330   25.4470 C.ar  130  PHE130     -0.0003
     78  CE2       12.9230   46.4790   25.7010 C.ar  130  PHE130     -0.0003
     79  CZ        13.4170   45.2210   25.4260 C.ar  130  PHE130     -0.0000
     80  N         10.1370   35.9070   13.9900 N.3   170  ASN170     -0.1225
     81  CA        11.2520   35.4530   14.7500 C.3   170  ASN170      0.1785
     82  C         11.1890   35.9090   16.1900 C.2   170  ASN170      0.2597
     83  O         10.2150   36.5130   16.6290 O.2   170  ASN170     -0.2718
     84  CB        12.5260   35.9620   14.0980 C.3   170  ASN170      0.1169
     85  CG        13.5320   34.8530   13.8740 C.2   170  ASN170      0.2627
     86  OD1       13.7430   34.0130   14.7450 O.2   170  ASN170     -0.2716
     87  ND2       14.1640   34.8500   12.7120 N.am  170  ASN170     -0.0877
     88  N         12.2530   35.5970   16.9160 N.am  171  ALA171     -0.1966
     89  CA        12.4300   36.0520   18.2760 C.3   171  ALA171      0.1728
     90  C         13.4220   37.2310   18.2780 C.2   171  ALA171      0.2616
     91  O         14.1750   37.4450   17.3460 O.2   171  ALA171     -0.2715
     92  CB        12.9340   34.9070   19.1340 C.3   171  ALA171      0.0334
     93  N         13.4060   38.0040   19.3440 N.am  172  CYS172     -0.1954
     94  CA        14.2690   39.1230   19.4290 C.3   172  CYS172      0.1843
     95  C         14.7320   39.3180   20.8500 C.2   172  CYS172      0.2625
     96  O         14.5080   38.4660   21.6830 O.2   172  CYS172     -0.2714
     97  CB        13.5010   40.3490   18.9540 C.3   172  CYS172      0.0997
     98  SG        14.5060   41.7500   18.4270 S.3   172  CYS172     -0.0797
     99  N         15.3680   40.4640   21.1090 N.am  173  ASN173     -0.1958
    100  CA        15.9270   40.7820   22.4370 C.3   173  ASN173      0.1819
    101  C         14.9330   40.6780   23.5900 C.2   173  ASN173      0.2621
    102  O         13.8850   41.2780   23.5660 O.2   173  ASN173     -0.2715
    103  CB        16.5630   42.1560   22.4180 C.3   173  ASN173      0.1195
    104  CG        17.6050   42.2830   21.3190 C.2   173  ASN173      0.2630
    105  OD1       17.3340   42.8340   20.2210 O.2   173  ASN173     -0.2716
    106  ND2       18.7860   41.7260   21.5740 N.am  173  ASN173     -0.0877
    107  N         15.2800   39.8870   24.5940 N.am  174  GLY174     -0.1954
    108  CA        14.3910   39.6190   25.7190 C.3   174  GLY174      0.1869
    109  C         13.6770   38.2790   25.6120 C.2   174  GLY174      0.2309
    110  O         13.2580   37.7070   26.5970 O.2   174  GLY174     -0.2863
    111  N         15.2210   35.6750   24.6970 N.3   176  SER176     -0.1217
    112  CA        16.3260   34.7910   25.0480 C.3   176  SER176      0.1889
    113  C         16.0150   33.8030   26.1480 C.2   176  SER176      0.2288
    114  O         15.4820   34.1760   27.1600 O.2   176  SER176     -0.2866
    115  CB        17.5240   35.6280   25.5330 C.3   176  SER176      0.2089
    116  OG        18.5420   35.6590   24.5590 O.3   176  SER176     -0.2183
    117  N         15.6010   29.7020   23.0260 N.3   190  VAL190     -0.1231
    118  CA        16.0260   30.7880   22.1750 C.3   190  VAL190      0.1692
    119  C         17.4660   31.2330   22.4980 C.2   190  VAL190      0.2593
    120  O         17.7500   31.6760   23.6080 O.2   190  VAL190     -0.2718
    121  CB        15.0250   31.9690   22.2650 C.3   190  VAL190      0.0266
    122  CG1       15.6180   33.2650   21.7160 C.3   190  VAL190      0.0020
    123  CG2       13.7570   31.6710   21.4890 C.3   190  VAL190      0.0020
    124  N         18.3570   31.1580   21.5150 N.am  191  SER191     -0.1938
    125  CA        19.7780   31.4350   21.7450 C.3   191  SER191      0.2055
    126  C         20.3730   32.6350   21.0180 C.2   191  SER191      0.2643
    127  O         20.8970   33.5330   21.6550 O.2   191  SER191     -0.2714
    128  CB        20.5740   30.1890   21.4130 C.3   191  SER191      0.2130
    129  OG        21.9530   30.4070   21.5090 O.3   191  SER191     -0.2179
    130  N         20.3200   32.6390   19.6920 N.am  192  TRP192     -0.1959
    131  CA        20.9310   33.6980   18.9160 C.3   192  TRP192      0.1771
    132  C         20.3810   33.8170   17.5140 C.2   192  TRP192      0.2620
    133  O         19.6280   32.9750   17.0710 O.2   192  TRP192     -0.2715
    134  CB        22.4530   33.5290   18.9330 C.3   192  TRP192      0.0590
    135  CG        23.0420   32.3630   18.2470 C.ar  192  TRP192      0.0006
    136  CD1       23.4030   31.1850   18.7990 C.ar  192  TRP192      0.0946
    137  CD2       23.4210   32.2980   16.8810 C.ar  192  TRP192      0.0152
    138  NE1       23.9610   30.3680   17.8540 N.ar  192  TRP192     -0.2442
    139  CE2       23.9720   31.0300   16.6570 C.ar  192  TRP192      0.0810
    140  CE3       23.3200   33.1780   15.8100 C.ar  192  TRP192      0.0012
    141  CZ2       24.4530   30.6400   15.4130 C.ar  192  TRP192      0.0191
    142  CZ3       23.7870   32.7700   14.5610 C.ar  192  TRP192      0.0001
    143  CH2       24.3440   31.5290   14.3800 C.ar  192  TRP192      0.0015
    144  N         20.7500   34.8810   16.8270 N.am  193  GLY193     -0.1940
    145  CA        20.2980   35.1290   15.4640 C.3   193  GLY193      0.2014
    146  C         20.9390   36.3840   14.9470 C.2   193  GLY193      0.2640
    147  O         21.9790   36.7560   15.4420 O.2   193  GLY193     -0.2714
    148  N         20.3570   37.0260   13.9390 N.am  194  THR194     -0.1936
    149  CA        20.9750   38.2350   13.3660 C.3   194  THR194      0.2028
    150  C         20.2660   39.5260   13.7960 C.2   194  THR194      0.2642
    151  O         19.1270   39.5380   14.2370 O.2   194  THR194     -0.2714
    152  CB        21.1580   38.2000   11.8140 C.3   194  THR194      0.1808
    153  OG1       19.8940   38.2020   11.1470 O.3   194  THR194     -0.2208
    154  CG2       21.9680   36.9850   11.3850 C.3   194  THR194      0.0379
    155  N         20.9910   40.6240   13.6780 N.am  195  PHE195     -0.1973
    156  CA        20.4970   41.9000   14.1350 C.3   195  PHE195      0.1639
    157  C         20.4380   42.9230   12.9860 C.2   195  PHE195      0.2290
    158  O         21.4160   43.1450   12.2950 O.2   195  PHE195     -0.2864
    159  CB        21.3610   42.3840   15.2790 C.3   195  PHE195      0.0560
    160  CG        20.9030   43.6610   15.8590 C.ar  195  PHE195     -0.0200
    161  CD1       21.3600   44.8600   15.3410 C.ar  195  PHE195     -0.0042
    162  CD2       20.0280   43.6830   16.9160 C.ar  195  PHE195     -0.0042
    163  CE1       20.9460   46.0680   15.8700 C.ar  195  PHE195     -0.0003
    164  CE2       19.6100   44.8820   17.4700 C.ar  195  PHE195     -0.0003
    165  CZ        20.0600   46.0790   16.9340 C.ar  195  PHE195     -0.0000
    166  N         16.4370   42.0550   14.3960 N.3   197  CYS197     -0.1221
    167  CA        15.6490   40.8760   14.4030 C.3   197  CYS197      0.1808
    168  C         14.6470   40.9320   13.2720 C.2   197  CYS197      0.2601
    169  O         14.2650   41.9990   12.8350 O.2   197  CYS197     -0.2717
    170  CB        14.9150   40.8380   15.7180 C.3   197  CYS197      0.0970
    171  SG        15.9000   40.9660   17.2110 S.3   197  CYS197     -0.0800
    172  N         14.2220   39.7830   12.7880 N.am  198  GLY198     -0.1957
    173  CA        13.1920   39.7380   11.7740 C.3   198  GLY198      0.1869
    174  C         13.6350   39.9760   10.3510 C.2   198  GLY198      0.2309
    175  O         12.8110   40.1900    9.5040 O.2   198  GLY198     -0.2863
    176  N         16.1960   32.1530   13.1880 N.3   204  GLY204     -0.1210
    177  CA        16.5090   32.1530   14.5780 C.3   204  GLY204      0.1956
    178  C         17.1760   30.8440   14.9820 C.2   204  GLY204      0.2612
    179  O         16.8020   29.7790   14.5120 O.2   204  GLY204     -0.2717
    180  N         18.1500   30.9280   15.8750 N.am  205  VAL205     -0.1965
    181  CA        18.9070   29.7490   16.2900 C.3   205  VAL205      0.1727
    182  C         18.6070   29.3380   17.7540 C.2   205  VAL205      0.2616
    183  O         18.5950   30.1370   18.6830 O.2   205  VAL205     -0.2715
    184  CB        20.4110   29.9980   16.1090 C.3   205  VAL205      0.0290
    185  CG1       21.2170   28.8000   16.5910 C.3   205  VAL205      0.0023
    186  CG2       20.7160   30.2990   14.6600 C.3   205  VAL205      0.0023
    187  N         18.3660   28.0570   17.9260 N.am  206  TYR206     -0.1974
    188  CA        17.9430   27.5460   19.2010 C.3   206  TYR206      0.1639
    189  C         18.8280   26.4410   19.6430 C.2   206  TYR206      0.2290
    190  O         19.3440   25.6750   18.8400 O.2   206  TYR206     -0.2864
    191  CB        16.5160   26.9860   19.1700 C.3   206  TYR206      0.0560
    192  CG        15.4690   27.9530   18.7100 C.ar  206  TYR206     -0.0198
    193  CD1       15.3940   28.3280   17.3810 C.ar  206  TYR206     -0.0009
    194  CD2       14.5820   28.5050   19.5930 C.ar  206  TYR206     -0.0009
    195  CE1       14.4460   29.2330   16.9470 C.ar  206  TYR206      0.0417
    196  CE2       13.6280   29.3850   19.1800 C.ar  206  TYR206      0.0417
    197  CZ        13.5530   29.7580   17.8640 C.ar  206  TYR206      0.1957
    198  OH        12.5900   30.6520   17.4250 O.3   206  TYR206     -0.2866
@<TRIPOS>BOND
     1   175   174    2
     2   174   173    1
     3   153   152    1
     4   154   152    1
     5   173   172    1
     6   152   149    1
     7   158   157    2
     8    87    85   am
     9   172   168   am
    10   169   168    2
    11   157   156    1
    12   176   177    1
    13   168   167    1
    14   149   150    1
    15   149   148    1
    16   155   150   am
    17   155   156    1
    18   150   151    2
    19    85    84    1
    20    85    86    2
    21   148   146   am
    22    80    81    1
    23    84    81    1
    24   156   159    1
    25   143   142   ar
    26   143   141   ar
    27   166   167    1
    28   167   170    1
    29   179   178    2
    30   142   140   ar
    31   177   178    1
    32   186   184    1
    33    81    82    1
    34   146   147    2
    35   146   145    1
    36   178   180   am
    37   159   160    1
    38   161   160   ar
    39   161   163   ar
    40   141   139   ar
    41   145   144    1
    42   170   171    1
    43   140   137   ar
    44   160   162   ar
    45   163   165   ar
    46   180   181    1
    47   184   181    1
    48   184   185    1
    49    82    83    2
    50    82    88   am
    51   181   182    1
    52   139   137   ar
    53   139   138   ar
    54   144   132   am
    55   137   135   ar
    56   162   164   ar
    57    88    89    1
    58   165   164   ar
    59   195   193   ar
    60   195   197   ar
    61   133   132    2
    62   171    98    1
    63    91    90    2
    64   193   192   ar
    65   198   197    1
    66   132   131    1
    67   182   187   am
    68   182   183    2
    69   138   136   ar
    70   197   196   ar
    71   187   188    1
    72   135   136   ar
    73   135   134    1
    74    89    90    1
    75    89    92    1
    76    90    93   am
    77    98    97    1
    78   192   191    1
    79   192   194   ar
    80   190   189    2
    81   131   134    1
    82   131   130    1
    83    97    94    1
    84   191   188    1
    85   196   194   ar
    86   188   189    1
    87    93    94    1
    88    94    95    1
    89   130   126   am
    90    62    63    1
    91   105   104    2
    92    95    99   am
    93    95    96    2
    94    63    64    1
    95    63    66    1
    96   126   127    2
    97   126   125    1
    98    99   100    1
    99    51    53   ar
   100    51    49   ar
   101   104   106   am
   102   104   103    1
   103    67    66    1
   104   128   129    1
   105   128   125    1
   106   123   121    1
   107   124   125    1
   108   124   119   am
   109    64    65    2
   110   122   121    1
   111    53    52   ar
   112    44    45    1
   113    47    46    2
   114    48    49    1
   115    48    45    1
   116    66    68    1
   117    46    45    1
   118    49    50   ar
   119   118   121    1
   120   118   119    1
   121   118   117    1
   122   103   100    1
   123   100   101    1
   124   119   120    2
   125    52    50   ar
   126   102   101    2
   127   101   107   am
   128    69    70    1
   129    61    59   ar
   130    58    59    1
   131    58    55    1
   132   116   115    1
   133   107   108    1
   134   111   112    1
   135    54    55    1
   136   112   115    1
   137   112   113    1
   138    42    43   ar
   139    42    40   ar
   140    59    60   ar
   141    70    71    1
   142    70    73    1
   143    43    41   ar
   144    79    77   ar
   145    79    78   ar
   146    77    75   ar
   147    55    56    1
   148    40    39   ar
   149   109   108    1
   150   109   110    2
   151    71    72    2
   152    78    76   ar
   153    57    56    2
   154    75    74   ar
   155    41    39   ar
   156    76    74   ar
   157    74    73    1
   158   113   114    2
   159    39    38    1
   160    38    35    1
   161    35    34    1
   162    35    36    1
   163    17    15    1
   164    36    37    2
   165    21    20    2
   166    33    32    1
   167    15    16    1
   168    15    14    1
   169    29    30    1
   170    29    32    1
   171    29    28    1
   172    30    31    2
   173    20    28   am
   174    20    19    1
   175    14    11    1
   176    13    12    2
   177    19    18    1
   178    19    22    1
   179    12    18   am
   180    12    11    1
   181    11    10    1
   182    27    26   ar
   183    27    25   ar
   184    26    24   ar
   185    25    23   ar
   186    24    23   ar
   187    23    22    1
   188    10     3   am
   189     9     7   am
   190     7     6    1
   191     7     8    2
   192     6     5    1
   193     3     4    2
   194     3     2    1
   195     5     2    1
   196     2     1    1
