@<TRIPOS>MOLECULE
tmp/5yjlC00.pdb
 181 171 0 0 0
SMALL
GASTEIGER

@<TRIPOS>ATOM
      1  N          6.8040   20.3220  -73.3470 N.3    49  THR49      -0.1203
      2  CA         5.5520   20.9170  -72.8780 C.3    49  THR49       0.1994
      3  C          5.7130   22.4250  -72.5790 C.2    49  THR49       0.2618
      4  O          6.7770   23.0350  -72.8010 O.2    49  THR49      -0.2717
      5  CB         5.0380   20.1950  -71.6200 C.3    49  THR49       0.1784
      6  OG1        5.9670   20.3880  -70.5500 O.3    49  THR49      -0.2211
      7  CG2        4.8930   18.6930  -71.8730 C.3    49  THR49       0.0376
      8  N          4.6680   23.0280  -72.0440 N.am   50  CYS50      -0.1969
      9  CA         4.6910   24.4680  -71.8350 C.3    50  CYS50       0.1712
     10  C          5.4810   24.8510  -70.6080 C.2    50  CYS50       0.2296
     11  O          5.8090   26.0210  -70.4060 O.2    50  CYS50      -0.2864
     12  CB         3.2590   24.9790  -71.7390 C.3    50  CYS50       0.0983
     13  SG         2.3890   24.3960  -73.2020 S.3    50  CYS50      -0.0798
     14  N          0.7640   13.6460  -72.5520 N.3   120  GLN120     -0.1245
     15  CA         1.9340   13.9600  -73.3520 C.3   120  GLN120      0.1566
     16  C          2.9300   12.8000  -73.3430 C.2   120  GLN120      0.2260
     17  O          3.6550   12.6050  -74.3670 O.2   120  GLN120     -0.2867
     18  CB         2.5930   15.2630  -72.8400 C.3   120  GLN120      0.0367
     19  CG         3.6800   15.8260  -73.6830 C.3   120  GLN120      0.0905
     20  CD         3.3150   15.8070  -75.1760 C.2   120  GLN120      0.2608
     21  OE1        3.8300   15.0010  -75.9430 O.2   120  GLN120     -0.2717
     22  NE2        2.4310   16.7030  -75.5870 N.am  120  GLN120     -0.0878
     23  N         -2.1080   18.8190  -67.3760 N.3   161  GLY161     -0.1210
     24  CA        -1.4710   20.0960  -67.6110 C.3   161  GLY161      0.1956
     25  C         -2.4360   20.9370  -68.4190 C.2   161  GLY161      0.2611
     26  O         -2.7500   22.0570  -68.0370 O.2   161  GLY161     -0.2717
     27  N         -2.9320   20.3530  -69.5070 N.am  162  ALA162     -0.1979
     28  CA        -3.9580   20.9590  -70.3530 C.3   162  ALA162      0.1597
     29  C         -5.1430   21.5590  -69.5680 C.2   162  ALA162      0.2287
     30  O         -5.4630   22.7390  -69.7160 O.2   162  ALA162     -0.2864
     31  CB        -4.4750   19.9170  -71.3610 C.3   162  ALA162      0.0319
     32  N         -3.8590   24.3340  -67.0280 N.3   165  VAL165     -0.1245
     33  CA        -3.4260   25.5610  -67.7070 C.3   165  VAL165      0.1561
     34  C         -4.6400   26.4070  -68.1650 C.2   165  VAL165      0.2260
     35  O         -4.7420   27.5860  -67.8190 O.2   165  VAL165     -0.2867
     36  CB        -2.5110   25.2630  -68.9370 C.3   165  VAL165      0.0252
     37  CG1       -2.3330   26.5080  -69.8180 C.3   165  VAL165      0.0019
     38  CG2       -1.1550   24.7610  -68.4980 C.3   165  VAL165      0.0019
     39  N         -7.7500   30.2630  -81.6680 N.3   185  GLY185     -0.1210
     40  CA        -7.3080   28.8800  -81.7010 C.3   185  GLY185      0.1956
     41  C         -8.3710   27.9960  -81.0710 C.2   185  GLY185      0.2612
     42  O         -8.7790   28.2320  -79.9350 O.2   185  GLY185     -0.2717
     43  N         -8.8390   26.9960  -81.8060 N.am  186  ALA186     -0.1965
     44  CA        -9.9610   26.1830  -81.3630 C.3   186  ALA186      0.1728
     45  C         -9.5770   24.7000  -81.2440 C.2   186  ALA186      0.2617
     46  O        -10.3960   23.8100  -81.4920 O.2   186  ALA186     -0.2715
     47  CB       -11.1400   26.3520  -82.3260 C.3   186  ALA186      0.0334
     48  N         -8.3280   24.4410  -80.8720 N.am  187  GLY187     -0.1940
     49  CA        -7.8590   23.0790  -80.7220 C.3   187  GLY187      0.2014
     50  C         -8.0610   22.6660  -79.2840 C.2   187  GLY187      0.2639
     51  O         -8.9590   23.1800  -78.6070 O.2   187  GLY187     -0.2714
     52  N         -7.2130   21.7600  -78.8040 N.am  188  LYS188     -0.1963
     53  CA        -7.3860   21.2030  -77.4680 C.3   188  LYS188      0.1728
     54  C         -7.5030   22.2890  -76.4060 C.2   188  LYS188      0.2616
     55  O         -8.4730   22.3370  -75.6440 O.2   188  LYS188     -0.2715
     56  CB        -6.2390   20.2590  -77.1240 C.3   188  LYS188      0.0311
     57  CG        -6.3110   19.6880  -75.7110 C.3   188  LYS188      0.0038
     58  CD        -5.5560   18.3560  -75.6530 C.3   188  LYS188      0.0206
     59  CE        -6.1700   17.3930  -74.6690 C.3   188  LYS188      0.1093
     60  NZ        -5.9560   17.8300  -73.2710 N.3   188  LYS188     -0.1314
     61  N         -6.5180   23.1780  -76.3820 N.am  189  MET189     -0.1977
     62  CA        -6.4400   24.1450  -75.3190 C.3   189  MET189      0.1605
     63  C         -7.5810   25.1580  -75.3910 C.2   189  MET189      0.2287
     64  O         -8.2250   25.4300  -74.3640 O.2   189  MET189     -0.2864
     65  CB        -5.0830   24.8040  -75.3480 C.3   189  MET189      0.0413
     66  CG        -4.0130   23.8440  -74.8950 C.3   189  MET189      0.0598
     67  SD        -4.4300   23.1900  -73.2630 S.3   189  MET189     -0.1393
     68  CE        -4.5200   24.6970  -72.3160 C.3   189  MET189      0.0692
     69  N        -10.6100   30.8990  -85.4600 N.3   209  ASN209     -0.1225
     70  CA        -9.8030   29.7720  -85.8670 C.3   209  ASN209      0.1785
     71  C         -9.3870   29.8270  -87.3200 C.2   209  ASN209      0.2597
     72  O        -10.0280   30.4710  -88.1460 O.2   209  ASN209     -0.2718
     73  CB       -10.5210   28.4600  -85.6170 C.3   209  ASN209      0.1169
     74  CG        -9.5630   27.2880  -85.5930 C.2   209  ASN209      0.2627
     75  OD1       -8.4580   27.4040  -85.0590 O.2   209  ASN209     -0.2716
     76  ND2       -9.9540   26.1720  -86.1980 N.am  209  ASN209     -0.0877
     77  N         -8.2960   29.1320  -87.6130 N.am  210  ARG210     -0.1966
     78  CA        -7.7620   29.0350  -88.9610 C.3   210  ARG210      0.1729
     79  C         -8.7250   28.2360  -89.8380 C.2   210  ARG210      0.2616
     80  O         -8.9810   28.6020  -90.9770 O.2   210  ARG210     -0.2715
     81  CB        -6.3720   28.3930  -88.9230 C.3   210  ARG210      0.0348
     82  CG        -5.7030   28.2200  -90.2640 C.3   210  ARG210      0.0492
     83  CD        -4.3000   27.6340  -90.0960 C.3   210  ARG210      0.2205
     84  NE        -4.3480   26.3350  -89.4460 N.pl3 210  ARG210     -0.0865
     85  CZ        -3.3280   25.4870  -89.3680 C.cat 210  ARG210      0.5346
     86  NH1       -2.1490   25.8010  -89.8950 N.pl3 210  ARG210      0.1354
     87  NH2       -3.4920   24.3250  -88.7480 N.pl3 210  ARG210      0.1354
     88  N         -9.2660   27.1470  -89.2970 N.am  211  SER211     -0.1950
     89  CA       -10.2400   26.3370  -90.0270 C.3   211  SER211      0.1924
     90  C        -11.5630   26.4120  -89.2830 C.2   211  SER211      0.2314
     91  O        -11.5860   26.5730  -88.0620 O.2   211  SER211     -0.2863
     92  CB        -9.7630   24.8730  -90.1960 C.3   211  SER211      0.2116
     93  OG        -9.9730   24.0570  -89.0450 O.3   211  SER211     -0.2180
     94  N        -13.4900   22.9360  -86.9020 N.3   214  ARG214     -0.1245
     95  CA       -13.3620   22.7750  -85.4590 C.3   214  ARG214      0.1563
     96  C        -14.3990   23.6010  -84.6990 C.2   214  ARG214      0.2260
     97  O        -14.9710   23.1460  -83.7000 O.2   214  ARG214     -0.2867
     98  CB       -11.9620   23.1680  -84.9910 C.3   214  ARG214      0.0307
     99  CG       -10.9410   22.0440  -84.9530 C.3   214  ARG214      0.0489
    100  CD        -9.6530   22.5700  -84.3440 C.3   214  ARG214      0.2205
    101  NE        -8.4690   21.8120  -84.7280 N.pl3 214  ARG214     -0.0865
    102  CZ        -8.0370   20.7370  -84.0760 C.cat 214  ARG214      0.5346
    103  NH1       -8.7050   20.2920  -83.0180 N.pl3 214  ARG214      0.1354
    104  NH2       -6.9420   20.1080  -84.4770 N.pl3 214  ARG214      0.1354
    105  N         -9.1400   33.5710  -89.3450 N.3   232  LEU232     -0.1245
    106  CA        -7.8860   34.0300  -88.7480 C.3   232  LEU232      0.1561
    107  C         -7.5000   35.4310  -89.1820 C.2   232  LEU232      0.2260
    108  O         -7.0850   36.2420  -88.3560 O.2   232  LEU232     -0.2867
    109  CB        -6.7530   33.0700  -89.0940 C.3   232  LEU232      0.0270
    110  CG        -5.5230   33.1590  -88.1910 C.3   232  LEU232      0.0019
    111  CD1       -5.9280   33.0930  -86.7220 C.3   232  LEU232      0.0001
    112  CD2       -4.5690   32.0390  -88.5210 C.3   232  LEU232      0.0001
    113  N         -4.3270   30.5900  -78.2240 N.3   248  SER248     -0.1202
    114  CA        -3.9540   29.2090  -77.9990 C.3   248  SER248      0.2020
    115  C         -3.7830   28.4720  -79.3110 C.2   248  SER248      0.2619
    116  O         -4.3160   27.3830  -79.4780 O.2   248  SER248     -0.2717
    117  CB        -5.0020   28.5060  -77.1350 C.3   248  SER248      0.2103
    118  OG        -6.2990   28.6000  -77.7140 O.3   248  SER248     -0.2182
    119  N         -3.0490   29.0680  -80.2440 N.am  249  THR249     -0.1938
    120  CA        -2.7380   28.4050  -81.5080 C.3   249  THR249      0.2028
    121  C         -1.3550   27.8050  -81.4460 C.2   249  THR249      0.2642
    122  O         -0.5410   28.2190  -80.6250 O.2   249  THR249     -0.2714
    123  CB        -2.7550   29.3530  -82.7000 C.3   249  THR249      0.1808
    124  OG1       -1.5500   30.1280  -82.6760 O.3   249  THR249     -0.2208
    125  CG2       -3.9950   30.2550  -82.6740 C.3   249  THR249      0.0379
    126  N         -1.0880   26.8530  -82.3340 N.am  250  ALA250     -0.1963
    127  CA         0.2230   26.2160  -82.4100 C.3   250  ALA250      0.1728
    128  C          1.1840   26.9740  -83.3370 C.2   250  ALA250      0.2617
    129  O          2.1880   26.4080  -83.7890 O.2   250  ALA250     -0.2715
    130  CB         0.0870   24.7760  -82.8760 C.3   250  ALA250      0.0334
    131  N          0.8860   28.2350  -83.6360 N.am  251  SER251     -0.1936
    132  CA         1.7970   29.0360  -84.4450 C.3   251  SER251      0.2055
    133  C          3.1440   29.2040  -83.7120 C.2   251  SER251      0.2642
    134  O          3.1910   29.5100  -82.5210 O.2   251  SER251     -0.2714
    135  CB         1.1780   30.3950  -84.7780 C.3   251  SER251      0.2130
    136  OG         2.1570   31.3100  -85.2420 O.3   251  SER251     -0.2179
    137  N          4.2390   28.9830  -84.4240 N.am  252  GLU252     -0.1976
    138  CA         5.5380   29.0430  -83.7720 C.3   252  GLU252      0.1602
    139  C          6.0950   30.4460  -83.7790 C.2   252  GLU252      0.2287
    140  O          7.1410   30.7070  -83.2010 O.2   252  GLU252     -0.2864
    141  CB         6.5140   28.0780  -84.4300 C.3   252  GLU252      0.0415
    142  CG         6.0710   26.6330  -84.2570 C.3   252  GLU252      0.1163
    143  CD         7.2180   25.6790  -84.2300 C.2   252  GLU252      0.3649
    144  OE1        7.7430   25.4180  -83.1180 O.co2 252  GLU252     -0.2457
    145  OE2        7.5870   25.1950  -85.3270 O.co2 252  GLU252     -0.2457
    146  N          1.3280   35.9720  -83.0480 N.3   255  LEU255     -0.1245
    147  CA         0.2070   36.5300  -83.7950 C.3   255  LEU255      0.1561
    148  C          0.0370   38.0600  -83.5990 C.2   255  LEU255      0.2260
    149  O         -0.2530   38.7820  -84.5530 O.2   255  LEU255     -0.2867
    150  CB        -1.0750   35.8000  -83.3910 C.3   255  LEU255      0.0270
    151  CG        -1.0360   34.2810  -83.5810 C.3   255  LEU255      0.0019
    152  CD1       -2.3670   33.6540  -83.2070 C.3   255  LEU255      0.0001
    153  CD2       -0.6540   33.9530  -85.0070 C.3   255  LEU255      0.0001
    154  N         -1.5570   31.3980  -73.7420 N.3   280  ILE280     -0.1231
    155  CA        -1.2040   30.1290  -73.1330 C.3   280  ILE280      0.1692
    156  C         -0.4340   29.2710  -74.1200 C.2   280  ILE280      0.2593
    157  O         -0.1850   28.1000  -73.8780 O.2   280  ILE280     -0.2718
    158  CB        -2.4490   29.3810  -72.6310 C.3   280  ILE280      0.0266
    159  CG1       -3.3810   29.0240  -73.7730 C.3   280  ILE280      0.0019
    160  CG2       -3.2150   30.2180  -71.6170 C.3   280  ILE280      0.0020
    161  CD1       -4.5760   28.2630  -73.2870 C.3   280  ILE280      0.0001
    162  N         -0.0420   29.8860  -75.2290 N.am  281  SER281     -0.1938
    163  CA         0.7330   29.2270  -76.2680 C.3   281  SER281      0.2055
    164  C          2.2290   29.1820  -75.9290 C.2   281  SER281      0.2643
    165  O          2.7740   30.1580  -75.4160 O.2   281  SER281     -0.2714
    166  CB         0.5270   29.9450  -77.6060 C.3   281  SER281      0.2130
    167  OG        -0.7220   29.6060  -78.1730 O.3   281  SER281     -0.2179
    168  N          2.8640   28.0390  -76.1990 N.am  282  VAL282     -0.1963
    169  CA         4.3130   27.9430  -76.1880 C.3   282  VAL282      0.1712
    170  C          4.8000   27.2160  -77.4540 C.2   282  VAL282      0.2458
    171  O          4.5120   26.0330  -77.6500 O.2   282  VAL282     -0.2730
    172  CB         4.8540   27.2350  -74.9280 C.3   282  VAL282      0.0289
    173  CG1        6.3620   27.0450  -75.0430 C.3   282  VAL282      0.0023
    174  CG2        4.5370   28.0360  -73.6840 C.3   282  VAL282      0.0023
    175  N          5.5390   27.9240  -78.3330 N.am  283  PRO283     -0.2727
    176  CA         5.9660   29.3310  -78.2740 C.3   283  PRO283      0.1402
    177  C          4.7990   30.3060  -78.1930 C.2   283  PRO283      0.2269
    178  O          3.6880   29.9800  -78.6450 O.2   283  PRO283     -0.2865
    179  CB         6.7150   29.5360  -79.5940 C.3   283  PRO283      0.0296
    180  CG         7.1130   28.1810  -80.0340 C.3   283  PRO283      0.0237
    181  CD         6.0840   27.2280  -79.5150 C.3   283  PRO283      0.0939
@<TRIPOS>BOND
     1    80    79    2
     2    82    83    1
     3    82    81    1
     4    92    89    1
     5    92    93    1
     6    83    84    1
     7    89    88    1
     8    89    90    1
     9    86    85    1
    10    79    88   am
    11    79    78    1
    12    84    85    2
    13    85    87    1
    14   105   106    1
    15    90    91    2
    16   107   106    1
    17   107   108    2
    18   109   106    1
    19   109   110    1
    20    78    81    1
    21    78    77    1
    22   112   110    1
    23   110   111    1
    24    72    71    2
    25    77    71   am
    26    71    70    1
    27    94    95    1
    28    76    74   am
    29    70    73    1
    30    70    69    1
    31    73    74    1
    32    74    75    2
    33    95    98    1
    34    95    96    1
    35   145   143   ar
    36   136   135    1
    37   153   151    1
    38    98    99    1
    39    99   100    1
    40   135   132    1
    41   101   100    1
    42   101   102    2
    43    96    97    2
    44   149   148    2
    45   104   102    1
    46   132   133    1
    47   132   131    1
    48   141   142    1
    49   141   138    1
    50   137   138    1
    51   137   133   am
    52   142   143    1
    53   143   144   ar
    54   102   103    1
    55   147   148    1
    56   147   150    1
    57   147   146    1
    58   129   128    2
    59   139   138    1
    60   139   140    2
    61   133   134    2
    62   131   128   am
    63   151   150    1
    64   151   152    1
    65   128   127    1
    66   130   127    1
    67   123   124    1
    68   123   125    1
    69   123   120    1
    70   127   126    1
    71   126   121   am
    72    47    44    1
    73    43    44    1
    74    43    41   am
    75    40    39    1
    76    40    41    1
    77   120   121    1
    78   120   119    1
    79    46    45    2
    80   121   122    2
    81    44    45    1
    82    45    48   am
    83    41    42    2
    84    48    49    1
    85    49    50    1
    86   119   115   am
    87   180   179    1
    88   180   181    1
    89   179   176    1
    90   181   175    1
    91   116   115    2
    92   115   114    1
    93    50    52   am
    94    50    51    2
    95    52    53    1
    96   178   177    2
    97   175   176    1
    98   175   170   am
    99   176   177    1
   100   113   114    1
   101   167   166    1
   102   114   117    1
   103   118   117    1
   104   171   170    2
   105   166   163    1
   106    53    56    1
   107    53    54    1
   108   170   169    1
   109    56    57    1
   110    54    61   am
   111    54    55    2
   112    61    62    1
   113   163   164    1
   114   163   162    1
   115   168   169    1
   116   168   164   am
   117   169   172    1
   118    21    20    2
   119   164   165    2
   120    57    58    1
   121    58    59    1
   122    22    20   am
   123    63    62    1
   124    63    64    2
   125    65    62    1
   126    65    66    1
   127   162   156   am
   128    20    19    1
   129   173   172    1
   130   172   174    1
   131    66    67    1
   132    59    60    1
   133    17    16    2
   134   156   157    2
   135   156   155    1
   136   159   161    1
   137   159   158    1
   138   154   155    1
   139    19    18    1
   140    15    16    1
   141    15    18    1
   142    15    14    1
   143     1     2    1
   144    67    68    1
   145    13    12    1
   146   155   158    1
   147     2     3    1
   148     2     5    1
   149     4     3    2
   150   158   160    1
   151     3     8   am
   152     8     9    1
   153     7     5    1
   154     9    12    1
   155     9    10    1
   156     5     6    1
   157    31    28    1
   158    10    11    2
   159    28    29    1
   160    28    27    1
   161    37    36    1
   162    30    29    2
   163    27    25   am
   164    36    38    1
   165    36    33    1
   166    25    26    2
   167    25    24    1
   168    34    35    2
   169    34    33    1
   170    33    32    1
   171    24    23    1
