@<TRIPOS>MOLECULE
tmp/5yjmA02.pdb
 217 211 0 0 0
SMALL
GASTEIGER

@<TRIPOS>ATOM
      1  N         -2.1670  -26.8740   -7.7710 N.3    20  ILE20      -0.1245
      2  CA        -2.7650  -26.9410   -9.1100 C.3    20  ILE20       0.1561
      3  C         -1.7230  -26.5990  -10.1670 C.2    20  ILE20       0.2260
      4  O         -1.1580  -25.5220  -10.1190 O.2    20  ILE20      -0.2867
      5  CB        -3.9510  -26.0480   -9.1500 C.3    20  ILE20       0.0252
      6  CG1       -4.9930  -26.5360   -8.1010 C.3    20  ILE20       0.0019
      7  CG2       -4.7320  -26.1260  -10.5100 C.3    20  ILE20       0.0019
      8  CD1       -5.4730  -25.3260   -7.5140 C.3    20  ILE20       0.0001
      9  N         -0.4410  -22.9730   -8.7090 N.3    28  LYS28      -0.1227
     10  CA        -1.3350  -22.1840   -7.8240 C.3    28  LYS28       0.1736
     11  C         -1.8970  -23.1270   -6.7470 C.2    28  LYS28       0.2595
     12  O         -1.5670  -24.3360   -6.6850 O.2    28  LYS28      -0.2718
     13  CB        -2.5010  -21.5790   -8.6290 C.3    28  LYS28       0.0541
     14  CG        -2.1670  -20.3070   -9.4610 C.2    28  LYS28      -0.0272
     15  CD        -2.6430  -20.3030  -10.9130 C.2    28  LYS28      -0.0103
     16  CE        -3.5670  -21.4560  -11.3640 C.3    28  LYS28       0.1350
     17  NZ        -4.2840  -21.1520  -12.6670 N.3    28  LYS28      -0.1262
     18  N         -2.7040  -22.5870   -5.8580 N.am   29  PHE29      -0.1962
     19  CA        -3.2780  -23.4520   -4.7810 C.3    29  PHE29       0.1771
     20  C         -4.6370  -23.0820   -4.3600 C.2    29  PHE29       0.2619
     21  O         -5.0420  -21.9580   -4.5820 O.2    29  PHE29      -0.2715
     22  CB        -2.2940  -23.5430   -3.6010 C.3    29  PHE29       0.0574
     23  CG        -2.2120  -22.3150   -2.7420 C.ar   29  PHE29      -0.0200
     24  CD1       -1.3620  -21.2620   -3.0900 C.ar   29  PHE29      -0.0042
     25  CD2       -2.9220  -22.2450   -1.5130 C.ar   29  PHE29      -0.0042
     26  CE1       -1.2810  -20.1170   -2.2750 C.ar   29  PHE29      -0.0003
     27  CE2       -2.8490  -21.0610   -0.7380 C.ar   29  PHE29      -0.0003
     28  CZ        -2.0800  -20.0140   -1.1310 C.ar   29  PHE29      -0.0000
     29  N         -5.3480  -24.0600   -3.8400 N.am   30  CYS30      -0.1968
     30  CA        -6.6950  -23.9140   -3.3490 C.3    30  CYS30       0.1712
     31  C         -6.8010  -24.8390   -2.1770 C.2    30  CYS30       0.2296
     32  O         -5.8790  -25.6340   -1.8910 O.2    30  CYS30      -0.2864
     33  CB        -7.7230  -24.3430   -4.3700 C.3    30  CYS30       0.0983
     34  SG        -7.8630  -23.2460   -5.7890 S.3    30  CYS30      -0.0798
     35  N        -13.3610  -23.5470  -10.0990 N.3    45  HIS45      -0.1226
     36  CA       -12.3580  -22.5750  -10.5850 C.3    45  HIS45       0.1752
     37  C        -10.9540  -22.9680  -10.1510 C.2    45  HIS45       0.2596
     38  O        -10.0150  -22.3800  -10.6040 O.2    45  HIS45      -0.2718
     39  CB       -12.7140  -21.1140  -10.2230 C.3    45  HIS45       0.0759
     40  CG       -12.5370  -20.7730   -8.7730 C.ar   45  HIS45       0.0818
     41  ND1      -13.5830  -20.6770   -7.8730 N.ar   45  HIS45      -0.2268
     42  CD2      -11.4130  -20.4190   -8.0910 C.ar   45  HIS45       0.1154
     43  CE1      -13.0900  -20.3260   -6.6980 C.ar   45  HIS45       0.1986
     44  NE2      -11.7670  -20.1370   -6.7990 N.ar   45  HIS45      -0.2212
     45  N        -10.7710  -24.0140   -9.3660 N.am   46  CYS46      -0.1956
     46  CA        -9.4850  -24.6190   -9.1120 C.3    46  CYS46       0.1843
     47  C         -9.0380  -25.7350  -10.0360 C.2    46  CYS46       0.2625
     48  O         -8.0530  -26.4570   -9.7490 O.2    46  CYS46      -0.2714
     49  CB        -9.4740  -25.1390   -7.6420 C.3    46  CYS46       0.0997
     50  SG        -9.7350  -23.7730   -6.4320 S.3    46  CYS46      -0.0797
     51  N         -9.7530  -25.9500  -11.1130 N.am   47  ALA47      -0.1977
     52  CA        -9.3900  -26.9960  -11.9910 C.3    47  ALA47       0.1597
     53  C         -8.0890  -26.6710  -12.6500 C.2    47  ALA47       0.2287
     54  O         -7.7470  -25.5420  -12.8510 O.2    47  ALA47      -0.2864
     55  CB       -10.4400  -27.2140  -13.0730 C.3    47  ALA47       0.0319
     56  N        -20.9370  -25.4420  -14.9090 N.3    81  TYR81      -0.1227
     57  CA       -19.9990  -24.4390  -14.4610 C.3    81  TYR81       0.1736
     58  C        -19.9050  -23.2890  -15.4340 C.2    81  TYR81       0.2595
     59  O        -19.6940  -23.4920  -16.5850 O.2    81  TYR81      -0.2718
     60  CB       -18.6320  -25.1070  -14.3180 C.3    81  TYR81       0.0548
     61  CG       -17.5090  -24.1950  -14.0160 C.ar   81  TYR81      -0.0200
     62  CD1      -17.5080  -23.3990  -12.8630 C.ar   81  TYR81      -0.0009
     63  CD2      -16.5030  -24.0310  -14.8870 C.ar   81  TYR81      -0.0009
     64  CE1      -16.5010  -22.5640  -12.5770 C.ar   81  TYR81       0.0417
     65  CE2      -15.4380  -23.2350  -14.5880 C.ar   81  TYR81       0.0417
     66  CZ       -15.4210  -22.5270  -13.4340 C.ar   81  TYR81       0.1957
     67  OH       -14.3920  -21.7270  -13.1890 O.3    81  TYR81      -0.2866
     68  N        -20.0300  -22.0510  -14.9910 N.am   82  ASN82      -0.1960
     69  CA       -20.2110  -20.9380  -15.8950 C.3    82  ASN82       0.1819
     70  C        -19.3170  -19.8670  -15.4750 C.2    82  ASN82       0.2621
     71  O        -19.4750  -19.3460  -14.3800 O.2    82  ASN82      -0.2715
     72  CB       -21.6500  -20.4780  -15.8530 C.3    82  ASN82       0.1195
     73  CG       -21.9910  -19.5320  -16.9910 C.2    82  ASN82       0.2630
     74  OD1      -21.3310  -18.5450  -17.2030 O.2    82  ASN82      -0.2716
     75  ND2      -23.0020  -19.8770  -17.7400 N.am   82  ASN82      -0.0877
     76  N        -18.3840  -19.5020  -16.3080 N.am   83  THR83      -0.1951
     77  CA       -17.4490  -18.4440  -15.9100 C.3    83  THR83       0.1897
     78  C        -18.0350  -17.0290  -16.2200 C.2    83  THR83       0.2313
     79  O        -17.4140  -16.0210  -15.8910 O.2    83  THR83      -0.2863
     80  CB       -16.1370  -18.5390  -16.6710 C.3    83  THR83       0.1794
     81  OG1      -16.4650  -18.6120  -18.0170 O.3    83  THR83      -0.2208
     82  CG2      -15.4010  -19.7630  -16.3890 C.3    83  THR83       0.0378
     83  N        -20.5480  -17.0370  -12.9780 N.3    86  LEU86      -0.1245
     84  CA       -19.9450  -17.6710  -11.8480 C.3    86  LEU86       0.1561
     85  C        -20.8140  -18.6920  -11.0730 C.2    86  LEU86       0.2260
     86  O        -20.5680  -18.9630   -9.8970 O.2    86  LEU86      -0.2867
     87  CB       -19.4260  -16.5970  -10.9050 C.3    86  LEU86       0.0270
     88  CG       -18.7550  -15.3950  -11.5120 C.3    86  LEU86       0.0019
     89  CD1      -18.3810  -14.3680  -10.4720 C.3    86  LEU86       0.0001
     90  CD2      -17.4640  -15.8680  -12.1170 C.3    86  LEU86       0.0001
     91  N        -20.0430  -23.5090   -9.1470 N.3    89  ASP89      -0.1239
     92  CA       -18.6160  -23.4840   -8.9470 C.3    89  ASP89       0.1674
     93  C        -18.2990  -24.6370   -7.9980 C.2    89  ASP89       0.2266
     94  O        -18.0750  -24.4140   -6.7530 O.2    89  ASP89      -0.2867
     95  CB       -18.1780  -22.1810   -8.2580 C.3    89  ASP89       0.1410
     96  CG       -16.6500  -22.0260   -8.1580 C.2    89  ASP89       0.3668
     97  OD1      -15.8970  -22.7780   -8.8680 O.co2  89  ASP89      -0.2456
     98  OD2      -16.2560  -21.0840   -7.3970 O.co2  89  ASP89      -0.2456
     99  N         -4.0460  -16.2300    1.4220 N.3   122  ARG122     -0.1245
    100  CA        -3.4110  -14.9870    1.7890 C.3   122  ARG122      0.1563
    101  C         -4.0930  -14.4520    3.0380 C.2   122  ARG122      0.2260
    102  O         -5.3160  -14.5050    3.1910 O.2   122  ARG122     -0.2867
    103  CB        -3.5240  -13.9240    0.6590 C.3   122  ARG122      0.0307
    104  CG        -2.9000  -14.4280   -0.6460 C.3   122  ARG122      0.0489
    105  CD        -2.7230  -13.2860   -1.6660 C.3   122  ARG122      0.2205
    106  NE        -2.0800  -13.8970   -2.8160 N.pl3 122  ARG122     -0.0865
    107  CZ        -0.8280  -13.6100   -3.2480 C.cat 122  ARG122      0.5346
    108  NH1       -0.0680  -12.6680   -2.6810 N.pl3 122  ARG122      0.1354
    109  NH2       -0.2850  -14.2730   -4.2800 N.pl3 122  ARG122      0.1354
    110  N        -12.5380  -12.3410    6.3170 N.3   168  SER168     -0.1202
    111  CA       -12.8320  -12.8660    4.9860 C.3   168  SER168      0.2020
    112  C        -11.9030  -14.0140    4.5620 C.2   168  SER168      0.2619
    113  O        -10.7450  -14.0280    4.9010 O.2   168  SER168     -0.2717
    114  CB       -12.6540  -11.7850    3.9090 C.3   168  SER168      0.2103
    115  OG       -13.3330  -12.2480    2.6930 O.3   168  SER168     -0.2182
    116  N        -12.4220  -14.8970    3.7380 N.am  169  ALA169     -0.1965
    117  CA       -11.5840  -15.7540    2.9070 C.3   169  ALA169      0.1728
    118  C        -10.9890  -14.8910    1.7950 C.2   169  ALA169      0.2616
    119  O        -11.4570  -13.7820    1.4970 O.2   169  ALA169     -0.2715
    120  CB       -12.4010  -16.8950    2.4320 C.3   169  ALA169      0.0334
    121  N         -9.8600  -15.3380    1.2730 N.am  170  PHE170     -0.1960
    122  CA        -9.2100  -14.6920    0.1740 C.3   170  PHE170      0.1771
    123  C         -8.5570  -15.6810   -0.7800 C.2   170  PHE170      0.2619
    124  O         -8.8510  -16.8800   -0.7430 O.2   170  PHE170     -0.2715
    125  CB        -8.2790  -13.6350    0.7070 C.3   170  PHE170      0.0574
    126  CG        -8.0670  -12.4950   -0.2370 C.ar  170  PHE170     -0.0200
    127  CD1       -9.1470  -11.8140   -0.8470 C.ar  170  PHE170     -0.0042
    128  CD2       -6.7910  -12.1420   -0.6150 C.ar  170  PHE170     -0.0042
    129  CE1       -8.9230  -10.7680   -1.7620 C.ar  170  PHE170     -0.0003
    130  CE2       -6.5570  -11.0760   -1.5210 C.ar  170  PHE170     -0.0003
    131  CZ        -7.6060  -10.4560   -2.1390 C.ar  170  PHE170     -0.0000
    132  N         -7.7270  -15.1850   -1.6860 N.am  171  LYS171     -0.1963
    133  CA        -6.9810  -16.0390   -2.6000 C.3   171  LYS171      0.1728
    134  C         -6.2510  -17.1370   -1.9100 C.2   171  LYS171      0.2616
    135  O         -5.4600  -16.8460   -1.0330 O.2   171  LYS171     -0.2715
    136  CB        -5.8910  -15.2480   -3.3650 C.3   171  LYS171      0.0311
    137  CG        -6.5040  -14.2660   -4.3320 C.3   171  LYS171      0.0038
    138  CD        -5.4810  -13.6400   -5.2540 C.3   171  LYS171      0.0206
    139  CE        -6.1200  -12.4180   -5.9130 C.3   171  LYS171      0.1093
    140  NZ        -5.0200  -11.4750   -6.2050 N.3   171  LYS171     -0.1314
    141  N         -6.3450  -18.3280   -2.4650 N.am  172  GLY172     -0.1955
    142  CA        -5.8040  -19.5690   -1.9270 C.3   172  GLY172      0.1869
    143  C         -6.7250  -20.2520   -1.0060 C.2   172  GLY172      0.2309
    144  O         -6.5110  -21.4240   -0.7340 O.2   172  GLY172     -0.2863
    145  N        -10.1060  -20.6030   -1.8080 N.3   174  SER174     -0.1217
    146  CA       -11.0320  -21.2620   -2.7140 C.3   174  SER174      0.1889
    147  C        -11.2520  -22.6790   -2.3860 C.2   174  SER174      0.2288
    148  O        -10.2910  -23.4190   -2.2420 O.2   174  SER174     -0.2866
    149  CB       -10.5090  -21.2360   -4.1060 C.3   174  SER174      0.2089
    150  OG       -10.2920  -19.9420   -4.5950 O.3   174  SER174     -0.2183
    151  N        -16.0880  -21.8820   -0.4260 N.3   188  VAL188     -0.1231
    152  CA       -15.6420  -20.6150   -0.7750 C.3   188  VAL188      0.1692
    153  C        -15.6700  -20.4890   -2.3210 C.2   188  VAL188      0.2593
    154  O        -15.0730  -21.3060   -3.0290 O.2   188  VAL188     -0.2718
    155  CB       -14.1810  -20.3980   -0.3610 C.3   188  VAL188      0.0266
    156  CG1      -13.7740  -19.0220   -0.7870 C.3   188  VAL188      0.0020
    157  CG2      -13.9720  -20.4350    1.1470 C.3   188  VAL188      0.0020
    158  N        -16.3260  -19.4720   -2.8270 N.am  189  SER189     -0.1938
    159  CA       -16.3630  -19.2840   -4.2550 C.3   189  SER189      0.2055
    160  C        -15.7380  -18.0180   -4.7370 C.2   189  SER189      0.2643
    161  O        -14.7620  -18.1070   -5.4620 O.2   189  SER189     -0.2714
    162  CB       -17.7580  -19.4260   -4.8100 C.3   189  SER189      0.2130
    163  OG       -17.7850  -19.3720   -6.2660 O.3   189  SER189     -0.2179
    164  N        -16.3170  -16.8300   -4.4480 N.am  190  TYR190     -0.1959
    165  CA       -15.7380  -15.5640   -4.9310 C.3   190  TYR190      0.1771
    166  C        -16.1440  -14.3850   -4.1000 C.2   190  TYR190      0.2620
    167  O        -17.0470  -14.4590   -3.2310 O.2   190  TYR190     -0.2715
    168  CB       -16.1170  -15.2840   -6.3470 C.3   190  TYR190      0.0574
    169  CG       -17.5720  -14.9530   -6.6670 C.ar  190  TYR190     -0.0198
    170  CD1      -18.4900  -15.9550   -6.8870 C.ar  190  TYR190     -0.0009
    171  CD2      -18.0270  -13.6520   -6.6500 C.ar  190  TYR190     -0.0009
    172  CE1      -19.7820  -15.7100   -7.3070 C.ar  190  TYR190      0.0417
    173  CE2      -19.3640  -13.3550   -7.0000 C.ar  190  TYR190      0.0417
    174  CZ       -20.2160  -14.3680   -7.3220 C.ar  190  TYR190      0.1957
    175  OH       -21.5520  -14.0960   -7.6780 O.3   190  TYR190     -0.2866
    176  N        -15.4030  -13.3170   -4.2820 N.am  191  GLY191     -0.1940
    177  CA       -15.8290  -12.0690   -3.6930 C.3   191  GLY191      0.2014
    178  C        -15.1580  -10.9160   -4.3520 C.2   191  GLY191      0.2639
    179  O        -14.6370  -11.0410   -5.4910 O.2   191  GLY191     -0.2714
    180  N        -15.1720   -9.7770   -3.6700 N.am  192  ARG192     -0.1963
    181  CA       -14.4990   -8.5690   -4.1950 C.3   192  ARG192      0.1729
    182  C        -13.0020   -8.6590   -4.1900 C.2   192  ARG192      0.2616
    183  O        -12.3940   -9.1790   -3.2470 O.2   192  ARG192     -0.2715
    184  CB       -14.8850   -7.3460   -3.3780 C.3   192  ARG192      0.0348
    185  CG       -16.3240   -6.9800   -3.6190 C.3   192  ARG192      0.0492
    186  CD       -16.6060   -5.7860   -2.6800 C.3   192  ARG192      0.2205
    187  NE       -15.7800   -4.5840   -2.8360 N.pl3 192  ARG192     -0.0865
    188  CZ       -16.1150   -3.5170   -3.5730 C.cat 192  ARG192      0.5346
    189  NH1      -17.1930   -3.4820   -4.3240 N.pl3 192  ARG192      0.1354
    190  NH2      -15.3190   -2.4950   -3.5520 N.pl3 192  ARG192      0.1354
    191  N        -12.3890   -8.0120   -5.1920 N.am  193  SER193     -0.1950
    192  CA       -10.9510   -8.0440   -5.2460 C.3   193  SER193      0.1924
    193  C        -10.3240   -7.2620   -4.0920 C.2   193  SER193      0.2314
    194  O         -9.2750   -7.5850   -3.6390 O.2   193  SER193     -0.2863
    195  CB       -10.5570   -7.5230   -6.6420 C.3   193  SER193      0.2116
    196  OG       -10.6880   -6.1950   -6.4620 O.3   193  SER193     -0.2180
    197  N        -11.4730   -7.6050   -0.9190 N.3   195  ALA195     -0.1245
    198  CA       -11.8820   -8.3540    0.2540 C.3   195  ALA195      0.1562
    199  C        -12.9470   -7.8110    1.1460 C.2   195  ALA195      0.2260
    200  O        -13.0370   -8.2460    2.2710 O.2   195  ALA195     -0.2867
    201  CB       -10.6840   -8.7250    1.1580 C.3   195  ALA195      0.0290
    202  N        -18.9040  -12.1620    0.9180 N.3   199  ALA199     -0.1245
    203  CA       -18.3950  -13.0110   -0.1400 C.3   199  ALA199      0.1562
    204  C        -19.4760  -14.0530   -0.4710 C.2   199  ALA199      0.2260
    205  O        -20.4430  -14.2380    0.2630 O.2   199  ALA199     -0.2867
    206  CB       -17.0700  -13.6510    0.2470 C.3   199  ALA199      0.0290
    207  N        -20.5410  -17.8840   -1.3940 N.3   201  PHE201     -0.1241
    208  CA       -20.1150  -19.3040   -1.1520 C.3   201  PHE201      0.1605
    209  C        -21.1120  -20.1660   -1.9290 C.2   201  PHE201      0.2264
    210  O        -22.2850  -19.8710   -1.9610 O.2   201  PHE201     -0.2867
    211  CB       -20.1790  -19.6820    0.3120 C.3   201  PHE201      0.0534
    212  CG       -19.0040  -19.2540    1.1040 C.ar  201  PHE201     -0.0203
    213  CD1      -18.6050  -17.9250    1.0970 C.ar  201  PHE201     -0.0042
    214  CD2      -18.2670  -20.1760    1.8230 C.ar  201  PHE201     -0.0042
    215  CE1      -17.5370  -17.4780    1.8520 C.ar  201  PHE201     -0.0003
    216  CE2      -17.2100  -19.7020    2.6140 C.ar  201  PHE201     -0.0003
    217  CZ       -16.8200  -18.4010    2.5890 C.ar  201  PHE201     -0.0000
@<TRIPOS>BOND
     1    81    80    1
     2    75    73   am
     3    74    73    2
     4    73    72    1
     5    80    82    1
     6    80    77    1
     7    59    58    2
     8    76    77    1
     9    76    70   am
    10    78    77    1
    11    78    79    2
    12    69    72    1
    13    69    70    1
    14    69    68    1
    15    70    71    2
    16    58    68   am
    17    58    57    1
    18    56    57    1
    19    63    65   ar
    20    63    61   ar
    21    65    66   ar
    22    57    60    1
    23    60    61    1
    24    61    62   ar
    25    66    67    1
    26    66    64   ar
    27    55    52    1
    28    83    84    1
    29    62    64   ar
    30    54    53    2
    31    17    16    1
    32    53    52    1
    33    90    88    1
    34    52    51    1
    35    84    85    1
    36    84    87    1
    37    88    87    1
    38    88    89    1
    39    16    15    1
    40    51    47   am
    41    85    86    2
    42    15    14    2
    43    38    37    2
    44    36    39    1
    45    36    37    1
    46    36    35    1
    47     7     5    1
    48    39    40    1
    49     3     4    2
    50     3     2    1
    51    37    45   am
    52    47    48    2
    53    47    46    1
    54    14    13    1
    55    45    46    1
    56     5     2    1
    57     5     6    1
    58    91    92    1
    59    46    49    1
    60     2     1    1
    61    92    95    1
    62    92    93    1
    63    97    96   ar
    64    40    42   ar
    65    40    41   ar
    66     9    10    1
    67    13    10    1
    68    95    96    1
    69    96    98   ar
    70     6     8    1
    71    42    44   ar
    72    93    94    2
    73    41    43   ar
    74    10    11    1
    75   175   174    1
    76    49    50    1
    77   174   172   ar
    78   174   173   ar
    79   172   170   ar
    80   173   171   ar
    81   170   169   ar
    82    44    43   ar
    83    11    12    2
    84    11    18   am
    85   169   171   ar
    86   169   168    1
    87   195   196    1
    88   195   192    1
    89    50    34    1
    90   168   165    1
    91   163   162    1
    92   140   139    1
    93   139   138    1
    94    18    19    1
    95    34    33    1
    96   179   178    2
    97   161   160    2
    98   138   137    1
    99   192   191    1
   100   192   193    1
   101   191   182   am
   102   165   164    1
   103   165   166    1
   104   162   159    1
   105    19    20    1
   106    19    22    1
   107   160   164   am
   108   160   159    1
   109   150   149    1
   110    21    20    2
   111    33    30    1
   112    20    29   am
   113   178   177    1
   114   178   180   am
   115   137   136    1
   116   189   188    1
   117   176   166   am
   118   176   177    1
   119   109   107    1
   120   159   158    1
   121   181   182    1
   122   181   180    1
   123   181   184    1
   124   182   183    2
   125   149   146    1
   126   166   167    2
   127   193   194    2
   128    29    30    1
   129   185   184    1
   130   185   186    1
   131    22    23    1
   132   188   190    1
   133   188   187    2
   134   136   133    1
   135    30    31    1
   136   107   106    2
   137   107   108    1
   138    24    23   ar
   139    24    26   ar
   140   154   153    2
   141   187   186    1
   142   158   153   am
   143   106   105    1
   144    23    25   ar
   145   146   147    1
   146   146   145    1
   147   133   134    1
   148   133   132    1
   149   141   142    1
   150   141   134   am
   151   147   148    2
   152   153   152    1
   153    26    28   ar
   154    31    32    2
   155   131   129   ar
   156   131   130   ar
   157   210   209    2
   158   209   208    1
   159   142   143    1
   160   134   135    2
   161   129   127   ar
   162   132   123   am
   163   105   104    1
   164   130   128   ar
   165    25    27   ar
   166   207   208    1
   167   208   211    1
   168    28    27   ar
   169   143   144    2
   170   197   198    1
   171   127   126   ar
   172   156   155    1
   173   123   124    2
   174   123   122    1
   175   152   151    1
   176   152   155    1
   177   104   103    1
   178   128   126   ar
   179   204   203    1
   180   204   205    2
   181   155   157    1
   182   126   125    1
   183   203   206    1
   184   203   202    1
   185   122   125    1
   186   122   121    1
   187   198   199    1
   188   198   201    1
   189   211   212    1
   190   103   100    1
   191   213   212   ar
   192   213   215   ar
   193   212   214   ar
   194   199   200    2
   195   121   118   am
   196    99   100    1
   197   119   118    2
   198   100   101    1
   199   118   117    1
   200   214   216   ar
   201   215   217   ar
   202   120   117    1
   203   217   216   ar
   204   115   114    1
   205   117   116    1
   206   101   102    2
   207   116   112   am
   208   114   111    1
   209   112   113    2
   210   112   111    1
   211   111   110    1
