@<TRIPOS>MOLECULE
tmp/5yjoA00.pdb
 233 226 0 0 0
SMALL
GASTEIGER

@<TRIPOS>ATOM
      1  N         18.0380   14.0540  122.0320 N.3   178  CYS178     -0.1221
      2  CA        17.6240   13.4430  123.2880 C.3   178  CYS178      0.1808
      3  C         16.2830   12.7230  123.1830 C.2   178  CYS178      0.2601
      4  O         15.6770   12.4000  124.2100 O.2   178  CYS178     -0.2717
      5  CB        17.5700   14.4980  124.3930 C.3   178  CYS178      0.0970
      6  SG        16.3740   15.8180  124.1060 S.3   178  CYS178     -0.0800
      7  N         15.8040   12.4580  121.9630 N.am  179  ASN179     -0.1960
      8  CA        14.5590   11.7170  121.8070 C.3   179  ASN179      0.1819
      9  C         14.6370   10.6440  120.7260 C.2   179  ASN179      0.2622
     10  O         13.6000   10.0660  120.3780 O.2   179  ASN179     -0.2715
     11  CB        13.3950   12.6680  121.5080 C.3   179  ASN179      0.1195
     12  CG        13.0250   13.5260  122.7020 C.2   179  ASN179      0.2630
     13  OD1       12.4090   13.0500  123.6550 O.2   179  ASN179     -0.2716
     14  ND2       13.4110   14.7970  122.6610 N.am  179  ASN179     -0.0877
     15  N         15.8190   10.3540  120.1920 N.am  180  SER180     -0.1936
     16  CA        15.9600    9.3090  119.1880 C.3   180  SER180      0.2055
     17  C         15.9900    7.9350  119.8440 C.2   180  SER180      0.2643
     18  O         16.6010    7.7480  120.9000 O.2   180  SER180     -0.2714
     19  CB        17.2320    9.5190  118.3670 C.3   180  SER180      0.2130
     20  OG        17.0500   10.5350  117.3980 O.3   180  SER180     -0.2179
     21  N         15.3260    6.9740  119.2100 N.am  181  PHE181     -0.1959
     22  CA        15.2900    5.5930  119.6730 C.3   181  PHE181      0.1771
     23  C         16.1270    4.7350  118.7350 C.2   181  PHE181      0.2620
     24  O         15.8200    4.6360  117.5420 O.2   181  PHE181     -0.2715
     25  CB        13.8580    5.0600  119.7270 C.3   181  PHE181      0.0574
     26  CG        13.0720    5.5330  120.9160 C.ar  181  PHE181     -0.0200
     27  CD1       12.8280    4.6840  121.9820 C.ar  181  PHE181     -0.0042
     28  CD2       12.5600    6.8180  120.9580 C.ar  181  PHE181     -0.0042
     29  CE1       12.0970    5.1120  123.0750 C.ar  181  PHE181     -0.0003
     30  CE2       11.8270    7.2520  122.0470 C.ar  181  PHE181     -0.0003
     31  CZ        11.5970    6.3980  123.1070 C.ar  181  PHE181     -0.0000
     32  N         17.1770    4.1190  119.2700 N.am  182  THR182     -0.1951
     33  CA        17.9030    3.1060  118.5170 C.3   182  THR182      0.1897
     34  C         17.0320    1.8640  118.3730 C.2   182  THR182      0.2313
     35  O         16.5210    1.3340  119.3640 O.2   182  THR182     -0.2863
     36  CB        19.2170    2.7540  119.2140 C.3   182  THR182      0.1794
     37  OG1       20.0640    3.9090  119.2550 O.3   182  THR182     -0.2208
     38  CG2       19.9300    1.6330  118.4720 C.3   182  THR182      0.0378
     39  N         16.6730   -2.0260  117.4170 N.3   184  CYS184     -0.1235
     40  CA        17.4050   -3.2760  117.3000 C.3   184  CYS184      0.1677
     41  C         16.4650   -4.3710  116.8180 C.2   184  CYS184      0.2270
     42  O         15.2730   -4.3730  117.1380 O.2   184  CYS184     -0.2867
     43  CB        18.0360   -3.6870  118.6370 C.3   184  CYS184      0.0956
     44  SG        19.3910   -2.6220  119.1930 S.3   184  CYS184     -0.0801
     45  N         18.9680   -8.5330  118.7020 N.3   188  MET188     -0.1245
     46  CA        19.6410   -7.4560  119.4320 C.3   188  MET188      0.1570
     47  C         20.8280   -6.9000  118.6470 C.2   188  MET188      0.2261
     48  O         21.9010   -6.6480  119.1970 O.2   188  MET188     -0.2867
     49  CB        20.0730   -7.9120  120.8280 C.3   188  MET188      0.0387
     50  CG        18.9400   -7.9240  121.8400 C.3   188  MET188      0.0595
     51  SD        18.1310   -6.3190  121.9940 S.3   188  MET188     -0.1393
     52  CE        16.7250   -6.7520  123.0160 C.3   188  MET188      0.0692
     53  N         21.6610   -3.5830  116.2250 N.3   190  GLU190     -0.1245
     54  CA        21.1210   -2.2700  115.8970 C.3   190  GLU190      0.1567
     55  C         20.9280   -2.1480  114.3900 C.2   190  GLU190      0.2260
     56  O         21.8480   -2.4140  113.6120 O.2   190  GLU190     -0.2867
     57  CB        22.0450   -1.1680  116.4160 C.3   190  GLU190      0.0388
     58  CG        21.9580    0.1300  115.6420 C.3   190  GLU190      0.1160
     59  CD        22.9320    1.1810  116.1380 C.2   190  GLU190      0.3649
     60  OE1       23.7960    0.8490  116.9750 O.co2 190  GLU190     -0.2457
     61  OE2       22.8310    2.3420  115.6890 O.co2 190  GLU190     -0.2457
     62  N          8.4930    8.9990  124.1760 N.3   200  SER200     -0.1217
     63  CA         9.5310    9.9220  124.6210 C.3   200  SER200      0.1889
     64  C          9.1780   10.5690  125.9530 C.2   200  SER200      0.2288
     65  O          9.9690   11.3450  126.4930 O.2   200  SER200     -0.2866
     66  CB         9.7770   11.0060  123.5680 C.3   200  SER200      0.2089
     67  OG        10.4930   10.4970  122.4560 O.3   200  SER200     -0.2183
     68  N          8.8590    8.8310  128.6490 N.3   202  LEU202     -0.1245
     69  CA         9.4890    8.0190  129.6830 C.3   202  LEU202      0.1561
     70  C         10.8240    8.6280  130.0970 C.2   202  LEU202      0.2260
     71  O         11.7040    8.8460  129.2570 O.2   202  LEU202     -0.2867
     72  CB         9.6890    6.5910  129.1820 C.3   202  LEU202      0.0270
     73  CG         8.4280    5.7540  128.9610 C.3   202  LEU202      0.0019
     74  CD1        8.6770    4.6820  127.9150 C.3   202  LEU202      0.0001
     75  CD2        7.9600    5.1290  130.2660 C.3   202  LEU202      0.0001
     76  N         10.3650   -1.4770  130.3170 N.3   211  SER211     -0.1202
     77  CA        11.3270   -1.8080  129.2770 C.3   211  SER211      0.2020
     78  C         10.5960   -1.8570  127.9460 C.2   211  SER211      0.2619
     79  O          9.4150   -2.2060  127.8850 O.2   211  SER211     -0.2717
     80  CB        12.0230   -3.1450  129.5590 C.3   211  SER211      0.2103
     81  OG        12.8670   -3.5180  128.4830 O.3   211  SER211     -0.2182
     82  N         11.3070   -1.4980  126.8820 N.am  212  ILE212     -0.1965
     83  CA        10.7480   -1.5530  125.5390 C.3   212  ILE212      0.1727
     84  C         11.5140   -2.5830  124.7220 C.2   212  ILE212      0.2616
     85  O         12.6960   -2.8570  124.9640 O.2   212  ILE212     -0.2715
     86  CB        10.7560   -0.1800  124.8320 C.3   212  ILE212      0.0290
     87  CG1       12.1480    0.1460  124.2940 C.3   212  ILE212      0.0022
     88  CG2       10.2710    0.9120  125.7720 C.3   212  ILE212      0.0023
     89  CD1       12.1720    1.3190  123.3460 C.3   212  ILE212      0.0001
     90  N         10.8130   -3.1740  123.7590 N.am  213  VAL213     -0.1963
     91  CA        11.4000   -4.0740  122.7790 C.3   213  VAL213      0.1727
     92  C         10.8860   -3.6670  121.4090 C.2   213  VAL213      0.2616
     93  O          9.7830   -3.1280  121.2740 O.2   213  VAL213     -0.2715
     94  CB        11.0700   -5.5570  123.0580 C.3   213  VAL213      0.0290
     95  CG1       11.8070   -6.0430  124.2850 C.3   213  VAL213      0.0023
     96  CG2        9.5700   -5.7480  123.2200 C.3   213  VAL213      0.0023
     97  N         11.6940   -3.9250  120.3890 N.am  214  PHE214     -0.1974
     98  CA        11.3330   -3.6160  119.0160 C.3   214  PHE214      0.1639
     99  C         11.0460   -4.9020  118.2560 C.2   214  PHE214      0.2290
    100  O         11.7990   -5.8770  118.3530 O.2   214  PHE214     -0.2864
    101  CB        12.4410   -2.8240  118.3170 C.3   214  PHE214      0.0560
    102  CG        12.5870   -1.4160  118.8220 C.ar  214  PHE214     -0.0200
    103  CD1       11.7750   -0.4040  118.3360 C.ar  214  PHE214     -0.0042
    104  CD2       13.5360   -1.1060  119.7830 C.ar  214  PHE214     -0.0042
    105  CE1       11.9060    0.8930  118.8000 C.ar  214  PHE214     -0.0003
    106  CE2       13.6720    0.1880  120.2500 C.ar  214  PHE214     -0.0003
    107  CZ        12.8560    1.1880  119.7580 C.ar  214  PHE214     -0.0000
    108  N         12.3540    3.8450  132.0480 N.3   235  ILE235     -0.1231
    109  CA        13.1420    2.9070  131.2640 C.3   235  ILE235      0.1692
    110  C         14.6010    3.3200  131.3940 C.2   235  ILE235      0.2592
    111  O         14.9170    4.4470  131.7810 O.2   235  ILE235     -0.2718
    112  CB        12.7220    2.8710  129.7790 C.3   235  ILE235      0.0266
    113  CG1       12.9050    4.2520  129.1440 C.3   235  ILE235      0.0019
    114  CG2       11.2850    2.3960  129.6400 C.3   235  ILE235      0.0020
    115  CD1       12.6030    4.2900  127.6630 C.3   235  ILE235      0.0001
    116  N         15.4960    2.3920  131.0730 N.am  236  CYS236     -0.1956
    117  CA        16.9240    2.6790  131.0930 C.3   236  CYS236      0.1843
    118  C         17.3620    3.1210  129.7020 C.2   236  CYS236      0.2625
    119  O         17.2370    2.3620  128.7350 O.2   236  CYS236     -0.2714
    120  CB        17.7310    1.4660  131.5520 C.3   236  CYS236      0.0997
    121  SG        19.4920    1.8270  131.7740 S.3   236  CYS236     -0.0797
    122  N         17.8720    4.3500  129.6070 N.am  237  TYR237     -0.1960
    123  CA        18.3160    4.8870  128.3270 C.3   237  TYR237      0.1771
    124  C         19.5940    4.2280  127.8290 C.2   237  TYR237      0.2619
    125  O         19.9000    4.3230  126.6360 O.2   237  TYR237     -0.2715
    126  CB        18.5620    6.3960  128.4320 C.3   237  TYR237      0.0574
    127  CG        17.3390    7.2690  128.6360 C.ar  237  TYR237     -0.0198
    128  CD1       16.0750    6.7210  128.8130 C.ar  237  TYR237     -0.0009
    129  CD2       17.4590    8.6540  128.6470 C.ar  237  TYR237     -0.0009
    130  CE1       14.9650    7.5300  128.9990 C.ar  237  TYR237      0.0417
    131  CE2       16.3590    9.4670  128.8310 C.ar  237  TYR237      0.0417
    132  CZ        15.1150    8.9020  129.0060 C.ar  237  TYR237      0.1957
    133  OH        14.0210    9.7150  129.1890 O.3   237  TYR237     -0.2866
    134  N         20.3460    3.5710  128.7080 N.am  238  LEU238     -0.1963
    135  CA        21.7320    3.2280  128.4370 C.3   238  LEU238      0.1728
    136  C         21.9490    1.7210  128.4220 C.2   238  LEU238      0.2616
    137  O         21.1620    0.9440  128.9700 O.2   238  LEU238     -0.2715
    138  CB        22.6610    3.8620  129.4800 C.3   238  LEU238      0.0311
    139  CG        22.4000    5.3350  129.7880 C.3   238  LEU238      0.0022
    140  CD1       23.3200    5.8190  130.8930 C.3   238  LEU238      0.0001
    141  CD2       22.5740    6.1760  128.5370 C.3   238  LEU238      0.0001
    142  N         23.0440    1.3260  127.7760 N.am  239  ASP239     -0.1971
    143  CA        23.5190   -0.0470  127.8480 C.3   239  ASP239      0.1709
    144  C         23.8460   -0.4060  129.2930 C.2   239  ASP239      0.2293
    145  O         24.4160    0.3980  130.0350 O.2   239  ASP239     -0.2864
    146  CB        24.7540   -0.2160  126.9610 C.3   239  ASP239      0.1436
    147  CG        25.1620   -1.6660  126.7870 C.2   239  ASP239      0.3671
    148  OD1       25.8160   -2.2150  127.6970 O.co2 239  ASP239     -0.2456
    149  OD2       24.8370   -2.2550  125.7350 O.co2 239  ASP239     -0.2456
    150  N         26.0000   -2.4780  130.4060 N.3   241  LEU241     -0.1245
    151  CA        27.4250   -2.7210  130.6340 C.3   241  LEU241      0.1561
    152  C         28.1860   -1.3960  130.5570 C.2   241  LEU241      0.2260
    153  O         29.0090   -1.1520  129.6720 O.2   241  LEU241     -0.2867
    154  CB        27.9560   -3.7440  129.6380 C.3   241  LEU241      0.0270
    155  CG        27.1350   -5.0330  129.5160 C.3   241  LEU241      0.0019
    156  CD1       27.7860   -6.0110  128.5460 C.3   241  LEU241      0.0001
    157  CD2       26.9350   -5.6810  130.8780 C.3   241  LEU241      0.0001
    158  N         21.7000   13.8460  127.1090 N.3   255  TYR255     -0.1241
    159  CA        20.3980   14.1310  127.6960 C.3   255  TYR255      0.1605
    160  C         20.3880   15.2980  128.6770 C.2   255  TYR255      0.2264
    161  O         19.3050   15.6740  129.1400 O.2   255  TYR255     -0.2867
    162  CB        19.8480   12.8770  128.3930 C.3   255  TYR255      0.0534
    163  CG        19.6100   11.7230  127.4420 C.ar  255  TYR255     -0.0201
    164  CD1       18.4860   11.6910  126.6280 C.ar  255  TYR255     -0.0009
    165  CD2       20.5170   10.6740  127.3490 C.ar  255  TYR255     -0.0009
    166  CE1       18.2660   10.6430  125.7520 C.ar  255  TYR255      0.0417
    167  CE2       20.3060    9.6200  126.4760 C.ar  255  TYR255      0.0417
    168  CZ        19.1790    9.6110  125.6800 C.ar  255  TYR255      0.1957
    169  OH        18.9620    8.5680  124.8100 O.3   255  TYR255     -0.2866
    170  N         31.1790   -4.6190  113.6170 N.3   295  LYS295     -0.1245
    171  CA        29.9400   -5.3590  113.8240 C.3   295  LYS295      0.1561
    172  C         28.7330   -4.5460  113.3710 C.2   295  LYS295      0.2260
    173  O         27.7700   -5.1040  112.8310 O.2   295  LYS295     -0.2867
    174  CB        29.8070   -5.7600  115.2940 C.3   295  LYS295      0.0271
    175  CG        28.3830   -6.0520  115.7450 C.3   295  LYS295      0.0035
    176  CD        28.3660   -6.7430  117.0980 C.3   295  LYS295      0.0206
    177  CE        28.0550   -5.7610  118.2150 C.3   295  LYS295      0.1093
    178  NZ        26.6030   -5.7340  118.5430 N.3   295  LYS295     -0.1314
    179  N         30.6230  -11.2570  123.7420 N.3   330  ASP330     -0.1239
    180  CA        29.3310  -11.1490  123.0740 C.3   330  ASP330      0.1674
    181  C         29.5060  -10.9390  121.5750 C.2   330  ASP330      0.2266
    182  O         28.8160  -11.5660  120.7630 O.2   330  ASP330     -0.2867
    183  CB        28.5200  -10.0100  123.6910 C.3   330  ASP330      0.1410
    184  CG        27.1520   -9.8580  123.0590 C.2   330  ASP330      0.3668
    185  OD1       26.3680  -10.8300  123.0920 O.co2 330  ASP330     -0.2456
    186  OD2       26.8610   -8.7660  122.5280 O.co2 330  ASP330     -0.2456
    187  N         26.0380  -12.0310  132.6100 N.3   356  TYR356     -0.1241
    188  CA        24.7820  -11.4320  132.1680 C.3   356  TYR356      0.1605
    189  C         23.7190  -11.5090  133.2560 C.2   356  TYR356      0.2264
    190  O         22.9080  -10.5880  133.4040 O.2   356  TYR356     -0.2867
    191  CB        24.2910  -12.1130  130.8910 C.3   356  TYR356      0.0534
    192  CG        24.5980  -11.3360  129.6310 C.ar  356  TYR356     -0.0201
    193  CD1       23.5890  -10.9930  128.7400 C.ar  356  TYR356     -0.0009
    194  CD2       25.8960  -10.9440  129.3340 C.ar  356  TYR356     -0.0009
    195  CE1       23.8640  -10.2840  127.5870 C.ar  356  TYR356      0.0417
    196  CE2       26.1830  -10.2340  128.1840 C.ar  356  TYR356      0.0417
    197  CZ        25.1630   -9.9060  127.3140 C.ar  356  TYR356      0.1957
    198  OH        25.4450   -9.1990  126.1680 O.3   356  TYR356     -0.2866
    199  N         22.3550   -7.8270  134.2570 N.3   360  PHE360     -0.1241
    200  CA        21.0050   -7.6010  133.7470 C.3   360  PHE360      0.1605
    201  C         20.0040   -8.1460  134.7620 C.2   360  PHE360      0.2264
    202  O         19.3250   -9.1490  134.5060 O.2   360  PHE360     -0.2867
    203  CB        20.8040   -8.2540  132.3800 C.3   360  PHE360      0.0534
    204  CG        21.7360   -7.7410  131.3150 C.ar  360  PHE360     -0.0203
    205  CD1       21.3350   -6.7330  130.4510 C.ar  360  PHE360     -0.0042
    206  CD2       23.0060   -8.2750  131.1690 C.ar  360  PHE360     -0.0042
    207  CE1       22.1880   -6.2620  129.4670 C.ar  360  PHE360     -0.0003
    208  CE2       23.8630   -7.8080  130.1880 C.ar  360  PHE360     -0.0003
    209  CZ        23.4530   -6.8010  129.3360 C.ar  360  PHE360     -0.0000
    210  N         15.2300   -8.3960  131.7330 N.3   364  HIS364     -0.1227
    211  CA        15.8070   -7.5020  130.7420 C.3   364  HIS364      0.1737
    212  C         15.7990   -8.2030  129.3920 C.2   364  HIS364      0.2438
    213  O         16.2330   -9.3650  129.2930 O.2   364  HIS364     -0.2733
    214  CB        17.2340   -7.0930  131.1310 C.3   364  HIS364      0.0758
    215  CG        17.7220   -5.8600  130.4360 C.ar  364  HIS364      0.0818
    216  ND1       17.9250   -5.8020  129.0740 N.ar  364  HIS364     -0.2268
    217  CD2       18.0490   -4.6370  130.9170 C.ar  364  HIS364      0.1154
    218  CE1       18.3540   -4.5970  128.7450 C.ar  364  HIS364      0.1986
    219  NE2       18.4380   -3.8700  129.8450 N.ar  364  HIS364     -0.2212
    220  N         15.3200   -7.5480  128.3300 N.am  365  PRO365     -0.2718
    221  CA        15.2320   -8.2300  127.0290 C.3   365  PRO365      0.1535
    222  C         16.5760   -8.6420  126.4580 C.2   365  PRO365      0.2598
    223  O         16.6430   -9.6290  125.7150 O.2   365  PRO365     -0.2715
    224  CB        14.5400   -7.1910  126.1370 C.3   365  PRO365      0.0310
    225  CG        14.7890   -5.8790  126.8070 C.3   365  PRO365      0.0237
    226  CD        14.7940   -6.1740  128.2740 C.3   365  PRO365      0.0939
    227  N         17.6490   -7.9150  126.7750 N.am  366  VAL366     -0.1978
    228  CA        18.9580   -8.2570  126.2280 C.3   366  VAL366      0.1596
    229  C         19.4390   -9.5930  126.7820 C.2   366  VAL366      0.2287
    230  O         19.9900  -10.4220  126.0470 O.2   366  VAL366     -0.2864
    231  CB        19.9640   -7.1250  126.5040 C.3   366  VAL366      0.0276
    232  CG1       21.3700   -7.5490  126.1070 C.3   366  VAL366      0.0022
    233  CG2       19.5550   -5.8650  125.7560 C.3   366  VAL366      0.0022
@<TRIPOS>BOND
     1   173   172    2
     2   172   171    1
     3    56    55    2
     4   170   171    1
     5   171   174    1
     6    55    54    1
     7   174   175    1
     8    58    59    1
     9    58    57    1
    10    61    59   ar
    11   175   176    1
    12    54    53    1
    13    54    57    1
    14    59    60   ar
    15    41    42    2
    16    41    40    1
    17   176   177    1
    18    40    39    1
    19    40    43    1
    20    20    19    1
    21    24    23    2
    22   177   178    1
    23    99   100    2
    24    99    98    1
    25   101   102    1
    26   101    98    1
    27   103   105   ar
    28   103   102   ar
    29    19    16    1
    30    34    33    1
    31    34    35    2
    32    38    36    1
    33    33    36    1
    34    33    32    1
    35    43    44    1
    36    47    48    2
    37    47    46    1
    38    45    46    1
    39    23    32   am
    40    23    22    1
    41   105   107   ar
    42   102   104   ar
    43    98    97    1
    44    16    17    1
    45    16    15    1
    46    21    22    1
    47    21    17   am
    48    36    37    1
    49    46    49    1
    50    22    25    1
    51    25    26    1
    52   107   106   ar
    53   104   106   ar
    54    17    18    2
    55    15     9   am
    56    10     9    2
    57    97    92   am
    58     9     8    1
    59   182   181    2
    60    49    50    1
    61    26    28   ar
    62    26    27   ar
    63    28    30   ar
    64    93    92    2
    65    92    91    1
    66    11     8    1
    67    11    12    1
    68   181   180    1
    69     8     7    1
    70    50    51    1
    71     7     3   am
    72    27    29   ar
    73    51    52    1
    74     1     2    1
    75    30    31   ar
    76    67    66    1
    77   186   184   ar
    78    14    12   am
    79    12    13    2
    80    91    94    1
    81    91    90    1
    82    94    96    1
    83    94    95    1
    84   184   185   ar
    85   184   183    1
    86   180   183    1
    87   180   179    1
    88    29    31   ar
    89     3     2    1
    90     3     4    2
    91     2     5    1
    92    89    87    1
    93    66    63    1
    94    90    84   am
    95     6     5    1
    96    62    63    1
    97    87    86    1
    98    63    64    1
    99    84    85    2
   100    84    83    1
   101   169   168    1
   102    86    83    1
   103    86    88    1
   104    83    82    1
   105   168   166   ar
   106   168   167   ar
   107   223   222    2
   108   149   147   ar
   109   166   164   ar
   110   233   231    1
   111    64    65    2
   112   230   229    2
   113   232   231    1
   114   224   225    1
   115   224   221    1
   116   198   197    1
   117   228   231    1
   118   228   227    1
   119   228   229    1
   120   222   227   am
   121   222   221    1
   122   167   165   ar
   123   164   163   ar
   124   125   124    2
   125   147   146    1
   126   147   148   ar
   127   225   226    1
   128    82    78   am
   129   146   143    1
   130   221   220    1
   131   158   159    1
   132   197   195   ar
   133   197   196   ar
   134   165   163   ar
   135   163   162    1
   136   195   193   ar
   137   115   113    1
   138   159   162    1
   139   159   160    1
   140   142   143    1
   141   142   136   am
   142   124   123    1
   143   124   134   am
   144   143   144    1
   145    79    78    2
   146    74    73    1
   147    78    77    1
   148   196   194   ar
   149   226   220    1
   150   123   126    1
   151   123   122    1
   152   220   212   am
   153   136   135    1
   154   136   137    2
   155   126   127    1
   156   135   134    1
   157   135   138    1
   158    81    80    1
   159   141   139    1
   160   156   155    1
   161   127   129   ar
   162   127   128   ar
   163   129   131   ar
   164    68    69    1
   165   160   161    2
   166   119   118    2
   167   193   192   ar
   168   218   216   ar
   169   218   219   ar
   170   128   130   ar
   171   131   132   ar
   172    73    72    1
   173    73    75    1
   174   130   132   ar
   175   132   133    1
   176   216   215   ar
   177   113   112    1
   178    72    69    1
   179    71    70    2
   180    77    80    1
   181    77    76    1
   182   144   145    2
   183   213   212    2
   184   194   192   ar
   185   209   207   ar
   186   209   208   ar
   187   212   211    1
   188   207   205   ar
   189   138   139    1
   190   155   154    1
   191   155   157    1
   192   122   118   am
   193   192   191    1
   194   154   151    1
   195   114   112    1
   196   153   152    2
   197    69    70    1
   198   118   117    1
   199   112   109    1
   200   139   140    1
   201   219   217   ar
   202   208   206   ar
   203   150   151    1
   204   215   217   ar
   205   215   214    1
   206   205   204   ar
   207   152   151    1
   208   211   214    1
   209   211   210    1
   210   191   188    1
   211   116   117    1
   212   116   110   am
   213   117   120    1
   214   206   204   ar
   215   109   110    1
   216   109   108    1
   217   204   203    1
   218   110   111    2
   219   120   121    1
   220   188   187    1
   221   188   189    1
   222   203   200    1
   223   189   190    2
   224   200   199    1
   225   200   201    1
   226   202   201    2
