@<TRIPOS>MOLECULE
tmp/5yjpA02.pdb
 197 191 0 0 0
SMALL
GASTEIGER

@<TRIPOS>ATOM
      1  N         -2.2010  -26.9030   -7.9280 N.3    20  ILE20      -0.1245
      2  CA        -2.8740  -26.9430   -9.2520 C.3    20  ILE20       0.1561
      3  C         -1.8400  -26.6190  -10.3380 C.2    20  ILE20       0.2260
      4  O         -1.2410  -25.5080  -10.2900 O.2    20  ILE20      -0.2867
      5  CB        -4.0080  -26.0280   -9.2590 C.3    20  ILE20       0.0252
      6  CG1       -5.0770  -26.4670   -8.2150 C.3    20  ILE20       0.0019
      7  CG2       -4.7480  -26.0870  -10.6180 C.3    20  ILE20       0.0019
      8  CD1       -5.5550  -25.2810   -7.6930 C.3    20  ILE20       0.0001
      9  N         -0.6130  -22.8930   -8.8690 N.3    28  LYS28      -0.1231
     10  CA        -1.6120  -22.2110   -8.1020 C.3    28  LYS28       0.1693
     11  C         -2.0890  -23.0800   -6.9800 C.2    28  LYS28       0.2592
     12  O         -1.7190  -24.3040   -6.9550 O.2    28  LYS28      -0.2718
     13  CB        -2.7720  -21.8880   -9.0610 C.3    28  LYS28       0.0285
     14  CG        -2.3350  -20.7080   -9.9220 C.3    28  LYS28       0.0035
     15  CD        -3.3380  -20.1530  -10.8480 C.3    28  LYS28       0.0206
     16  CE        -3.7420  -21.3200  -11.7680 C.3    28  LYS28       0.1093
     17  NZ        -5.0650  -21.0960  -12.4510 N.3    28  LYS28      -0.1314
     18  N         -2.8110  -22.4910   -6.0140 N.am   29  PHE29      -0.1962
     19  CA        -3.3020  -23.2940   -4.8290 C.3    29  PHE29       0.1771
     20  C         -4.6760  -22.9600   -4.4100 C.2    29  PHE29       0.2619
     21  O         -5.1650  -21.8570   -4.6670 O.2    29  PHE29      -0.2715
     22  CB        -2.3500  -23.3410   -3.6290 C.3    29  PHE29       0.0574
     23  CG        -2.2540  -22.0640   -2.8310 C.ar   29  PHE29      -0.0200
     24  CD1       -1.4900  -20.9470   -3.2650 C.ar   29  PHE29      -0.0042
     25  CD2       -2.8690  -22.0160   -1.4950 C.ar   29  PHE29      -0.0042
     26  CE1       -1.4920  -19.8110   -2.4410 C.ar   29  PHE29      -0.0003
     27  CE2       -2.7590  -20.9070   -0.7280 C.ar   29  PHE29      -0.0003
     28  CZ        -2.1350  -19.8190   -1.2250 C.ar   29  PHE29      -0.0000
     29  N         -5.3530  -23.9360   -3.9320 N.am   30  CYS30      -0.1968
     30  CA        -6.7210  -23.9280   -3.3760 C.3    30  CYS30       0.1712
     31  C         -6.8240  -24.8450   -2.1530 C.2    30  CYS30       0.2296
     32  O         -5.8810  -25.6000   -1.8790 O.2    30  CYS30      -0.2864
     33  CB        -7.7430  -24.4530   -4.3930 C.3    30  CYS30       0.0983
     34  SG        -8.0050  -23.2840   -5.7460 S.3    30  CYS30      -0.0798
     35  N        -13.5080  -23.5000  -10.0070 N.3    45  HIS45      -0.1226
     36  CA       -12.4620  -22.5380  -10.5600 C.3    45  HIS45       0.1752
     37  C        -11.0300  -23.0010  -10.1350 C.2    45  HIS45       0.2596
     38  O        -10.0710  -22.4680  -10.5780 O.2    45  HIS45      -0.2718
     39  CB       -12.7390  -21.0910  -10.1980 C.3    45  HIS45       0.0759
     40  CG       -12.5090  -20.7570   -8.7550 C.ar   45  HIS45       0.0818
     41  ND1      -13.5090  -20.6670   -7.8250 N.ar   45  HIS45      -0.2268
     42  CD2      -11.3770  -20.3580   -8.1220 C.ar   45  HIS45       0.1154
     43  CE1      -13.0010  -20.3320   -6.6550 C.ar   45  HIS45       0.1986
     44  NE2      -11.6810  -20.1220   -6.7920 N.ar   45  HIS45      -0.2212
     45  N        -10.8610  -24.0640   -9.3310 N.am   46  CYS46      -0.1970
     46  CA        -9.6070  -24.6120   -9.0340 C.3    46  CYS46       0.1712
     47  C         -9.1810  -25.7010  -10.0310 C.2    46  CYS46       0.2296
     48  O         -8.1810  -26.3640   -9.7840 O.2    46  CYS46      -0.2864
     49  CB        -9.6170  -25.2100   -7.6360 C.3    46  CYS46       0.0983
     50  SG        -9.8450  -23.8230   -6.4410 S.3    46  CYS46      -0.0798
     51  N        -20.8540  -25.2590  -14.8760 N.3    81  TYR81      -0.1241
     52  CA       -20.0220  -24.2370  -14.3220 C.3    81  TYR81       0.1605
     53  C        -19.8500  -23.1340  -15.3870 C.2    81  TYR81       0.2264
     54  O        -19.5880  -23.3650  -16.4930 O.2    81  TYR81      -0.2867
     55  CB       -18.6510  -24.7970  -13.8530 C.3    81  TYR81       0.0534
     56  CG       -17.7040  -23.6520  -13.5340 C.ar   81  TYR81      -0.0201
     57  CD1      -18.0170  -22.7710  -12.5250 C.ar   81  TYR81      -0.0009
     58  CD2      -16.5310  -23.4900  -14.2310 C.ar   81  TYR81      -0.0009
     59  CE1      -17.2180  -21.7380  -12.1600 C.ar   81  TYR81       0.0417
     60  CE2      -15.6450  -22.4340  -13.9020 C.ar   81  TYR81       0.0417
     61  CZ       -16.0100  -21.5880  -12.8940 C.ar   81  TYR81       0.1957
     62  OH       -15.2760  -20.5580  -12.5260 O.3    81  TYR81      -0.2866
     63  N        -20.6070  -17.0660  -12.9480 N.3    86  LEU86      -0.1245
     64  CA       -19.9930  -17.7760  -11.8920 C.3    86  LEU86       0.1561
     65  C        -20.8990  -18.8100  -11.0460 C.2    86  LEU86       0.2260
     66  O        -20.4810  -19.2820  -10.0520 O.2    86  LEU86      -0.2867
     67  CB       -19.3290  -16.8030  -10.9200 C.3    86  LEU86       0.0270
     68  CG       -18.6530  -15.5960  -11.6060 C.3    86  LEU86       0.0019
     69  CD1      -18.0970  -14.6910  -10.5110 C.3    86  LEU86       0.0001
     70  CD2      -17.4620  -16.1380  -12.4540 C.3    86  LEU86       0.0001
     71  N        -20.1300  -23.3300   -9.0720 N.3    89  ASP89      -0.1239
     72  CA       -18.6820  -23.3360   -8.7880 C.3    89  ASP89       0.1674
     73  C        -18.4100  -24.4890   -7.8570 C.2    89  ASP89       0.2266
     74  O        -18.1430  -24.2960   -6.6290 O.2    89  ASP89      -0.2867
     75  CB       -18.2160  -22.0270   -8.2280 C.3    89  ASP89       0.1410
     76  CG       -16.6840  -21.9210   -8.1000 C.2    89  ASP89       0.3668
     77  OD1      -15.9740  -22.8080   -8.7450 O.co2  89  ASP89      -0.2456
     78  OD2      -16.1900  -21.0210   -7.3690 O.co2  89  ASP89      -0.2456
     79  N         -3.8950  -16.0950    1.4900 N.3   124  ARG124     -0.1245
     80  CA        -3.3230  -14.8220    1.8590 C.3   124  ARG124      0.1563
     81  C         -4.0170  -14.3440    3.1480 C.2   124  ARG124      0.2260
     82  O         -5.2510  -14.3790    3.2490 O.2   124  ARG124     -0.2867
     83  CB        -3.4850  -13.7540    0.7240 C.3   124  ARG124      0.0307
     84  CG        -2.6750  -14.1450   -0.5200 C.3   124  ARG124      0.0489
     85  CD        -2.6910  -13.0060   -1.4930 C.3   124  ARG124      0.2205
     86  NE        -1.9760  -13.4490   -2.6240 N.pl3 124  ARG124     -0.0865
     87  CZ        -0.7940  -12.9560   -3.0010 C.cat 124  ARG124      0.5346
     88  NH1       -0.1380  -12.0550   -2.2350 N.pl3 124  ARG124      0.1354
     89  NH2       -0.1620  -13.4730   -4.0620 N.pl3 124  ARG124      0.1354
     90  N        -12.5210  -12.2450    6.3560 N.3   170  SER170     -0.1202
     91  CA       -12.8290  -12.8080    5.0490 C.3   170  SER170      0.2020
     92  C        -11.8440  -13.9670    4.5940 C.2   170  SER170      0.2619
     93  O        -10.7040  -13.9510    5.0170 O.2   170  SER170     -0.2717
     94  CB       -12.7720  -11.7270    4.0070 C.3   170  SER170      0.2103
     95  OG       -13.1620  -12.2610    2.6930 O.3   170  SER170     -0.2182
     96  N        -12.3300  -14.8460    3.7300 N.am  171  ALA171     -0.1965
     97  CA       -11.4660  -15.7100    2.9590 C.3   171  ALA171      0.1728
     98  C        -10.8640  -14.8520    1.8420 C.2   171  ALA171      0.2616
     99  O        -11.3370  -13.7490    1.5310 O.2   171  ALA171     -0.2715
    100  CB       -12.2250  -16.8390    2.4330 C.3   171  ALA171      0.0334
    101  N         -9.7210  -15.2360    1.3290 N.am  172  PHE172     -0.1960
    102  CA        -9.0710  -14.5400    0.3440 C.3   172  PHE172      0.1771
    103  C         -8.4190  -15.5290   -0.6730 C.2   172  PHE172      0.2619
    104  O         -8.7680  -16.7460   -0.6730 O.2   172  PHE172     -0.2715
    105  CB        -8.2310  -13.4330    0.8890 C.3   172  PHE172      0.0574
    106  CG        -8.0340  -12.2970   -0.1070 C.ar  172  PHE172     -0.0200
    107  CD1       -9.1460  -11.6540   -0.7490 C.ar  172  PHE172     -0.0042
    108  CD2       -6.7300  -11.8860   -0.4540 C.ar  172  PHE172     -0.0042
    109  CE1       -8.9000  -10.7130   -1.7420 C.ar  172  PHE172     -0.0003
    110  CE2       -6.5330  -10.8600   -1.3170 C.ar  172  PHE172     -0.0003
    111  CZ        -7.5650  -10.3540   -2.0080 C.ar  172  PHE172     -0.0000
    112  N         -7.5500  -15.0380   -1.5540 N.am  173  LYS173     -0.1963
    113  CA        -6.7940  -15.8070   -2.5270 C.3   173  LYS173      0.1728
    114  C         -6.0520  -16.9440   -1.8640 C.2   173  LYS173      0.2616
    115  O         -5.3040  -16.7170   -0.9290 O.2   173  LYS173     -0.2715
    116  CB        -5.7880  -14.9400   -3.3190 C.3   173  LYS173      0.0311
    117  CG        -6.4650  -13.7750   -4.0820 C.3   173  LYS173      0.0038
    118  CD        -5.4350  -12.9130   -4.7550 C.3   173  LYS173      0.0206
    119  CE        -6.2030  -11.7640   -5.4630 C.3   173  LYS173      0.1093
    120  NZ        -5.0880  -11.0880   -6.1460 N.3   173  LYS173     -0.1314
    121  N         -6.2010  -18.1340   -2.3910 N.am  174  GLY174     -0.1955
    122  CA        -5.6700  -19.3590   -1.8950 C.3   174  GLY174      0.1869
    123  C         -6.6290  -20.1340   -1.0220 C.2   174  GLY174      0.2309
    124  O         -6.3950  -21.3090   -0.7390 O.2   174  GLY174     -0.2863
    125  N        -10.0110  -20.5060   -1.7820 N.3   176  SER176     -0.1217
    126  CA       -11.0140  -21.0570   -2.6890 C.3   176  SER176      0.1889
    127  C        -11.2160  -22.5480   -2.4350 C.2   176  SER176      0.2288
    128  O        -10.2750  -23.2870   -2.2230 O.2   176  SER176     -0.2866
    129  CB       -10.3980  -21.0650   -4.1330 C.3   176  SER176      0.2089
    130  OG       -10.1900  -19.8670   -4.6590 O.3   176  SER176     -0.2183
    131  N        -16.0480  -21.7680   -0.3300 N.3   190  VAL190     -0.1231
    132  CA       -15.4870  -20.5210   -0.8160 C.3   190  VAL190      0.1692
    133  C        -15.5660  -20.4710   -2.3410 C.2   190  VAL190      0.2593
    134  O        -14.8660  -21.2470   -3.0110 O.2   190  VAL190     -0.2718
    135  CB       -14.0960  -20.2350   -0.2920 C.3   190  VAL190      0.0266
    136  CG1      -13.6120  -18.8680   -0.7080 C.3   190  VAL190      0.0020
    137  CG2      -13.9760  -20.3850    1.2250 C.3   190  VAL190      0.0020
    138  N        -16.2390  -19.4290   -2.8610 N.am  191  SER191     -0.1938
    139  CA       -16.2950  -19.1890   -4.3200 C.3   191  SER191      0.2055
    140  C        -15.6560  -17.9190   -4.7610 C.2   191  SER191      0.2643
    141  O        -14.6740  -17.9500   -5.4470 O.2   191  SER191     -0.2714
    142  CB       -17.6800  -19.3250   -4.8440 C.3   191  SER191      0.2130
    143  OG       -17.7660  -19.2540   -6.2120 O.3   191  SER191     -0.2179
    144  N        -16.2750  -16.7320   -4.4780 N.am  192  TYR192     -0.1959
    145  CA       -15.6980  -15.4860   -4.9350 C.3   192  TYR192      0.1771
    146  C        -16.0900  -14.3320   -4.0660 C.2   192  TYR192      0.2620
    147  O        -17.0170  -14.4360   -3.2580 O.2   192  TYR192     -0.2715
    148  CB       -16.0110  -15.2000   -6.3810 C.3   192  TYR192      0.0574
    149  CG       -17.4610  -14.8430   -6.6910 C.ar  192  TYR192     -0.0198
    150  CD1      -17.8940  -13.5390   -6.6300 C.ar  192  TYR192     -0.0009
    151  CD2      -18.3950  -15.7900   -7.0250 C.ar  192  TYR192     -0.0009
    152  CE1      -19.2580  -13.2240   -6.9500 C.ar  192  TYR192      0.0417
    153  CE2      -19.6810  -15.5300   -7.3970 C.ar  192  TYR192      0.0417
    154  CZ       -20.1440  -14.2250   -7.3110 C.ar  192  TYR192      0.1957
    155  OH       -21.4760  -13.9070   -7.6680 O.3   192  TYR192     -0.2866
    156  N        -15.4350  -13.1950   -4.3120 N.am  193  GLY193     -0.1940
    157  CA       -15.8560  -11.9290   -3.7140 C.3   193  GLY193      0.2014
    158  C        -15.1710  -10.7770   -4.3500 C.2   193  GLY193      0.2639
    159  O        -14.6790  -10.9180   -5.4820 O.2   193  GLY193     -0.2714
    160  N        -15.0270   -9.6340   -3.6160 N.am  194  ARG194     -0.1963
    161  CA       -14.4030   -8.4090   -4.1630 C.3   194  ARG194      0.1729
    162  C        -12.8690   -8.5780   -4.1840 C.2   194  ARG194      0.2616
    163  O        -12.2990   -9.0500   -3.2010 O.2   194  ARG194     -0.2715
    164  CB       -14.7860   -7.2140   -3.4030 C.3   194  ARG194      0.0348
    165  CG       -16.2600   -6.8000   -3.6400 C.3   194  ARG194      0.0492
    166  CD       -16.6090   -5.6610   -2.7080 C.3   194  ARG194      0.2205
    167  NE       -15.7510   -4.5580   -2.8380 N.pl3 194  ARG194     -0.0865
    168  CZ       -15.9650   -3.4660   -3.5390 C.cat 194  ARG194      0.5346
    169  NH1      -17.0780   -3.2830   -4.2150 N.pl3 194  ARG194      0.1354
    170  NH2      -15.0860   -2.4910   -3.5010 N.pl3 194  ARG194      0.1354
    171  N        -12.2180   -7.8760   -5.1580 N.am  195  SER195     -0.1950
    172  CA       -10.8100   -7.8370   -5.1220 C.3   195  SER195      0.1924
    173  C        -10.1760   -7.1600   -3.9580 C.2   195  SER195      0.2314
    174  O         -9.0290   -7.4480   -3.6200 O.2   195  SER195     -0.2863
    175  CB       -10.2910   -7.2480   -6.4070 C.3   195  SER195      0.2116
    176  OG       -10.7290   -5.9670   -6.5110 O.3   195  SER195     -0.2180
    177  N        -11.4290   -7.4530   -0.8440 N.3   197  ALA197     -0.1245
    178  CA       -11.8140   -8.2140    0.2440 C.3   197  ALA197      0.1562
    179  C        -12.8560   -7.6420    1.2250 C.2   197  ALA197      0.2260
    180  O        -13.0110   -8.1070    2.3830 O.2   197  ALA197     -0.2867
    181  CB       -10.5720   -8.6500    1.0410 C.3   197  ALA197      0.0290
    182  N        -18.9420  -12.0760    0.9510 N.3   201  ALA201     -0.1245
    183  CA       -18.4700  -12.8320   -0.1440 C.3   201  ALA201      0.1562
    184  C        -19.5040  -13.9290   -0.5340 C.2   201  ALA201      0.2260
    185  O        -20.4460  -14.1290    0.1840 O.2   201  ALA201     -0.2867
    186  CB       -17.1300  -13.4930    0.2030 C.3   201  ALA201      0.0290
    187  N        -20.4460  -17.8530   -1.3910 N.3   203  PHE203     -0.1241
    188  CA       -20.0790  -19.2670   -1.2200 C.3   203  PHE203      0.1605
    189  C        -21.1030  -20.1580   -1.9680 C.2   203  PHE203      0.2264
    190  O        -22.3110  -19.8030   -1.9740 O.2   203  PHE203     -0.2867
    191  CB       -20.1850  -19.6080    0.2100 C.3   203  PHE203      0.0534
    192  CG       -18.9220  -19.1830    1.0080 C.ar  203  PHE203     -0.0203
    193  CD1      -18.5420  -17.8250    1.0390 C.ar  203  PHE203     -0.0042
    194  CD2      -18.2660  -20.0320    1.7520 C.ar  203  PHE203     -0.0042
    195  CE1      -17.4620  -17.3920    1.8080 C.ar  203  PHE203     -0.0003
    196  CE2      -17.1820  -19.6140    2.5780 C.ar  203  PHE203     -0.0003
    197  CZ       -16.7750  -18.2590    2.5570 C.ar  203  PHE203     -0.0000
@<TRIPOS>BOND
     1    54    53    2
     2    53    52    1
     3    51    52    1
     4    52    55    1
     5    58    60   ar
     6    58    56   ar
     7    60    61   ar
     8    55    56    1
     9    56    57   ar
    10    63    64    1
    11    61    62    1
    12    61    59   ar
    13    57    59   ar
    14    70    68    1
    15    17    16    1
    16    64    65    1
    17    64    67    1
    18    16    15    1
    19    68    67    1
    20    68    69    1
    21    65    66    2
    22    15    14    1
    23     7     5    1
    24    38    37    2
    25    36    39    1
    26    36    37    1
    27    36    35    1
    28     3     4    2
    29     3     2    1
    30    39    40    1
    31    37    45   am
    32    47    48    2
    33    47    46    1
    34    14    13    1
    35    45    46    1
    36     5     2    1
    37     5     6    1
    38     2     1    1
    39    71    72    1
    40    13    10    1
    41    46    49    1
    42     9    10    1
    43    72    75    1
    44    72    73    1
    45    40    42   ar
    46    40    41   ar
    47    77    76   ar
    48    75    76    1
    49     6     8    1
    50    42    44   ar
    51    10    11    1
    52    76    78   ar
    53    73    74    2
    54    41    43   ar
    55   155   154    1
    56    49    50    1
    57   153   154   ar
    58   153   151   ar
    59   154   152   ar
    60   151   149   ar
    61    11    12    2
    62    11    18   am
    63   152   150   ar
    64    44    43   ar
    65   149   150   ar
    66   149   148    1
    67   176   175    1
    68    50    34    1
    69   175   172    1
    70   148   145    1
    71   143   142    1
    72   120   119    1
    73    18    19    1
    74    34    33    1
    75   159   158    2
    76   119   118    1
    77   141   140    2
    78   171   172    1
    79   171   162   am
    80   172   173    1
    81   145   144    1
    82   145   146    1
    83   142   139    1
    84    19    20    1
    85    19    22    1
    86   140   144   am
    87   140   139    1
    88   118   117    1
    89    21    20    2
    90   130   129    1
    91    20    29   am
    92    33    30    1
    93   158   157    1
    94   158   160   am
    95   139   138    1
    96   156   146   am
    97   156   157    1
    98   169   168    1
    99   162   161    1
   100   162   163    2
   101   161   160    1
   102   161   164    1
   103   129   126    1
   104   117   116    1
   105   146   147    2
   106    89    87    1
   107   173   174    2
   108    29    30    1
   109   165   164    1
   110   165   166    1
   111    22    23    1
   112   168   170    1
   113   168   167    2
   114    30    31    1
   115   116   113    1
   116    24    23   ar
   117    24    26   ar
   118   134   133    2
   119    87    86    2
   120    87    88    1
   121   138   133   am
   122   167   166    1
   123    23    25   ar
   124   126   127    1
   125   126   125    1
   126    86    85    1
   127   113   114    1
   128   113   112    1
   129    26    28   ar
   130   127   128    2
   131   121   122    1
   132   121   114   am
   133   133   132    1
   134    31    32    2
   135   111   109   ar
   136   111   110   ar
   137   190   189    2
   138   189   188    1
   139   122   123    1
   140   114   115    2
   141   109   107   ar
   142   112   103   am
   143    25    27   ar
   144    85    84    1
   145   187   188    1
   146   110   108   ar
   147    28    27   ar
   148   188   191    1
   149   123   124    2
   150   177   178    1
   151   132   131    1
   152   132   135    1
   153   107   106   ar
   154   136   135    1
   155   104   103    2
   156   103   102    1
   157   184   183    1
   158   184   185    2
   159    84    83    1
   160   108   106   ar
   161   135   137    1
   162   183   186    1
   163   183   182    1
   164   106   105    1
   165   191   192    1
   166   178   181    1
   167   178   179    1
   168   102   105    1
   169   102   101    1
   170    83    80    1
   171   192   193   ar
   172   192   194   ar
   173   193   195   ar
   174   179   180    2
   175   101    98   am
   176    79    80    1
   177    99    98    2
   178   194   196   ar
   179   195   197   ar
   180    98    97    1
   181    80    81    1
   182   100    97    1
   183   197   196   ar
   184    95    94    1
   185    97    96    1
   186    81    82    2
   187    96    92   am
   188    94    91    1
   189    92    93    2
   190    92    91    1
   191    91    90    1
