@<TRIPOS>MOLECULE
tmp/5yjsA01.pdb
 131 117 0 0 0
SMALL
GASTEIGER

@<TRIPOS>ATOM
      1  N        -49.7820  -19.0470  -16.6360 N.3    13  ALA13      -0.1245
      2  CA       -49.5950  -20.1570  -15.7120 C.3    13  ALA13       0.1562
      3  C        -50.6650  -20.2290  -14.5530 C.2    13  ALA13       0.2260
      4  O        -51.0780  -21.3380  -14.1360 O.2    13  ALA13      -0.2867
      5  CB       -48.1870  -20.1180  -15.1540 C.3    13  ALA13       0.0290
      6  N        -50.2170  -14.4210  -13.6140 N.3    21  LEU21      -0.1245
      7  CA       -48.9400  -14.5130  -14.2210 C.3    21  LEU21       0.1561
      8  C        -49.1300  -14.8780  -15.6730 C.2    21  LEU21       0.2260
      9  O        -49.9020  -15.8070  -16.0090 O.2    21  LEU21      -0.2867
     10  CB       -48.1690  -15.5920  -13.5290 C.3    21  LEU21       0.0270
     11  CG       -46.8020  -15.9360  -14.1180 C.3    21  LEU21       0.0019
     12  CD1      -45.8520  -14.7860  -13.8590 C.3    21  LEU21       0.0001
     13  CD2      -46.2690  -17.1710  -13.4270 C.3    21  LEU21       0.0001
     14  N        -46.5950  -15.6870  -19.0800 N.3    23  ILE23      -0.1245
     15  CA       -45.1930  -15.9590  -19.4040 C.3    23  ILE23       0.1561
     16  C        -45.0650  -16.2930  -20.8850 C.2    23  ILE23       0.2260
     17  O        -45.9520  -16.8990  -21.4630 O.2    23  ILE23      -0.2867
     18  CB       -44.6040  -17.0590  -18.5580 C.3    23  ILE23       0.0252
     19  CG1      -43.0920  -17.1580  -18.7850 C.3    23  ILE23       0.0019
     20  CG2      -45.3080  -18.3720  -18.8250 C.3    23  ILE23       0.0019
     21  CD1      -42.3510  -18.1290  -17.8560 C.3    23  ILE23       0.0001
     22  N        -36.4390  -16.3800  -20.1180 N.3    41  ARG41      -0.1245
     23  CA       -37.8890  -16.2080  -20.3100 C.3    41  ARG41       0.1563
     24  C        -38.2790  -14.7900  -19.8410 C.2    41  ARG41       0.2260
     25  O        -37.5590  -14.1650  -19.0360 O.2    41  ARG41      -0.2867
     26  CB       -38.6900  -17.2600  -19.4990 C.3    41  ARG41       0.0307
     27  CG       -38.4010  -18.7390  -19.7470 C.3    41  ARG41       0.0489
     28  CD       -38.8090  -19.2100  -21.1840 C.3    41  ARG41       0.2205
     29  NE       -40.2770  -19.3160  -21.2690 N.pl3  41  ARG41      -0.0865
     30  CZ       -40.9510  -20.3450  -20.7330 C.cat  41  ARG41       0.5346
     31  NH1      -40.2800  -21.2880  -20.0730 N.pl3  41  ARG41       0.1354
     32  NH2      -42.2710  -20.4280  -20.8060 N.pl3  41  ARG41       0.1354
     33  N        -41.7740  -12.6970  -18.3370 N.3    43  ALA43      -0.1245
     34  CA       -43.0890  -12.8270  -17.7520 C.3    43  ALA43       0.1562
     35  C        -43.6100  -11.4780  -17.2910 C.2    43  ALA43       0.2260
     36  O        -42.8570  -10.5140  -17.1250 O.2    43  ALA43      -0.2867
     37  CB       -43.0290  -13.8190  -16.5750 C.3    43  ALA43       0.0290
     38  N        -46.1680  -10.2920  -14.0820 N.3    45  LEU45      -0.1245
     39  CA       -46.9550  -10.5520  -12.9050 C.3    45  LEU45       0.1561
     40  C        -47.7790   -9.3140  -12.5720 C.2    45  LEU45       0.2260
     41  O        -47.2120   -8.2080  -12.4480 O.2    45  LEU45      -0.2867
     42  CB       -46.0560  -10.8110  -11.7130 C.3    45  LEU45       0.0270
     43  CG       -45.8060  -12.1990  -11.2220 C.3    45  LEU45       0.0019
     44  CD1      -44.8550  -12.1160  -10.0330 C.3    45  LEU45       0.0001
     45  CD2      -47.0660  -12.9530  -10.7730 C.3    45  LEU45       0.0001
     46  N        -48.9140  -12.6100   -2.5390 N.3    53  MET53      -0.1245
     47  CA       -48.5370  -13.8270   -3.1990 C.3    53  MET53       0.1570
     48  C        -48.0930  -14.8860   -2.1840 C.2    53  MET53       0.2261
     49  O        -47.2890  -14.6620   -1.2900 O.2    53  MET53      -0.2867
     50  CB       -47.4100  -13.5830   -4.2120 C.3    53  MET53       0.0387
     51  CG       -47.1960  -14.7640   -5.1760 C.3    53  MET53       0.0595
     52  SD       -45.8350  -14.4450   -6.3680 S.3    53  MET53      -0.1393
     53  CE       -44.5520  -14.4110   -5.1950 C.3    53  MET53       0.0692
     54  N        -43.0880  -18.5730   -2.5050 N.3    56  ASN56      -0.1240
     55  CA       -42.5750  -19.5630   -3.4050 C.3    56  ASN56       0.1653
     56  C        -41.1630  -19.1210   -3.8210 C.2    56  ASN56       0.2266
     57  O        -40.7900  -17.9350   -3.6650 O.2    56  ASN56      -0.2867
     58  CB       -43.5260  -19.6650   -4.6020 C.3    56  ASN56       0.1155
     59  CG       -43.5830  -18.3890   -5.4050 C.2    56  ASN56       0.2627
     60  OD1      -44.1980  -17.3280   -4.9910 O.2    56  ASN56      -0.2716
     61  ND2      -42.8670  -18.4070   -6.5050 N.am   56  ASN56      -0.0877
     62  N        -38.4360  -19.4350   -7.2930 N.3    58  CYS58      -0.1235
     63  CA       -38.2510  -19.7250   -8.7370 C.3    58  CYS58       0.1677
     64  C        -36.8920  -20.4450   -8.8780 C.2    58  CYS58       0.2270
     65  O        -35.9350  -20.0480   -8.2400 O.2    58  CYS58      -0.2867
     66  CB       -38.1920  -18.4120   -9.5290 C.3    58  CYS58       0.0956
     67  SG       -38.1130  -18.7160  -11.3220 S.3    58  CYS58      -0.0801
     68  N        -33.9040  -14.2550  -11.3430 N.3    62  VAL62      -0.1245
     69  CA       -34.9780  -13.3770  -11.7320 C.3    62  VAL62       0.1561
     70  C        -34.5790  -11.8980  -11.5790 C.2    62  VAL62       0.2260
     71  O        -33.8770  -11.4840  -10.6060 O.2    62  VAL62      -0.2867
     72  CB       -36.3110  -13.6840  -10.9330 C.3    62  VAL62       0.0252
     73  CG1      -36.8730  -14.9840  -11.3250 C.3    62  VAL62       0.0019
     74  CG2      -36.0300  -13.7030   -9.5420 C.3    62  VAL62       0.0019
     75  N        -36.8730   -8.3860  -11.5670 N.3    64  TYR64      -0.1241
     76  CA       -38.1950   -7.7620  -11.6070 C.3    64  TYR64       0.1605
     77  C        -38.0470   -6.2580  -11.9480 C.2    64  TYR64       0.2264
     78  O        -37.2120   -5.5580  -11.3710 O.2    64  TYR64      -0.2867
     79  CB       -38.8330   -7.8950  -10.2090 C.3    64  TYR64       0.0534
     80  CG       -39.1200   -9.3660   -9.8680 C.ar   64  TYR64      -0.0201
     81  CD1      -40.3090   -9.9490  -10.2680 C.ar   64  TYR64      -0.0009
     82  CD2      -38.2010  -10.1670   -9.1940 C.ar   64  TYR64      -0.0009
     83  CE1      -40.6000  -11.2660  -10.0160 C.ar   64  TYR64       0.0417
     84  CE2      -38.4840  -11.5060   -8.9240 C.ar   64  TYR64       0.0417
     85  CZ       -39.6850  -12.0400   -9.3370 C.ar   64  TYR64       0.1957
     86  OH       -40.0860  -13.3410   -9.1200 O.3    64  TYR64      -0.2866
     87  N        -39.6400  -16.0460   -1.8600 N.3   100  ILE100     -0.1245
     88  CA       -40.0840  -14.6600   -1.8390 C.3   100  ILE100      0.1561
     89  C        -41.5900  -14.6130   -1.7500 C.2   100  ILE100      0.2260
     90  O        -42.2640  -15.6180   -2.0190 O.2   100  ILE100     -0.2867
     91  CB       -39.6880  -13.8480   -3.1080 C.3   100  ILE100      0.0252
     92  CG1      -40.3390  -14.4120   -4.3710 C.3   100  ILE100      0.0019
     93  CG2      -38.1860  -13.8110   -3.2730 C.3   100  ILE100      0.0019
     94  CD1      -40.2020  -13.5570   -5.5970 C.3   100  ILE100      0.0001
     95  N        -40.7530   -9.3800  -15.6930 N.3   115  VAL115     -0.1245
     96  CA       -39.7870  -10.2890  -15.1260 C.3   115  VAL115      0.1561
     97  C        -38.9050  -10.9030  -16.2150 C.2   115  VAL115      0.2260
     98  O        -39.4140  -11.4810  -17.1490 O.2   115  VAL115     -0.2867
     99  CB       -40.4710  -11.4600  -14.3800 C.3   115  VAL115      0.0252
    100  CG1      -39.4300  -12.2290  -13.5740 C.3   115  VAL115      0.0019
    101  CG2      -41.5800  -10.9220  -13.4490 C.3   115  VAL115      0.0019
    102  N        -36.3420  -14.0600  -16.5620 N.3   117  VAL117     -0.1245
    103  CA       -35.9170  -15.3110  -15.8910 C.3   117  VAL117      0.1561
    104  C        -34.7330  -15.8650  -16.6720 C.2   117  VAL117      0.2260
    105  O        -34.7900  -15.9830  -17.9220 O.2   117  VAL117     -0.2867
    106  CB       -36.9880  -16.3820  -15.9210 C.3   117  VAL117      0.0252
    107  CG1      -36.5310  -17.5930  -15.1090 C.3   117  VAL117      0.0019
    108  CG2      -38.2670  -15.8450  -15.2950 C.3   117  VAL117      0.0019
    109  N        -38.4410  -22.8820  -16.4650 N.3   126  ALA126     -0.1231
    110  CA       -38.6870  -21.9950  -15.2990 C.3   126  ALA126      0.1694
    111  C        -39.8920  -22.5700  -14.5270 C.2   126  ALA126      0.2592
    112  O        -40.8690  -22.9970  -15.1310 O.2   126  ALA126     -0.2718
    113  CB       -38.9260  -20.5770  -15.7210 C.3   126  ALA126      0.0304
    114  N        -39.7610  -22.7040  -13.2110 N.am  127  GLN127     -0.1966
    115  CA       -40.8090  -23.2670  -12.3720 C.3   127  GLN127      0.1733
    116  C        -40.8580  -22.5260  -11.0540 C.2   127  GLN127      0.2616
    117  O        -39.8460  -22.0970  -10.5490 O.2   127  GLN127     -0.2715
    118  CB       -40.5790  -24.7330  -12.1030 C.3   127  GLN127      0.0408
    119  CG       -41.2250  -25.6860  -13.0920 C.3   127  GLN127      0.0908
    120  CD       -42.7480  -25.7990  -12.9300 C.2   127  GLN127      0.2608
    121  OE1      -43.4010  -25.2060  -12.0260 O.2   127  GLN127     -0.2717
    122  NE2      -43.3250  -26.5350  -13.8190 N.am  127  GLN127     -0.0878
    123  N        -42.0690  -22.3220  -10.5450 N.am  128  GLU128     -0.1977
    124  CA       -42.3350  -21.8780   -9.1800 C.3   128  GLU128      0.1602
    125  C        -42.5060  -23.0750   -8.2330 C.2   128  GLU128      0.2287
    126  O        -43.1970  -24.0640   -8.5920 O.2   128  GLU128     -0.2864
    127  CB       -43.6100  -21.0480   -9.1740 C.3   128  GLU128      0.0415
    128  CG       -43.4510  -19.7310   -9.8770 C.3   128  GLU128      0.1163
    129  CD       -44.7420  -18.8590   -9.8910 C.2   128  GLU128      0.3649
    130  OE1      -45.7580  -19.3060  -10.4550 O.co2 128  GLU128     -0.2457
    131  OE2      -44.6910  -17.7050   -9.3870 O.co2 128  GLU128     -0.2457
@<TRIPOS>BOND
     1    17    16    2
     2    29    28    1
     3    29    30    2
     4    28    27    1
     5    16    15    1
     6    32    30    1
     7    30    31    1
     8    23    22    1
     9    23    24    1
    10    23    26    1
    11    24    25    2
    12    27    26    1
    13    15    14    1
    14    15    18    1
    15    20    18    1
    16    19    18    1
    17    19    21    1
    18    33    34    1
    19   105   104    2
    20    34    35    1
    21    34    37    1
    22    35    36    2
    23    98    97    2
    24   104   103    1
    25     1     2    1
    26   102   103    1
    27   109   110    1
    28    97    96    1
    29     9     8    2
    30   106   103    1
    31   106   108    1
    32   106   107    1
    33   113   110    1
    34     2     5    1
    35     2     3    1
    36    95    96    1
    37     8     7    1
    38   110   111    1
    39   112   111    2
    40    96    99    1
    41     3     4    2
    42   111   114   am
    43    99   100    1
    44    99   101    1
    45     7     6    1
    46     7    10    1
    47    11    12    1
    48    11    10    1
    49    11    13    1
    50    38    39    1
    51   122   120   am
    52   114   115    1
    53   119   120    1
    54   119   118    1
    55   120   121    2
    56    39    40    1
    57    39    42    1
    58    40    41    2
    59   115   118    1
    60   115   116    1
    61    77    76    1
    62    77    78    2
    63    69    70    1
    64    69    68    1
    65    69    72    1
    66    42    43    1
    67    76    75    1
    68    76    79    1
    69    70    71    2
    70    73    72    1
    71    67    66    1
    72    43    45    1
    73    43    44    1
    74   116   117    2
    75   116   123   am
    76    72    74    1
    77   123   124    1
    78   130   129   ar
    79    81    83   ar
    80    81    80   ar
    81    79    80    1
    82    83    85   ar
    83   129   128    1
    84   129   131   ar
    85   128   127    1
    86    80    82   ar
    87    66    63    1
    88    85    86    1
    89    85    84   ar
    90    82    84   ar
    91   124   127    1
    92   124   125    1
    93    64    63    1
    94    64    65    2
    95    63    62    1
    96   126   125    2
    97    61    59   am
    98    52    53    1
    99    52    51    1
   100    94    92    1
   101    59    60    2
   102    59    58    1
   103    51    50    1
   104    58    55    1
   105    92    91    1
   106    50    47    1
   107    56    57    2
   108    56    55    1
   109    55    54    1
   110    93    91    1
   111    47    46    1
   112    47    48    1
   113    91    88    1
   114    48    49    2
   115    90    89    2
   116    87    88    1
   117    88    89    1
