@<TRIPOS>MOLECULE
tmp/5yjsB00.pdb
 119 113 0 0 0
SMALL
GASTEIGER

@<TRIPOS>ATOM
      1  N        -33.3850   24.0130   -9.7910 N.3   218  PHE218     -0.1241
      2  CA       -34.1540   24.8860  -10.6480 C.3   218  PHE218      0.1605
      3  C        -34.0740   24.3680  -12.0690 C.2   218  PHE218      0.2264
      4  O        -32.9620   24.2940  -12.6450 O.2   218  PHE218     -0.2867
      5  CB       -33.6400   26.3270  -10.6370 C.3   218  PHE218      0.0534
      6  CG       -34.5130   27.2660  -11.4420 C.ar  218  PHE218     -0.0203
      7  CD1      -35.7530   27.5800  -11.0020 C.ar  218  PHE218     -0.0042
      8  CD2      -34.0880   27.7840  -12.6600 C.ar  218  PHE218     -0.0042
      9  CE1      -36.5850   28.4340  -11.7240 C.ar  218  PHE218     -0.0003
     10  CE2      -34.8930   28.6380  -13.4040 C.ar  218  PHE218     -0.0003
     11  CZ       -36.1570   28.9680  -12.9430 C.ar  218  PHE218     -0.0000
     12  N        -40.5230   28.0490  -15.3520 N.3   237  GLY237     -0.1210
     13  CA       -39.5460   27.5970  -14.3570 C.3   237  GLY237      0.1956
     14  C        -40.1330   26.7190  -13.2820 C.2   237  GLY237      0.2612
     15  O        -41.2970   26.8210  -12.9880 O.2   237  GLY237     -0.2717
     16  N        -39.3110   25.8320  -12.7230 N.am  238  TYR238     -0.1962
     17  CA       -39.7060   24.9410  -11.6350 C.3   238  TYR238      0.1771
     18  C        -38.6300   24.9720  -10.5740 C.2   238  TYR238      0.2619
     19  O        -37.4870   24.5430  -10.8150 O.2   238  TYR238     -0.2715
     20  CB       -39.9010   23.5340  -12.1820 C.3   238  TYR238      0.0574
     21  CG       -40.4240   22.4950  -11.2020 C.ar  238  TYR238     -0.0198
     22  CD1      -39.5900   21.9330  -10.2650 C.ar  238  TYR238     -0.0009
     23  CD2      -41.7420   22.0290  -11.2640 C.ar  238  TYR238     -0.0009
     24  CE1      -40.0380   20.9820   -9.3860 C.ar  238  TYR238      0.0417
     25  CE2      -42.1980   21.0550  -10.3760 C.ar  238  TYR238      0.0417
     26  CZ       -41.3180   20.5520   -9.4340 C.ar  238  TYR238      0.1957
     27  OH       -41.6610   19.6100   -8.5210 O.3   238  TYR238     -0.2866
     28  N        -38.9800   25.4790   -9.3920 N.am  239  MET239     -0.1977
     29  CA       -38.0570   25.5000   -8.2520 C.3   239  MET239      0.1605
     30  C        -38.4800   24.4540   -7.1920 C.2   239  MET239      0.2287
     31  O        -39.6180   24.4590   -6.7200 O.2   239  MET239     -0.2864
     32  CB       -37.9660   26.8990   -7.6610 C.3   239  MET239      0.0413
     33  CG       -36.9390   27.0310   -6.5380 C.3   239  MET239      0.0598
     34  SD       -36.5270   28.7450   -6.1530 S.3   239  MET239     -0.1393
     35  CE       -35.4790   29.1110   -7.5750 C.3   239  MET239      0.0692
     36  N        -31.2390   36.0300   -5.0110 N.3   250  TYR250     -0.1241
     37  CA       -30.8750   36.3000   -6.4040 C.3   250  TYR250      0.1605
     38  C        -31.8320   37.3260   -6.9910 C.2   250  TYR250      0.2264
     39  O        -32.8020   37.7030   -6.3420 O.2   250  TYR250     -0.2867
     40  CB       -30.9190   35.0060   -7.2220 C.3   250  TYR250      0.0534
     41  CG       -32.3190   34.4710   -7.3970 C.ar  250  TYR250     -0.0201
     42  CD1      -32.9400   33.7290   -6.3840 C.ar  250  TYR250     -0.0009
     43  CD2      -33.0610   34.7650   -8.5430 C.ar  250  TYR250     -0.0009
     44  CE1      -34.2290   33.2480   -6.5360 C.ar  250  TYR250      0.0417
     45  CE2      -34.3590   34.3000   -8.6910 C.ar  250  TYR250      0.0417
     46  CZ       -34.9350   33.5450   -7.6950 C.ar  250  TYR250      0.1957
     47  OH       -36.2130   33.1070   -7.8270 O.3   250  TYR250     -0.2866
     48  N        -33.7090   38.1360  -11.0970 N.3   252  ASN252     -0.1240
     49  CA       -33.8680   37.8750  -12.5230 C.3   252  ASN252      0.1653
     50  C        -33.5170   39.1400  -13.2490 C.2   252  ASN252      0.2266
     51  O        -34.0750   40.1800  -12.9660 O.2   252  ASN252     -0.2867
     52  CB       -35.2840   37.4420  -12.8440 C.3   252  ASN252      0.1155
     53  CG       -35.5430   36.0160  -12.4070 C.2   252  ASN252      0.2627
     54  OD1      -34.8590   35.1190  -12.8890 O.2   252  ASN252     -0.2716
     55  ND2      -36.5200   35.7860  -11.5130 N.am  252  ASN252     -0.0877
     56  N        -41.6390   37.1920  -12.8340 N.3   257  ARG257     -0.1245
     57  CA       -42.1180   35.8400  -12.6560 C.3   257  ARG257      0.1563
     58  C        -43.4160   35.8080  -11.8580 C.2   257  ARG257      0.2260
     59  O        -43.5380   36.4630  -10.7990 O.2   257  ARG257     -0.2867
     60  CB       -41.0850   35.0350  -11.9110 C.3   257  ARG257      0.0307
     61  CG       -39.7330   34.9730  -12.6330 C.3   257  ARG257      0.0489
     62  CD       -39.7000   33.8340  -13.6100 C.3   257  ARG257      0.2205
     63  NE       -38.9220   34.1490  -14.8060 N.pl3 257  ARG257     -0.0865
     64  CZ       -38.0490   33.3480  -15.4120 C.cat 257  ARG257      0.5346
     65  NH1      -37.7050   32.1610  -14.9350 N.pl3 257  ARG257      0.1354
     66  NH2      -37.5150   33.7550  -16.5360 N.pl3 257  ARG257      0.1354
     67  N        -45.2310   33.4100   -9.7900 N.3   259  VAL259     -0.1245
     68  CA       -44.8800   32.2070   -9.0450 C.3   259  VAL259      0.1561
     69  C        -46.0280   31.5950   -8.2330 C.2   259  VAL259      0.2260
     70  O        -46.7300   32.2880   -7.4700 O.2   259  VAL259     -0.2867
     71  CB       -43.7360   32.5170   -8.1130 C.3   259  VAL259      0.0252
     72  CG1      -43.2920   31.2710   -7.3750 C.3   259  VAL259      0.0019
     73  CG2      -42.5890   33.1590   -8.9180 C.3   259  VAL259      0.0019
     74  N        -43.0050   38.2340   -8.6010 N.3   295  VAL295     -0.1245
     75  CA       -41.6080   38.6060   -8.3630 C.3   295  VAL295      0.1561
     76  C        -41.1670   39.3940   -9.5850 C.2   295  VAL295      0.2260
     77  O        -40.8660   38.8040  -10.6510 O.2   295  VAL295     -0.2867
     78  CB       -40.7090   37.3880   -8.2120 C.3   295  VAL295      0.0252
     79  CG1      -39.2750   37.8190   -7.8810 C.3   295  VAL295      0.0019
     80  CG2      -41.2350   36.4440   -7.1330 C.3   295  VAL295      0.0019
     81  N        -36.4170   32.5900   -1.1320 N.3   303  PHE303     -0.1241
     82  CA       -37.5120   31.7100   -0.7610 C.3   303  PHE303      0.1605
     83  C        -36.9040   30.7410    0.2150 C.2   303  PHE303      0.2264
     84  O        -35.7840   30.2490   -0.0420 O.2   303  PHE303     -0.2867
     85  CB       -38.0670   30.9060   -1.9420 C.3   303  PHE303      0.0534
     86  CG       -38.7860   31.7290   -2.9820 C.ar  303  PHE303     -0.0203
     87  CD1      -40.1390   31.9650   -2.8820 C.ar  303  PHE303     -0.0042
     88  CD2      -38.1160   32.2010   -4.1040 C.ar  303  PHE303     -0.0042
     89  CE1      -40.8190   32.6740   -3.8550 C.ar  303  PHE303     -0.0003
     90  CE2      -38.7930   32.9060   -5.0840 C.ar  303  PHE303     -0.0003
     91  CZ       -40.1480   33.1490   -4.9670 C.ar  303  PHE303     -0.0000
     92  N        -42.4430   24.9860   -6.5680 N.3   313  MET313     -0.1230
     93  CA       -43.1240   26.1510   -7.1750 C.3   313  MET313      0.1702
     94  C        -42.8860   26.1710   -8.6760 C.2   313  MET313      0.2592
     95  O        -41.7840   25.8580   -9.1290 O.2   313  MET313     -0.2718
     96  CB       -42.6170   27.4730   -6.5880 C.3   313  MET313      0.0401
     97  CG       -42.6950   27.5700   -5.0480 C.3   313  MET313      0.0596
     98  SD       -41.9990   29.1130   -4.4310 S.3   313  MET313     -0.1393
     99  CE       -40.2760   28.6520   -4.4470 C.3   313  MET313      0.0692
    100  N        -43.9240   26.5260   -9.4340 N.am  314  VAL314     -0.1966
    101  CA       -43.8020   26.7640  -10.8570 C.3   314  VAL314      0.1727
    102  C        -43.8900   28.2730  -11.0440 C.2   314  VAL314      0.2616
    103  O        -44.5730   28.9470  -10.2740 O.2   314  VAL314     -0.2715
    104  CB       -44.8510   25.9980  -11.6840 C.3   314  VAL314      0.0290
    105  CG1      -46.2610   26.5190  -11.4330 C.3   314  VAL314      0.0023
    106  CG2      -44.5180   26.0680  -13.1720 C.3   314  VAL314      0.0023
    107  N        -43.1070   28.7980  -11.9970 N.am  315  GLY315     -0.1955
    108  CA       -43.0810   30.2320  -12.3130 C.3   315  GLY315      0.1869
    109  C        -43.2590   30.4890  -13.7780 C.2   315  GLY315      0.2309
    110  O        -42.5230   29.9200  -14.5780 O.2   315  GLY315     -0.2863
    111  N        -30.3400   34.7090  -13.9240 N.3   325  LYS325     -0.1245
    112  CA       -30.3630   34.7810  -12.4890 C.3   325  LYS325      0.1561
    113  C        -29.0090   35.1970  -11.9790 C.2   325  LYS325      0.2260
    114  O        -28.0410   34.4260  -12.0560 O.2   325  LYS325     -0.2867
    115  CB       -30.7730   33.4260  -11.9100 C.3   325  LYS325      0.0271
    116  CG       -32.2800   33.1880  -12.0930 C.3   325  LYS325      0.0035
    117  CD       -32.7840   31.9300  -11.3810 C.3   325  LYS325      0.0206
    118  CE       -34.3050   31.7940  -11.3390 C.3   325  LYS325      0.1093
    119  NZ       -34.9600   32.3690  -12.5200 N.3   325  LYS325     -0.1314
@<TRIPOS>BOND
     1    66    64    1
     2    64    65    1
     3    64    63    2
     4    12    13    1
     5    63    62    1
     6   110   109    2
     7    13    14    1
     8   111   112    1
     9   109   108    1
    10    62    61    1
    11    10    11   ar
    12    10     8   ar
    13    14    15    2
    14    14    16   am
    15    50    51    2
    16    50    49    1
    17   106   104    1
    18    11     9   ar
    19    54    53    2
    20    52    49    1
    21    52    53    1
    22    56    57    1
    23    16    17    1
    24     8     6   ar
    25    57    60    1
    26    57    58    1
    27     4     3    2
    28    61    60    1
    29    49    48    1
    30   119   118    1
    31   112   113    1
    32   112   115    1
    33    53    55   am
    34   108   107    1
    35    20    17    1
    36    20    21    1
    37   116   115    1
    38   116   117    1
    39     3     2    1
    40   114   113    2
    41   107   102   am
    42    58    59    2
    43     9     7   ar
    44   104   105    1
    45   104   101    1
    46    17    18    1
    47     6     7   ar
    48     6     5    1
    49   117   118    1
    50    23    21   ar
    51    23    25   ar
    52    21    22   ar
    53   102   101    1
    54   102   103    2
    55   101   100    1
    56    19    18    2
    57    77    76    2
    58     2     5    1
    59     2     1    1
    60    18    28   am
    61    25    26   ar
    62    22    24   ar
    63    67    68    1
    64    76    75    1
    65    26    24   ar
    66    26    27    1
    67   100    94   am
    68    28    29    1
    69    95    94    2
    70    68    69    1
    71    68    71    1
    72    73    71    1
    73    45    43   ar
    74    45    46   ar
    75    94    93    1
    76    74    75    1
    77    43    41   ar
    78    75    78    1
    79    29    32    1
    80    29    30    1
    81    69    70    2
    82    78    79    1
    83    78    80    1
    84    71    72    1
    85    47    46    1
    86    46    44   ar
    87    32    33    1
    88    35    34    1
    89    41    40    1
    90    41    42   ar
    91    40    37    1
    92    30    31    2
    93    93    96    1
    94    93    92    1
    95    38    37    1
    96    38    39    2
    97    96    97    1
    98    33    34    1
    99    44    42   ar
   100    37    36    1
   101    90    91   ar
   102    90    88   ar
   103    97    98    1
   104    91    89   ar
   105    99    98    1
   106    88    86   ar
   107    89    87   ar
   108    86    87   ar
   109    86    85    1
   110    85    82    1
   111    81    82    1
   112    82    83    1
   113    84    83    2
