@<TRIPOS>MOLECULE
tmp/5yjwA07.pdb
 163 158 0 0 0
SMALL
GASTEIGER

@<TRIPOS>ATOM
      1  N        -11.4590  -39.9650    2.5210 N.3    29  TRP29      -0.1241
      2  CA       -11.6540  -38.6940    1.8230 C.3    29  TRP29       0.1605
      3  C        -13.0020  -38.5820    1.1020 C.2    29  TRP29       0.2264
      4  O        -13.7070  -37.5870    1.2620 O.2    29  TRP29      -0.2867
      5  CB       -10.4940  -38.4240    0.8610 C.3    29  TRP29       0.0550
      6  CG        -9.3060  -37.8580    1.5540 C.ar   29  TRP29       0.0003
      7  CD1       -8.1400  -38.4990    1.8580 C.ar   29  TRP29       0.0946
      8  CD2       -9.1800  -36.5320    2.0540 C.ar   29  TRP29       0.0152
      9  NE1       -7.2840  -37.6390    2.5020 N.ar   29  TRP29      -0.2442
     10  CE2       -7.9000  -36.4220    2.6370 C.ar   29  TRP29       0.0810
     11  CE3      -10.0200  -35.4100    2.0440 C.ar   29  TRP29       0.0012
     12  CZ2       -7.4390  -35.2340    3.2150 C.ar   29  TRP29       0.0191
     13  CZ3       -9.5730  -34.2380    2.6270 C.ar   29  TRP29       0.0001
     14  CH2       -8.2890  -34.1570    3.2070 C.ar   29  TRP29       0.0015
     15  N         -2.5230  -36.9140    3.9190 N.3    58  PRO58      -0.2116
     16  CA        -1.3120  -36.1770    3.5130 C.3    58  PRO58       0.1372
     17  C         -0.2400  -35.9720    4.5890 C.2    58  PRO58       0.2244
     18  O          0.9170  -35.7170    4.2440 O.2    58  PRO58      -0.2868
     19  CB        -1.8690  -34.8280    3.0370 C.3    58  PRO58       0.0268
     20  CG        -3.2680  -35.1360    2.6280 C.3    58  PRO58       0.0207
     21  CD        -3.7340  -36.1120    3.6560 C.3    58  PRO58       0.0892
     22  N         -6.1640  -39.1490   -6.0580 N.3   340  THR340     -0.1203
     23  CA        -5.7500  -38.1610   -5.0720 C.3   340  THR340      0.1994
     24  C         -6.9160  -37.7650   -4.1700 C.2   340  THR340      0.2618
     25  O         -8.0850  -37.9240   -4.5290 O.2   340  THR340     -0.2717
     26  CB        -5.2080  -36.8890   -5.7460 C.3   340  THR340      0.1784
     27  OG1       -6.2720  -36.2250   -6.4280 O.3   340  THR340     -0.2211
     28  CG2       -4.0890  -37.2180   -6.7310 C.3   340  THR340      0.0376
     29  N         -6.5720  -37.2510   -2.9950 N.am  341  ALA341     -0.1965
     30  CA        -7.5520  -36.7270   -2.0510 C.3   341  ALA341      0.1728
     31  C         -8.3100  -35.5350   -2.6380 C.2   341  ALA341      0.2616
     32  O         -9.5040  -35.3820   -2.3980 O.2   341  ALA341     -0.2715
     33  CB        -6.8800  -36.3390   -0.7410 C.3   341  ALA341      0.0334
     34  N         -7.6050  -34.7130   -3.4140 N.am  342  GLN342     -0.1977
     35  CA        -8.2020  -33.5610   -4.1030 C.3   342  GLN342      0.1601
     36  C         -9.3450  -33.9970   -5.0260 C.2   342  GLN342      0.2287
     37  O        -10.4410  -33.4220   -4.9860 O.2   342  GLN342     -0.2864
     38  CB        -7.1260  -32.8230   -4.8990 C.3   342  GLN342      0.0394
     39  CG        -7.5400  -31.4640   -5.4200 C.3   342  GLN342      0.0908
     40  CD        -6.4600  -30.8550   -6.2980 C.2   342  GLN342      0.2608
     41  OE1       -5.3660  -30.5320   -5.8330 O.2   342  GLN342     -0.2717
     42  NE2       -6.7430  -30.7470   -7.5740 N.am  342  GLN342     -0.0878
     43  N        -12.3240  -35.3970   -2.8790 N.3   345  HIS345     -0.1241
     44  CA       -13.0570  -34.3090   -2.2390 C.3   345  HIS345      0.1621
     45  C        -13.9930  -33.5790   -3.2080 C.2   345  HIS345      0.2264
     46  O        -15.1500  -33.3000   -2.8690 O.2   345  HIS345     -0.2867
     47  CB       -12.0760  -33.3220   -1.6060 C.3   345  HIS345      0.0745
     48  CG       -12.7290  -32.1150   -1.0110 C.ar  345  HIS345      0.0817
     49  ND1      -13.2200  -32.0920    0.2760 N.ar  345  HIS345     -0.2268
     50  CD2      -12.9580  -30.8830   -1.5240 C.ar  345  HIS345      0.1154
     51  CE1      -13.7260  -30.8980    0.5310 C.ar  345  HIS345      0.1986
     52  NE2      -13.5770  -30.1450   -0.5430 N.ar  345  HIS345     -0.2212
     53  N        -11.5770  -29.6810  -11.2810 N.3   383  ASN383     -0.1240
     54  CA       -10.7620  -28.4750  -11.3410 C.3   383  ASN383      0.1653
     55  C         -9.4320  -28.7410  -10.6270 C.2   383  ASN383      0.2266
     56  O         -9.3740  -28.7500   -9.4000 O.2   383  ASN383     -0.2867
     57  CB       -11.5210  -27.3040  -10.6950 C.3   383  ASN383      0.1155
     58  CG       -10.7790  -25.9740  -10.7930 C.2   383  ASN383      0.2627
     59  OD1      -11.0370  -25.0520  -10.0170 O.2   383  ASN383     -0.2716
     60  ND2       -9.8580  -25.8700  -11.7340 N.am  383  ASN383     -0.0877
     61  N         -6.3930  -27.9770   -8.8750 N.3   385  LEU385     -0.1231
     62  CA        -5.9190  -26.8600   -8.0660 C.3   385  LEU385      0.1693
     63  C         -4.4130  -26.8930   -7.7730 C.2   385  LEU385      0.2593
     64  O         -3.8910  -25.9890   -7.1130 O.2   385  LEU385     -0.2718
     65  CB        -6.6950  -26.8110   -6.7460 C.3   385  LEU385      0.0284
     66  CG        -8.2240  -26.7810   -6.8820 C.3   385  LEU385      0.0019
     67  CD1       -8.9220  -26.9900   -5.5460 C.3   385  LEU385      0.0001
     68  CD2       -8.6830  -25.4840   -7.5380 C.3   385  LEU385      0.0001
     69  N         -3.7280  -27.9280   -8.2550 N.am  386  GLY386     -0.1942
     70  CA        -2.2850  -28.0210   -8.1560 C.3   386  GLY386      0.2014
     71  C         -1.8120  -29.2190   -7.3600 C.2   386  GLY386      0.2639
     72  O         -2.5280  -30.2140   -7.2270 O.2   386  GLY386     -0.2714
     73  N         -0.5980  -29.1090   -6.8290 N.am  387  ALA387     -0.1963
     74  CA         0.0610  -30.2180   -6.1480 C.3   387  ALA387      0.1728
     75  C          1.0990  -29.6890   -5.1550 C.2   387  ALA387      0.2616
     76  O          1.6840  -28.6240   -5.3690 O.2   387  ALA387     -0.2715
     77  CB         0.7120  -31.1280   -7.1790 C.3   387  ALA387      0.0334
     78  N          1.2870  -30.4380   -4.0680 N.am  388  LEU388     -0.1977
     79  CA         2.2330  -30.1240   -3.0040 C.3   388  LEU388      0.1596
     80  C          3.0300  -31.3810   -2.6410 C.2   388  LEU388      0.2287
     81  O          2.5090  -32.4990   -2.7290 O.2   388  LEU388     -0.2864
     82  CB         1.4710  -29.6420   -1.7640 C.3   388  LEU388      0.0297
     83  CG         0.7060  -28.3120   -1.8820 C.3   388  LEU388      0.0022
     84  CD1       -0.4310  -28.1930   -0.8730 C.3   388  LEU388      0.0001
     85  CD2        1.6670  -27.1480   -1.7220 C.3   388  LEU388      0.0001
     86  N          0.2620  -24.1280   -7.6790 N.3   400  ILE400     -0.1231
     87  CA        -1.0460  -23.6840   -7.2390 C.3   400  ILE400      0.1692
     88  C         -1.7610  -23.1040   -8.4530 C.2   400  ILE400      0.2592
     89  O         -1.2400  -22.1980   -9.1120 O.2   400  ILE400     -0.2718
     90  CB        -0.9400  -22.6010   -6.1460 C.3   400  ILE400      0.0266
     91  CG1        0.0400  -23.0000   -5.0280 C.3   400  ILE400      0.0019
     92  CG2       -2.3080  -22.3060   -5.5620 C.3   400  ILE400      0.0020
     93  CD1       -0.3690  -24.2010   -4.2020 C.3   400  ILE400      0.0001
     94  N         -2.9560  -23.6130   -8.7360 N.am  401  ARG401     -0.1966
     95  CA        -3.6630  -23.2560   -9.9580 C.3   401  ARG401      0.1729
     96  C         -5.1770  -23.3310   -9.8050 C.2   401  ARG401      0.2616
     97  O         -5.6910  -23.7690   -8.7800 O.2   401  ARG401     -0.2715
     98  CB        -3.1840  -24.1500  -11.1120 C.3   401  ARG401      0.0348
     99  CG        -3.1780  -25.6390  -10.8130 C.3   401  ARG401      0.0492
    100  CD        -3.0160  -26.4760  -12.0750 C.3   401  ARG401      0.2205
    101  NE        -1.6120  -26.6370  -12.4620 N.pl3 401  ARG401     -0.0865
    102  CZ        -0.8670  -27.7410  -12.3080 C.cat 401  ARG401      0.5346
    103  NH1       -1.3520  -28.8630  -11.7620 N.pl3 401  ARG401      0.1354
    104  NH2        0.4010  -27.7250  -12.7170 N.pl3 401  ARG401      0.1354
    105  N         -5.8730  -22.8470  -10.8270 N.am  402  SER402     -0.1950
    106  CA        -7.3200  -23.0000  -10.9520 C.3   402  SER402      0.1924
    107  C         -7.6930  -22.7140  -12.4040 C.2   402  SER402      0.2314
    108  O         -7.6230  -21.5690  -12.8490 O.2   402  SER402     -0.2863
    109  CB        -8.0640  -22.0530  -10.0040 C.3   402  SER402      0.2116
    110  OG        -9.4520  -22.3360   -9.9960 O.3   402  SER402     -0.2180
    111  N         -1.3250  -19.7610  -10.3090 N.3   407  PHE407     -0.1241
    112  CA        -1.0750  -18.6380   -9.3990 C.3   407  PHE407      0.1605
    113  C          0.3440  -18.6520   -8.8290 C.2   407  PHE407      0.2264
    114  O          0.9510  -17.5960   -8.6530 O.2   407  PHE407     -0.2867
    115  CB        -2.0650  -18.6390   -8.2260 C.3   407  PHE407      0.0534
    116  CG        -3.5150  -18.6530   -8.6360 C.ar  407  PHE407     -0.0203
    117  CD1       -4.0030  -17.7640   -9.5960 C.ar  407  PHE407     -0.0042
    118  CD2       -4.4070  -19.5460   -8.0400 C.ar  407  PHE407     -0.0042
    119  CE1       -5.3440  -17.7790   -9.9610 C.ar  407  PHE407     -0.0003
    120  CE2       -5.7470  -19.5610   -8.4020 C.ar  407  PHE407     -0.0003
    121  CZ        -6.2160  -18.6770   -9.3650 C.ar  407  PHE407     -0.0000
    122  N         -1.1690  -24.4200    3.8690 N.3   422  LEU422     -0.1231
    123  CA        -2.1680  -25.0610    3.0120 C.3   422  LEU422      0.1693
    124  C         -2.6860  -26.3730    3.5910 C.2   422  LEU422      0.2592
    125  O         -3.8910  -26.6310    3.5430 O.2   422  LEU422     -0.2718
    126  CB        -1.6270  -25.2900    1.5940 C.3   422  LEU422      0.0284
    127  CG        -1.9640  -24.2700    0.4880 C.3   422  LEU422      0.0019
    128  CD1       -2.2400  -22.8570    0.9850 C.3   422  LEU422      0.0001
    129  CD2       -0.8720  -24.2790   -0.5710 C.3   422  LEU422      0.0001
    130  N         -1.7760  -27.1960    4.1140 N.am  423  TYR423     -0.1976
    131  CA        -2.1430  -28.4650    4.7440 C.3   423  TYR423      0.1639
    132  C         -3.0470  -28.2480    5.9570 C.2   423  TYR423      0.2290
    133  O         -4.0550  -28.9390    6.0930 O.2   423  TYR423     -0.2864
    134  CB        -0.8940  -29.2620    5.1330 C.3   423  TYR423      0.0560
    135  CG        -0.3800  -30.1790    4.0370 C.ar  423  TYR423     -0.0198
    136  CD1       -0.3380  -29.7660    2.7150 C.ar  423  TYR423     -0.0009
    137  CD2        0.0730  -31.4580    4.3340 C.ar  423  TYR423     -0.0009
    138  CE1        0.1330  -30.6050    1.7190 C.ar  423  TYR423      0.0417
    139  CE2        0.5440  -32.3010    3.3450 C.ar  423  TYR423      0.0417
    140  CZ         0.5730  -31.8710    2.0390 C.ar  423  TYR423      0.1957
    141  OH         1.0480  -32.7050    1.0460 O.3   423  TYR423     -0.2866
    142  N         -5.0860  -25.6950    6.4710 N.3   425  SER425     -0.1202
    143  CA        -6.3910  -25.2520    5.9650 C.3   425  SER425      0.2020
    144  C         -7.2350  -26.3850    5.3760 C.2   425  SER425      0.2618
    145  O         -8.4580  -26.2850    5.3390 O.2   425  SER425     -0.2717
    146  CB        -6.2250  -24.1390    4.9190 C.3   425  SER425      0.2103
    147  OG        -5.7070  -24.6460    3.6990 O.3   425  SER425     -0.2182
    148  N         -6.5820  -27.4490    4.9170 N.am  426  MET426     -0.1979
    149  CA        -7.2630  -28.5870    4.3040 C.3   426  MET426      0.1605
    150  C         -7.7000  -29.6980    5.2700 C.2   426  MET426      0.2287
    151  O         -8.4640  -30.5800    4.8760 O.2   426  MET426     -0.2864
    152  CB        -6.3720  -29.1730    3.2140 C.3   426  MET426      0.0413
    153  CG        -6.1670  -28.2270    2.0310 C.3   426  MET426      0.0598
    154  SD        -4.7000  -28.5170    1.0160 S.3   426  MET426     -0.1393
    155  CE        -4.4280  -30.2430    1.2940 C.3   426  MET426      0.0692
    156  N         -9.8990  -31.4780    7.9640 N.3   428  LEU428     -0.1245
    157  CA       -11.3670  -31.4090    7.9740 C.3   428  LEU428      0.1561
    158  C        -11.9950  -31.0690    9.3230 C.2   428  LEU428      0.2260
    159  O        -13.1850  -30.7480    9.3680 O.2   428  LEU428     -0.2867
    160  CB       -11.9780  -32.7160    7.4370 C.3   428  LEU428      0.0270
    161  CG       -11.6020  -33.1550    6.0150 C.3   428  LEU428      0.0019
    162  CD1      -12.4280  -34.3690    5.6150 C.3   428  LEU428      0.0001
    163  CD2      -11.7750  -32.0420    4.9840 C.3   428  LEU428      0.0001
@<TRIPOS>BOND
     1   108   107    2
     2   104   102    1
     3   101   102    2
     4   101   100    1
     5   107   106    1
     6   102   103    1
     7   100    99    1
     8    60    58   am
     9    54    53    1
    10    54    57    1
    11    54    55    1
    12    98    99    1
    13    98    95    1
    14   106   105    1
    15   106   109    1
    16   105    96   am
    17    58    57    1
    18    58    59    2
    19    55    56    2
    20   111   112    1
    21   109   110    1
    22   119   117   ar
    23   119   121   ar
    24    95    96    1
    25    95    94    1
    26    96    97    2
    27   117   116   ar
    28   112   113    1
    29   112   115    1
    30   121   120   ar
    31    89    88    2
    32    61    62    1
    33   113   114    2
    34    94    88   am
    35   116   115    1
    36   116   118   ar
    37    88    87    1
    38   120   118   ar
    39    69    70    1
    40    69    63   am
    41    70    71    1
    42    62    63    1
    43    62    65    1
    44    63    64    2
    45    86    87    1
    46    42    40   am
    47    68    66    1
    48    71    72    2
    49    71    73   am
    50    87    90    1
    51    77    74    1
    52    66    65    1
    53    66    67    1
    54    73    74    1
    55    28    26    1
    56    27    26    1
    57    40    41    2
    58    40    39    1
    59    74    75    1
    60    90    92    1
    61    90    91    1
    62    22    23    1
    63    26    23    1
    64    39    38    1
    65    76    75    2
    66    75    78   am
    67    23    24    1
    68    91    93    1
    69    36    37    2
    70    36    35    1
    71    38    35    1
    72    25    24    2
    73    24    29   am
    74    35    34    1
    75    78    79    1
    76    34    31   am
    77    45    46    2
    78    45    44    1
    79    79    80    1
    80    79    82    1
    81    29    30    1
    82    43    44    1
    83    81    80    2
    84    31    32    2
    85    31    30    1
    86    44    47    1
    87    30    33    1
    88    83    82    1
    89    83    85    1
    90    83    84    1
    91    47    48    1
    92    50    48   ar
    93    50    52   ar
    94    48    49   ar
    95   129   127    1
    96    52    51   ar
    97    49    51   ar
    98   127   128    1
    99   127   126    1
   100     5     6    1
   101     5     2    1
   102   154   155    1
   103   154   153    1
   104   141   140    1
   105     3     4    2
   106     3     2    1
   107     6     7   ar
   108     6     8   ar
   109   126   123    1
   110   138   140   ar
   111   138   136   ar
   112     2     1    1
   113     7     9   ar
   114   153   152    1
   115   140   139   ar
   116    11     8   ar
   117    11    13   ar
   118     8    10   ar
   119     9    10   ar
   120    13    14   ar
   121    20    19    1
   122    20    21    1
   123    10    12   ar
   124   136   135   ar
   125   123   124    1
   126   123   122    1
   127    19    16    1
   128    14    12   ar
   129   152   149    1
   130   139   137   ar
   131    16    15    1
   132    16    17    1
   133   125   124    2
   134   124   130   am
   135    21    15    1
   136   147   146    1
   137   135   137   ar
   138   135   134    1
   139   130   131    1
   140    18    17    2
   141   149   148    1
   142   149   150    1
   143   131   134    1
   144   131   132    1
   145   151   150    2
   146   148   144   am
   147   146   143    1
   148   163   161    1
   149   145   144    2
   150   144   143    1
   151   162   161    1
   152   132   133    2
   153   143   142    1
   154   161   160    1
   155   160   157    1
   156   156   157    1
   157   157   158    1
   158   158   159    2
