@<TRIPOS>MOLECULE
tmp/5yjwA12.pdb
 103 101 0 0 0
SMALL
GASTEIGER

@<TRIPOS>ATOM
      1  N        -40.0100  -45.2290    6.4780 N.3    17  SER17      -0.1202
      2  CA       -39.6670  -43.8490    6.1460 C.3    17  SER17       0.2020
      3  C        -39.9340  -43.5300    4.6780 C.2    17  SER17       0.2619
      4  O        -40.0000  -44.4210    3.8290 O.2    17  SER17      -0.2717
      5  CB       -38.1960  -43.5660    6.4700 C.3    17  SER17       0.2103
      6  OG       -37.8440  -42.2250    6.1580 O.3    17  SER17      -0.2182
      7  N        -40.0710  -42.2360    4.4070 N.am   18  ASP18      -0.1959
      8  CA       -40.3380  -41.7110    3.0670 C.3    18  ASP18       0.1840
      9  C        -39.0480  -41.4890    2.2510 C.2    18  ASP18       0.2622
     10  O        -39.0690  -41.4990    1.0160 O.2    18  ASP18      -0.2715
     11  CB       -41.0910  -40.3760    3.2130 C.3    18  ASP18       0.1450
     12  CG       -41.7040  -39.8900    1.9150 C.2    18  ASP18       0.3671
     13  OD1      -42.1150  -40.7270    1.0880 O.co2  18  ASP18      -0.2456
     14  OD2      -41.7840  -38.6590    1.7180 O.co2  18  ASP18      -0.2456
     15  N        -37.9290  -41.3100    2.9460 N.am   19  LYS19      -0.1964
     16  CA       -36.6970  -40.8280    2.3300 C.3    19  LYS19       0.1713
     17  C        -35.8760  -41.9900    1.7710 C.2    19  LYS19       0.2458
     18  O        -35.8560  -43.0720    2.3650 O.2    19  LYS19      -0.2730
     19  CB       -35.8620  -40.0800    3.3620 C.3    19  LYS19       0.0311
     20  CG       -36.5960  -38.9420    4.0610 C.3    19  LYS19       0.0038
     21  CD       -35.9410  -38.6300    5.3880 C.3    19  LYS19       0.0206
     22  CE       -36.7180  -37.5860    6.1640 C.3    19  LYS19       0.1093
     23  NZ       -35.8840  -37.0400    7.2690 N.3    19  LYS19      -0.1314
     24  N        -35.1820  -41.7750    0.6370 N.am   20  PRO20      -0.2727
     25  CA       -34.3050  -42.8480    0.1670 C.3    20  PRO20       0.1402
     26  C        -33.1720  -43.1420    1.1510 C.2    20  PRO20       0.2269
     27  O        -32.6680  -42.2350    1.8140 O.2    20  PRO20      -0.2865
     28  CB       -33.7580  -42.3140   -1.1610 C.3    20  PRO20       0.0296
     29  CG       -34.7410  -41.2750   -1.5910 C.3    20  PRO20       0.0237
     30  CD       -35.2290  -40.6540   -0.3200 C.3    20  PRO20       0.0939
     31  N        -30.0620  -54.9220   -4.1110 N.3   103  ASN103     -0.1240
     32  CA       -29.7970  -53.6280   -3.4870 C.3   103  ASN103      0.1653
     33  C        -29.3980  -53.7350   -2.0120 C.2   103  ASN103      0.2266
     34  O        -29.9530  -53.0540   -1.1500 O.2   103  ASN103     -0.2867
     35  CB       -30.9890  -52.6820   -3.6740 C.3   103  ASN103      0.1155
     36  CG       -31.3120  -52.4170   -5.1380 C.2   103  ASN103      0.2627
     37  OD1      -32.4620  -52.5490   -5.5630 O.2   103  ASN103     -0.2716
     38  ND2      -30.3120  -52.0330   -5.9100 N.am  103  ASN103     -0.0877
     39  N        -31.1490  -47.7150   -1.1690 N.3   118  ASP118     -0.1225
     40  CA       -31.7670  -47.2000   -2.3850 C.3   118  ASP118      0.1805
     41  C        -30.7030  -46.5740   -3.2820 C.2   118  ASP118      0.2597
     42  O        -30.7730  -46.7190   -4.4960 O.2   118  ASP118     -0.2718
     43  CB       -32.8480  -46.1830   -2.0360 C.3   118  ASP118      0.1424
     44  CG       -33.9590  -46.7900   -1.2010 C.2   118  ASP118      0.3668
     45  OD1      -34.4410  -47.8900   -1.5450 O.co2 118  ASP118     -0.2456
     46  OD2      -34.3440  -46.1720   -0.1930 O.co2 118  ASP118     -0.2456
     47  N        -29.7320  -45.8830   -2.6750 N.am  119  TYR119     -0.1976
     48  CA       -28.5330  -45.3990   -3.3610 C.3   119  TYR119      0.1639
     49  C        -27.2850  -45.8530   -2.6030 C.2   119  TYR119      0.2290
     50  O        -27.2560  -45.8060   -1.3750 O.2   119  TYR119     -0.2864
     51  CB       -28.5460  -43.8760   -3.4510 C.3   119  TYR119      0.0560
     52  CG       -29.6670  -43.3210   -4.2960 C.ar  119  TYR119     -0.0198
     53  CD1      -29.6470  -43.4580   -5.6780 C.ar  119  TYR119     -0.0009
     54  CD2      -30.7420  -42.6440   -3.7140 C.ar  119  TYR119     -0.0009
     55  CE1      -30.6660  -42.9550   -6.4650 C.ar  119  TYR119      0.0417
     56  CE2      -31.7690  -42.1300   -4.4930 C.ar  119  TYR119      0.0417
     57  CZ       -31.7250  -42.2920   -5.8670 C.ar  119  TYR119      0.1957
     58  OH       -32.7240  -41.7940   -6.6600 O.3   119  TYR119     -0.2866
     59  N        -28.0930  -48.2180  -12.1520 N.3   324  ASN324     -0.1225
     60  CA       -28.9700  -47.0530  -11.9370 C.3   324  ASN324      0.1785
     61  C        -28.7480  -46.3500  -10.6040 C.2   324  ASN324      0.2597
     62  O        -29.0660  -45.1630  -10.4750 O.2   324  ASN324     -0.2718
     63  CB       -30.4570  -47.4510  -11.9850 C.3   324  ASN324      0.1169
     64  CG       -30.9720  -47.6490  -13.3950 C.2   324  ASN324      0.2627
     65  OD1      -30.6990  -46.8470  -14.2870 O.2   324  ASN324     -0.2716
     66  ND2      -31.7470  -48.7090  -13.5990 N.am  324  ASN324     -0.0877
     67  N        -28.2300  -47.0720   -9.6130 N.am  325  ASN325     -0.1974
     68  CA       -28.2300  -46.5710   -8.2320 C.3   325  ASN325      0.1688
     69  C        -26.9470  -46.7390   -7.4030 C.2   325  ASN325      0.2292
     70  O        -26.9610  -46.4560   -6.2050 O.2   325  ASN325     -0.2864
     71  CB       -29.4720  -47.0910   -7.4790 C.3   325  ASN325      0.1181
     72  CG       -29.4400  -48.5860   -7.1800 C.2   325  ASN325      0.2629
     73  OD1      -30.1840  -49.0530   -6.3120 O.2   325  ASN325     -0.2716
     74  ND2      -28.6150  -49.3390   -7.8820 N.am  325  ASN325     -0.0877
     75  N        -36.4690  -39.6400   -8.9780 N.3   364  PHE364     -0.1227
     76  CA       -35.3580  -40.1060   -8.1270 C.3   364  PHE364      0.1736
     77  C        -35.8060  -40.6170   -6.7440 C.2   364  PHE364      0.2595
     78  O        -35.0790  -41.3800   -6.1010 O.2   364  PHE364     -0.2718
     79  CB       -34.3250  -38.9900   -7.9190 C.3   364  PHE364      0.0547
     80  CG       -33.4930  -38.6840   -9.1320 C.ar  364  PHE364     -0.0202
     81  CD1      -32.4410  -39.5180   -9.4960 C.ar  364  PHE364     -0.0042
     82  CD2      -33.7360  -37.5450   -9.8920 C.ar  364  PHE364     -0.0042
     83  CE1      -31.6600  -39.2320  -10.6070 C.ar  364  PHE364     -0.0003
     84  CE2      -32.9570  -37.2520  -11.0040 C.ar  364  PHE364     -0.0003
     85  CZ       -31.9150  -38.0960  -11.3600 C.ar  364  PHE364     -0.0000
     86  N        -36.9830  -40.1880   -6.2830 N.am  365  GLN365     -0.1965
     87  CA       -37.4600  -40.4870   -4.9240 C.3   365  GLN365      0.1733
     88  C        -38.4990  -41.6210   -4.8730 C.2   365  GLN365      0.2616
     89  O        -39.3330  -41.6630   -3.9630 O.2   365  GLN365     -0.2715
     90  CB       -38.0240  -39.2050   -4.2830 C.3   365  GLN365      0.0408
     91  CG       -37.0830  -38.0000   -4.3290 C.3   365  GLN365      0.0908
     92  CD       -35.8000  -38.2030   -3.5330 C.2   365  GLN365      0.2608
     93  OE1      -34.7020  -38.2660   -4.0980 O.2   365  GLN365     -0.2717
     94  NE2      -35.9280  -38.2830   -2.2120 N.am  365  GLN365     -0.0878
     95  N        -38.4420  -42.5380   -5.8400 N.am  366  LYS366     -0.1977
     96  CA       -39.2880  -43.7380   -5.8410 C.3   366  LYS366      0.1596
     97  C        -38.6000  -44.8820   -6.5850 C.2   366  LYS366      0.2287
     98  O        -37.6560  -44.6560   -7.3440 O.2   366  LYS366     -0.2864
     99  CB       -40.6610  -43.4370   -6.4610 C.3   366  LYS366      0.0298
    100  CG       -40.6380  -43.0610   -7.9370 C.3   366  LYS366      0.0038
    101  CD       -42.0320  -42.7360   -8.4450 C.3   366  LYS366      0.0206
    102  CE       -42.0020  -42.3110   -9.9030 C.3   366  LYS366      0.1093
    103  NZ       -43.3310  -41.8220  -10.3630 N.3   366  LYS366     -0.1314
@<TRIPOS>BOND
     1    65    64    2
     2    66    64   am
     3    64    63    1
     4    59    60    1
     5    63    60    1
     6    60    61    1
     7    85    84   ar
     8    85    83   ar
     9    84    82   ar
    10    83    81   ar
    11    61    62    2
    12    61    67   am
    13   103   102    1
    14   102   101    1
    15    82    80   ar
    16    67    68    1
    17    81    80   ar
    18    80    79    1
    19    75    76    1
    20   101   100    1
    21    68    71    1
    22    68    69    1
    23    76    79    1
    24    76    77    1
    25   100    99    1
    26    74    72   am
    27    71    72    1
    28    69    70    2
    29    98    97    2
    30    72    73    2
    31    77    86   am
    32    77    78    2
    33    58    57    1
    34    97    96    1
    35    55    57   ar
    36    55    53   ar
    37    99    96    1
    38    86    87    1
    39    38    36   am
    40    57    56   ar
    41    96    95    1
    42    95    88   am
    43    53    52   ar
    44    37    36    2
    45    36    35    1
    46    87    88    1
    47    87    90    1
    48    88    89    2
    49    42    41    2
    50    56    54   ar
    51    91    90    1
    52    91    92    1
    53    52    54   ar
    54    52    51    1
    55    31    32    1
    56    93    92    2
    57    35    32    1
    58    92    94   am
    59    32    33    1
    60    51    48    1
    61    48    47    1
    62    48    49    1
    63    41    47   am
    64    41    40    1
    65    49    50    2
    66    40    43    1
    67    40    39    1
    68    43    44    1
    69    33    34    2
    70    29    28    1
    71    29    30    1
    72    45    44   ar
    73    44    46   ar
    74    28    25    1
    75    30    24    1
    76    25    24    1
    77    25    26    1
    78    24    17   am
    79    10     9    2
    80    13    12   ar
    81    26    27    2
    82    14    12   ar
    83    17    16    1
    84    17    18    2
    85    12    11    1
    86     9    15   am
    87     9     8    1
    88    16    15    1
    89    16    19    1
    90     8    11    1
    91     8     7    1
    92    19    20    1
    93     4     3    2
    94    20    21    1
    95     7     3   am
    96     3     2    1
    97    21    22    1
    98     2     5    1
    99     2     1    1
   100     6     5    1
   101    22    23    1
