@<TRIPOS>MOLECULE
tmp/5yjwA00.pdb
 86 81 0 0 0
SMALL
GASTEIGER

@<TRIPOS>ATOM
      1  N        -14.7180  -50.3360    8.2330 N.3    50  PRO50      -0.2116
      2  CA       -14.0420  -50.9720    9.3640 C.3    50  PRO50       0.1372
      3  C        -13.2520  -49.9990   10.2440 C.2    50  PRO50       0.2244
      4  O        -12.8200  -50.3880   11.3240 O.2    50  PRO50      -0.2868
      5  CB       -13.0930  -51.9650    8.6810 C.3    50  PRO50       0.0268
      6  CG       -12.7660  -51.3080    7.3880 C.3    50  PRO50       0.0207
      7  CD       -14.0570  -50.6690    6.9550 C.3    50  PRO50       0.0892
      8  N        -16.6570  -54.2430    7.4240 N.3    94  GLU94      -0.1231
      9  CA       -16.2420  -54.1010    6.0340 C.3    94  GLU94       0.1699
     10  C        -17.3120  -54.6840    5.1150 C.2    94  GLU94       0.2592
     11  O        -17.9110  -55.7150    5.4190 O.2    94  GLU94      -0.2718
     12  CB       -14.8480  -54.6890    5.7970 C.3    94  GLU94       0.0402
     13  CG       -14.7160  -56.1950    5.8440 C.3    94  GLU94       0.1161
     14  CD       -13.3150  -56.6430    5.4640 C.2    94  GLU94       0.3649
     15  OE1      -12.3630  -56.3290    6.2080 O.co2  94  GLU94      -0.2457
     16  OE2      -13.1650  -57.3020    4.4160 O.co2  94  GLU94      -0.2457
     17  N        -17.5790  -53.9840    4.0170 N.am   95  ALA95      -0.1966
     18  CA       -18.3980  -54.5210    2.9360 C.3    95  ALA95       0.1728
     19  C        -17.6480  -55.6800    2.3050 C.2    95  ALA95       0.2616
     20  O        -16.5190  -55.5020    1.8500 O.2    95  ALA95      -0.2715
     21  CB       -18.6590  -53.4540    1.8930 C.3    95  ALA95       0.0334
     22  N        -18.2530  -56.8640    2.3160 N.am   96  THR96      -0.1951
     23  CA       -17.6500  -58.0510    1.7040 C.3    96  THR96       0.1897
     24  C        -18.2530  -58.3940    0.3430 C.2    96  THR96       0.2313
     25  O        -17.6010  -59.0430   -0.4650 O.2    96  THR96      -0.2863
     26  CB       -17.7510  -59.2740    2.6350 C.3    96  THR96       0.1794
     27  OG1      -19.1200  -59.5040    2.9790 O.3    96  THR96      -0.2208
     28  CG2      -16.9500  -59.0350    3.8990 C.3    96  THR96       0.0378
     29  N        -14.6890  -57.8540   11.5860 N.3   110  LEU110     -0.1245
     30  CA       -13.4820  -58.0670   12.3770 C.3   110  LEU110      0.1561
     31  C        -13.7720  -58.2190   13.8890 C.2   110  LEU110      0.2260
     32  O        -13.3130  -59.1790   14.5170 O.2   110  LEU110     -0.2867
     33  CB       -12.4950  -56.8900   12.1510 C.3   110  LEU110      0.0270
     34  CG       -12.5350  -55.8850   10.9610 C.3   110  LEU110      0.0019
     35  CD1      -12.2900  -56.5150    9.5880 C.3   110  LEU110      0.0001
     36  CD2      -13.7970  -55.0050   10.9350 C.3   110  LEU110      0.0001
     37  N        -14.5060  -47.0090   -0.8180 N.3   124  VAL124     -0.1245
     38  CA       -13.6330  -47.8910   -0.0280 C.3   124  VAL124      0.1561
     39  C        -12.1400  -47.7060   -0.3290 C.2   124  VAL124      0.2260
     40  O        -11.2940  -48.3200    0.3160 O.2   124  VAL124     -0.2867
     41  CB       -14.0150  -49.3950   -0.1750 C.3   124  VAL124      0.0252
     42  CG1      -15.4830  -49.6070    0.1740 C.3   124  VAL124      0.0019
     43  CG2      -13.7100  -49.9470   -1.5620 C.3   124  VAL124      0.0019
     44  N         -6.0570  -50.4500   -2.3130 N.3   127  GLU127     -0.1245
     45  CA        -5.0000  -50.9880   -1.4590 C.3   127  GLU127      0.1567
     46  C         -3.6430  -50.8470   -2.1500 C.2   127  GLU127      0.2260
     47  O         -3.5910  -50.6600   -3.3660 O.2   127  GLU127     -0.2867
     48  CB        -5.2900  -52.4390   -1.0490 C.3   127  GLU127      0.0388
     49  CG        -5.4350  -53.4420   -2.1760 C.3   127  GLU127      0.1160
     50  CD        -5.6590  -54.8480   -1.6540 C.2   127  GLU127      0.3649
     51  OE1       -6.7950  -55.1670   -1.2620 O.co2 127  GLU127     -0.2457
     52  OE2       -4.6920  -55.6380   -1.6430 O.co2 127  GLU127     -0.2457
     53  N         -2.2180  -46.6950    6.5310 N.3   145  GLU145     -0.1245
     54  CA        -3.1120  -46.6000    7.6750 C.3   145  GLU145      0.1567
     55  C         -2.2760  -46.3470    8.9190 C.2   145  GLU145      0.2260
     56  O         -1.0670  -46.5650    8.9150 O.2   145  GLU145     -0.2867
     57  CB        -3.9020  -47.9030    7.8470 C.3   145  GLU145      0.0388
     58  CG        -4.7430  -48.3180    6.6440 C.3   145  GLU145      0.1160
     59  CD        -5.9520  -47.4300    6.3950 C.2   145  GLU145      0.3649
     60  OE1       -6.3720  -46.6610    7.2850 O.co2 145  GLU145     -0.2457
     61  OE2       -6.5020  -47.5060    5.2830 O.co2 145  GLU145     -0.2457
     62  N         -9.7060  -53.1900   -4.3960 N.3   292  ARG292     -0.1231
     63  CA        -9.9350  -54.0880   -3.2750 C.3   292  ARG292      0.1679
     64  C        -10.8320  -55.2580   -3.7130 C.2   292  ARG292      0.2434
     65  O        -11.5890  -55.1180   -4.6790 O.2   292  ARG292     -0.2733
     66  CB       -10.5840  -53.3370   -2.1180 C.3   292  ARG292      0.0321
     67  CG        -9.7360  -52.2140   -1.5480 C.3   292  ARG292      0.0489
     68  CD       -10.4800  -51.5880   -0.3860 C.3   292  ARG292      0.2205
     69  NE        -9.7820  -50.5040    0.2860 N.pl3 292  ARG292     -0.0865
     70  CZ        -8.7750  -50.6400    1.1480 C.cat 292  ARG292      0.5346
     71  NH1       -8.2600  -51.8290    1.4420 N.pl3 292  ARG292      0.1354
     72  NH2       -8.2620  -49.5580    1.7190 N.pl3 292  ARG292      0.1354
     73  N        -10.7720  -56.4000   -2.9950 N.am  293  PRO293     -0.2718
     74  CA       -11.5700  -57.5910   -3.3560 C.3   293  PRO293      0.1535
     75  C        -13.0770  -57.3600   -3.5210 C.2   293  PRO293      0.2598
     76  O        -13.6770  -57.8920   -4.4580 O.2   293  PRO293     -0.2715
     77  CB       -11.3100  -58.5560   -2.1970 C.3   293  PRO293      0.0310
     78  CG        -9.9630  -58.1750   -1.6910 C.3   293  PRO293      0.0237
     79  CD        -9.8490  -56.6870   -1.8790 C.3   293  PRO293      0.0939
     80  N        -13.6850  -56.5790   -2.6310 N.am  294  VAL294     -0.1978
     81  CA       -15.1140  -56.2550   -2.7590 C.3   294  VAL294      0.1596
     82  C        -15.4200  -55.5230   -4.0780 C.2   294  VAL294      0.2287
     83  O        -16.4880  -55.7080   -4.6540 O.2   294  VAL294     -0.2864
     84  CB       -15.6620  -55.4840   -1.5290 C.3   294  VAL294      0.0276
     85  CG1      -15.0420  -54.0970   -1.3920 C.3   294  VAL294      0.0022
     86  CG2      -17.1840  -55.3880   -1.5760 C.3   294  VAL294      0.0022
@<TRIPOS>BOND
     1    65    64    2
     2    83    82    2
     3    76    75    2
     4    62    63    1
     5    82    81    1
     6    64    63    1
     7    64    73   am
     8    75    74    1
     9    75    80   am
    10    47    46    2
    11    74    73    1
    12    74    77    1
    13    63    66    1
    14    73    79    1
    15    81    80    1
    16    81    84    1
    17    44    45    1
    18    77    78    1
    19    49    50    1
    20    49    48    1
    21    46    45    1
    22    66    67    1
    23    79    78    1
    24    50    52   ar
    25    50    51   ar
    26    86    84    1
    27    43    41    1
    28    67    68    1
    29    84    85    1
    30    45    48    1
    31    37    38    1
    32    25    24    2
    33    68    69    1
    34    39    38    1
    35    39    40    2
    36    41    38    1
    37    41    42    1
    38    69    70    2
    39    24    23    1
    40    70    71    1
    41    70    72    1
    42    23    22    1
    43    23    26    1
    44    20    19    2
    45    21    18    1
    46    19    22   am
    47    19    18    1
    48    26    27    1
    49    26    28    1
    50    18    17    1
    51    17    10   am
    52    16    14   ar
    53    10    11    2
    54    10     9    1
    55    61    59   ar
    56    14    13    1
    57    14    15   ar
    58    12    13    1
    59    12     9    1
    60     9     8    1
    61    59    58    1
    62    59    60   ar
    63    53    54    1
    64    58    57    1
    65     7     6    1
    66     7     1    1
    67     6     5    1
    68    54    57    1
    69    54    55    1
    70     1     2    1
    71     5     2    1
    72    56    55    2
    73     2     3    1
    74    35    34    1
    75     3     4    2
    76    36    34    1
    77    34    33    1
    78    29    30    1
    79    33    30    1
    80    30    31    1
    81    31    32    2
