@<TRIPOS>MOLECULE
tmp/5yjwA02.pdb
 91 87 0 0 0
SMALL
GASTEIGER

@<TRIPOS>ATOM
      1  N          2.3710  -55.6980   -7.0670 N.3   131  PHE131     -0.1241
      2  CA         2.6200  -56.1650   -8.4380 C.3   131  PHE131      0.1605
      3  C          3.0870  -57.6250   -8.4990 C.2   131  PHE131      0.2264
      4  O          3.8250  -58.0050   -9.4060 O.2   131  PHE131     -0.2867
      5  CB         3.6260  -55.2520   -9.1570 C.3   131  PHE131      0.0534
      6  CG         3.2130  -53.8090   -9.2110 C.ar  131  PHE131     -0.0203
      7  CD1        2.3230  -53.3660  -10.1830 C.ar  131  PHE131     -0.0042
      8  CD2        3.7260  -52.8860   -8.3060 C.ar  131  PHE131     -0.0042
      9  CE1        1.9420  -52.0290  -10.2430 C.ar  131  PHE131     -0.0003
     10  CE2        3.3450  -51.5500   -8.3610 C.ar  131  PHE131     -0.0003
     11  CZ         2.4550  -51.1200   -9.3320 C.ar  131  PHE131     -0.0000
     12  N          5.2710  -58.9980   -6.7110 N.3   133  ILE133     -0.1245
     13  CA         6.7050  -59.0890   -6.4760 C.3   133  ILE133      0.1561
     14  C          6.9130  -59.9020   -5.1990 C.2   133  ILE133      0.2260
     15  O          6.3370  -59.5630   -4.1630 O.2   133  ILE133     -0.2867
     16  CB         7.3530  -57.6920   -6.3670 C.3   133  ILE133      0.0252
     17  CG1        7.2710  -57.0000   -7.7360 C.3   133  ILE133      0.0019
     18  CG2        8.8000  -57.8010   -5.8930 C.3   133  ILE133      0.0019
     19  CD1        7.4450  -55.5030   -7.6950 C.3   133  ILE133      0.0001
     20  N         10.1650  -47.5440   -1.4980 N.3   182  VAL182     -0.1231
     21  CA         9.8080  -47.8040   -2.8890 C.3   182  VAL182      0.1692
     22  C          8.6080  -46.9370   -3.2370 C.2   182  VAL182      0.2592
     23  O          7.5580  -47.0330   -2.5960 O.2   182  VAL182     -0.2718
     24  CB         9.5000  -49.2940   -3.1380 C.3   182  VAL182      0.0266
     25  CG1        9.1870  -49.5440   -4.6090 C.3   182  VAL182      0.0020
     26  CG2       10.6760  -50.1540   -2.6970 C.3   182  VAL182      0.0020
     27  N          8.7810  -46.0910   -4.2500 N.am  183  GLY183     -0.1957
     28  CA         7.7380  -45.1910   -4.7300 C.3   183  GLY183      0.1869
     29  C          8.2340  -43.7610   -4.7140 C.2   183  GLY183      0.2309
     30  O          8.5880  -43.2390   -3.6600 O.2   183  GLY183     -0.2863
     31  N         13.5200  -45.6520   -4.2800 N.3   219  VAL219     -0.1231
     32  CA        13.5140  -46.4540   -5.5000 C.3   219  VAL219      0.1692
     33  C         12.2440  -46.1480   -6.2890 C.2   219  VAL219      0.2592
     34  O         11.1400  -46.2210   -5.7440 O.2   219  VAL219     -0.2718
     35  CB        13.5890  -47.9640   -5.1710 C.3   219  VAL219      0.0266
     36  CG1       13.6630  -48.8000   -6.4470 C.3   219  VAL219      0.0020
     37  CG2       14.7890  -48.2550   -4.2850 C.3   219  VAL219      0.0020
     38  N         12.4020  -45.8110   -7.5690 N.am  220  GLU220     -0.1966
     39  CA        11.2710  -45.4510   -8.4290 C.3   220  GLU220      0.1733
     40  C         11.4850  -45.9610   -9.8580 C.2   220  GLU220      0.2616
     41  O         12.5680  -45.7870  -10.4210 O.2   220  GLU220     -0.2715
     42  CB        11.0770  -43.9250   -8.4220 C.3   220  GLU220      0.0429
     43  CG        10.0430  -43.3810   -9.4090 C.3   220  GLU220      0.1163
     44  CD         8.7090  -44.1020   -9.3430 C.2   220  GLU220      0.3649
     45  OE1        8.2260  -44.3830   -8.2240 O.co2 220  GLU220     -0.2457
     46  OE2        8.1380  -44.3950  -10.4170 O.co2 220  GLU220     -0.2457
     47  N         10.4480  -46.5830  -10.4210 N.am  221  ALA221     -0.1977
     48  CA        10.5080  -47.2030  -11.7580 C.3   221  ALA221      0.1597
     49  C         10.5470  -46.2020  -12.9090 C.2   221  ALA221      0.2287
     50  O         11.1660  -46.4760  -13.9350 O.2   221  ALA221     -0.2864
     51  CB         9.3440  -48.1670  -11.9490 C.3   221  ALA221      0.0319
     52  N         14.2630  -47.8130  -11.8800 N.3   252  THR252     -0.1203
     53  CA        14.6150  -49.0040  -11.1090 C.3   252  THR252      0.1994
     54  C         13.3530  -49.6850  -10.5870 C.2   252  THR252      0.2618
     55  O         12.4610  -49.0260  -10.0290 O.2   252  THR252     -0.2717
     56  CB        15.5460  -48.6280   -9.9380 C.3   252  THR252      0.1784
     57  OG1       16.7130  -47.9780  -10.4520 O.3   252  THR252     -0.2211
     58  CG2       15.9830  -49.8510   -9.1490 C.3   252  THR252      0.0376
     59  N         13.2830  -51.0020  -10.7990 N.am  253  ALA253     -0.1965
     60  CA        12.2070  -51.8370  -10.2770 C.3   253  ALA253      0.1728
     61  C         12.7760  -52.8480   -9.2890 C.2   253  ALA253      0.2616
     62  O         13.8850  -53.3450   -9.4750 O.2   253  ALA253     -0.2715
     63  CB        11.4920  -52.5600  -11.4070 C.3   253  ALA253      0.0334
     64  N         12.0080  -53.1470   -8.2450 N.am  254  VAL254     -0.1977
     65  CA        12.3350  -54.1860   -7.2890 C.3   254  VAL254      0.1596
     66  C         11.8370  -55.4900   -7.8960 C.2   254  VAL254      0.2287
     67  O         10.6420  -55.6400   -8.1590 O.2   254  VAL254     -0.2864
     68  CB        11.6640  -53.9430   -5.9190 C.3   254  VAL254      0.0276
     69  CG1       11.9970  -55.0740   -4.9450 C.3   254  VAL254      0.0022
     70  CG2       12.0920  -52.5970   -5.3440 C.3   254  VAL254      0.0022
     71  N          6.9620  -49.7220    1.4390 N.3   285  TRP285     -0.1241
     72  CA         6.4380  -49.9300    0.1010 C.3   285  TRP285      0.1605
     73  C          5.3070  -48.9430   -0.1210 C.2   285  TRP285      0.2264
     74  O          4.2110  -49.1360    0.3850 O.2   285  TRP285     -0.2867
     75  CB         5.9500  -51.3690   -0.0560 C.3   285  TRP285      0.0550
     76  CG         5.6510  -51.7220   -1.4550 C.ar  285  TRP285      0.0003
     77  CD1        4.4620  -51.5720   -2.1020 C.ar  285  TRP285      0.0946
     78  CD2        6.5610  -52.2800   -2.4010 C.ar  285  TRP285      0.0152
     79  NE1        4.5700  -52.0140   -3.3970 N.ar  285  TRP285     -0.2442
     80  CE2        5.8490  -52.4520   -3.6100 C.ar  285  TRP285      0.0810
     81  CE3        7.9070  -52.6610   -2.3450 C.ar  285  TRP285      0.0012
     82  CZ2        6.4410  -52.9890   -4.7580 C.ar  285  TRP285      0.0191
     83  CZ3        8.4970  -53.2000   -3.4850 C.ar  285  TRP285      0.0001
     84  CH2        7.7620  -53.3570   -4.6760 C.ar  285  TRP285      0.0015
     85  N          3.9800  -47.4960   -3.1470 N.3   287  THR287     -0.1218
     86  CA         3.6280  -47.3400   -4.5400 C.3   287  THR287      0.1862
     87  C          2.4640  -48.2160   -4.9230 C.2   287  THR287      0.2287
     88  O          2.1860  -49.2470   -4.2780 O.2   287  THR287     -0.2866
     89  CB         4.8130  -47.6300   -5.4750 C.3   287  THR287      0.1770
     90  OG1        4.4620  -47.2290   -6.8040 O.3   287  THR287     -0.2211
     91  CG2        5.1880  -49.1150   -5.4720 C.3   287  THR287      0.0375
@<TRIPOS>BOND
     1    50    49    2
     2    49    48    1
     3    51    48    1
     4    52    53    1
     5    48    47    1
     6    63    60    1
     7    53    54    1
     8    53    56    1
     9    59    54   am
    10    59    60    1
    11    54    55    2
    12    57    56    1
    13    41    40    2
    14    47    40   am
    15    46    44   ar
    16    60    61    1
    17     9     7   ar
    18     9    11   ar
    19     7     6   ar
    20    56    58    1
    21    40    39    1
    22    62    61    2
    23    43    44    1
    24    43    42    1
    25     4     3    2
    26    44    45   ar
    27    11    10   ar
    28    61    64   am
    29     6     5    1
    30     6     8   ar
    31     5     2    1
    32     3     2    1
    33     2     1    1
    34    39    42    1
    35    39    38    1
    36    10     8   ar
    37    64    65    1
    38    67    66    2
    39    66    65    1
    40    17    19    1
    41    17    16    1
    42    38    33   am
    43    65    68    1
    44    90    89    1
    45    12    13    1
    46    13    16    1
    47    13    14    1
    48    36    35    1
    49    16    18    1
    50    33    34    2
    51    33    32    1
    52    68    70    1
    53    68    69    1
    54    32    35    1
    55    32    31    1
    56    89    91    1
    57    89    86    1
    58    14    15    2
    59    35    37    1
    60    87    86    1
    61    87    88    2
    62    82    84   ar
    63    82    80   ar
    64    28    29    1
    65    28    27    1
    66    29    30    2
    67    84    83   ar
    68    25    24    1
    69    86    85    1
    70    27    22   am
    71    80    79   ar
    72    80    78   ar
    73    83    81   ar
    74    79    77   ar
    75    22    21    1
    76    22    23    2
    77    24    21    1
    78    24    26    1
    79    21    20    1
    80    78    81   ar
    81    78    76   ar
    82    77    76   ar
    83    76    75    1
    84    73    72    1
    85    73    74    2
    86    75    72    1
    87    72    71    1
