@<TRIPOS>MOLECULE
tmp/5yjwA09.pdb
 139 137 0 0 0
SMALL
GASTEIGER

@<TRIPOS>ATOM
      1  N         12.9960  -48.3870   15.1610 N.3   157  ALA157     -0.1245
      2  CA        13.5110  -48.3040   16.5320 C.3   157  ALA157      0.1562
      3  C         14.2570  -49.5780   16.9270 C.2   157  ALA157      0.2260
      4  O         15.3550  -49.4960   17.4760 O.2   157  ALA157     -0.2867
      5  CB        12.3960  -48.0250   17.5280 C.3   157  ALA157      0.0290
      6  N         17.6470  -49.7260   15.0080 N.3   160  LEU160     -0.1231
      7  CA        18.6040  -48.8120   15.6300 C.3   160  LEU160      0.1693
      8  C         19.1850  -49.4050   16.9190 C.2   160  LEU160      0.2591
      9  O         20.3920  -49.3150   17.1600 O.2   160  LEU160     -0.2718
     10  CB        17.9560  -47.4570   15.9380 C.3   160  LEU160      0.0284
     11  CG        17.5940  -46.5530   14.7530 C.3   160  LEU160      0.0019
     12  CD1       16.6390  -45.4450   15.1690 C.3   160  LEU160      0.0001
     13  CD2       18.8440  -45.9580   14.1240 C.3   160  LEU160      0.0001
     14  N         18.3160  -50.0000   17.7340 N.am  161  GLU161     -0.1979
     15  CA        18.7230  -50.6890   18.9660 C.3   161  GLU161      0.1602
     16  C         19.7000  -51.8330   18.7120 C.2   161  GLU161      0.2287
     17  O         20.6910  -51.9690   19.4310 O.2   161  GLU161     -0.2864
     18  CB        17.5000  -51.2370   19.7070 C.3   161  GLU161      0.0415
     19  CG        16.6960  -50.1670   20.4270 C.3   161  GLU161      0.1163
     20  CD        15.4200  -50.6890   21.0600 C.2   161  GLU161      0.3649
     21  OE1       15.0390  -51.8540   20.8210 O.co2 161  GLU161     -0.2457
     22  OE2       14.7830  -49.9210   21.8010 O.co2 161  GLU161     -0.2457
     23  N         23.1180  -50.5330   17.2550 N.3   164  ASN164     -0.1240
     24  CA        23.9000  -49.9030   18.3190 C.3   164  ASN164      0.1653
     25  C         24.7510  -50.8810   19.1610 C.2   164  ASN164      0.2266
     26  O         25.6830  -50.4590   19.8410 O.2   164  ASN164     -0.2867
     27  CB        22.9610  -49.1100   19.2260 C.3   164  ASN164      0.1155
     28  CG        23.6900  -48.1710   20.1570 C.2   164  ASN164      0.2627
     29  OD1       24.5060  -47.3610   19.7230 O.2   164  ASN164     -0.2716
     30  ND2       23.3880  -48.2620   21.4460 N.am  164  ASN164     -0.0877
     31  N         14.3120  -36.9280   10.8250 N.3   198  TYR198     -0.1241
     32  CA        14.4880  -37.5450   12.1300 C.3   198  TYR198      0.1605
     33  C         15.9560  -37.9020   12.4010 C.2   198  TYR198      0.2264
     34  O         16.5010  -37.5710   13.4610 O.2   198  TYR198     -0.2867
     35  CB        13.6220  -38.8010   12.2990 C.3   198  TYR198      0.0534
     36  CG        13.9280  -39.4640   13.6190 C.ar  198  TYR198     -0.0201
     37  CD1       13.5530  -38.8590   14.8150 C.ar  198  TYR198     -0.0009
     38  CD2       14.6750  -40.6390   13.6810 C.ar  198  TYR198     -0.0009
     39  CE1       13.8730  -39.4280   16.0360 C.ar  198  TYR198      0.0417
     40  CE2       15.0040  -41.2150   14.9000 C.ar  198  TYR198      0.0417
     41  CZ        14.5960  -40.6040   16.0700 C.ar  198  TYR198      0.1957
     42  OH        14.9140  -41.1610   17.2790 O.3   198  TYR198     -0.2866
     43  N         18.1360  -37.7460   15.9160 N.3   203  LEU203     -0.1245
     44  CA        18.9820  -38.9060   16.2500 C.3   203  LEU203      0.1561
     45  C         20.4520  -38.5150   16.3720 C.2   203  LEU203      0.2260
     46  O         21.1390  -38.9350   17.3140 O.2   203  LEU203     -0.2867
     47  CB        18.8310  -40.0170   15.2030 C.3   203  LEU203      0.0270
     48  CG        19.5440  -41.3470   15.4820 C.3   203  LEU203      0.0019
     49  CD1       18.9420  -42.0370   16.7000 C.3   203  LEU203      0.0001
     50  CD2       19.4760  -42.2530   14.2660 C.3   203  LEU203      0.0001
     51  N         21.9070  -37.1480   19.7750 N.3   206  PHE206     -0.1227
     52  CA        22.2340  -38.0650   20.8850 C.3   206  PHE206      0.1736
     53  C         22.8790  -39.4080   20.4900 C.2   206  PHE206      0.2595
     54  O         23.5000  -40.0440   21.3390 O.2   206  PHE206     -0.2718
     55  CB        21.0240  -38.2610   21.8230 C.3   206  PHE206      0.0547
     56  CG        19.8620  -38.9580   21.1850 C.ar  206  PHE206     -0.0202
     57  CD1       18.9470  -38.2500   20.4190 C.ar  206  PHE206     -0.0042
     58  CD2       19.6770  -40.3280   21.3600 C.ar  206  PHE206     -0.0042
     59  CE1       17.8730  -38.8950   19.8250 C.ar  206  PHE206     -0.0003
     60  CE2       18.6060  -40.9780   20.7660 C.ar  206  PHE206     -0.0003
     61  CZ        17.7070  -40.2620   19.9920 C.ar  206  PHE206     -0.0000
     62  N         22.7610  -39.8350   19.2310 N.am  207  LEU207     -0.1980
     63  CA        23.4650  -41.0260   18.7360 C.3   207  LEU207      0.1596
     64  C         24.1350  -40.7080   17.3930 C.2   207  LEU207      0.2287
     65  O         23.7740  -41.2860   16.3620 O.2   207  LEU207     -0.2864
     66  CB        22.4960  -42.2040   18.6020 C.3   207  LEU207      0.0297
     67  CG        21.9910  -42.8100   19.9150 C.3   207  LEU207      0.0022
     68  CD1       20.7140  -43.6070   19.6890 C.3   207  LEU207      0.0001
     69  CD2       23.0590  -43.6860   20.5550 C.3   207  LEU207      0.0001
     70  N         11.7550  -28.6080   20.3800 N.3   446  PHE446     -0.1227
     71  CA        12.1540  -29.8950   20.9450 C.3   446  PHE446      0.1736
     72  C         12.2560  -30.9770   19.8780 C.2   446  PHE446      0.2595
     73  O         11.7370  -30.8350   18.7680 O.2   446  PHE446     -0.2718
     74  CB        11.1740  -30.3050   22.0520 C.3   446  PHE446      0.0547
     75  CG        11.0540  -29.2880   23.1590 C.ar  446  PHE446     -0.0202
     76  CD1       12.0850  -29.1220   24.0760 C.ar  446  PHE446     -0.0042
     77  CD2        9.9320  -28.4730   23.2640 C.ar  446  PHE446     -0.0042
     78  CE1       11.9920  -28.1750   25.0880 C.ar  446  PHE446     -0.0003
     79  CE2        9.8290  -27.5270   24.2730 C.ar  446  PHE446     -0.0003
     80  CZ        10.8610  -27.3780   25.1880 C.ar  446  PHE446     -0.0000
     81  N         12.9490  -32.0570   20.2230 N.am  447  LYS447     -0.1966
     82  CA        13.0670  -33.2020   19.3340 C.3   447  LYS447      0.1728
     83  C         11.7220  -33.9130   19.2470 C.2   447  LYS447      0.2616
     84  O         10.8630  -33.7600   20.1200 O.2   447  LYS447     -0.2715
     85  CB        14.1290  -34.1790   19.8320 C.3   447  LYS447      0.0311
     86  CG        15.5400  -33.6260   19.8070 C.3   447  LYS447      0.0038
     87  CD        16.5340  -34.6730   20.2810 C.3   447  LYS447      0.0206
     88  CE        17.8790  -34.0560   20.6280 C.3   447  LYS447      0.1093
     89  NZ        17.8240  -33.1240   21.7940 N.3   447  LYS447     -0.1314
     90  N         11.5490  -34.6810   18.1810 N.am  448  ARG448     -0.1963
     91  CA        10.3660  -35.5080   18.0040 C.3   448  ARG448      0.1729
     92  C         10.3460  -36.6040   19.0660 C.2   448  ARG448      0.2616
     93  O         11.3930  -37.0200   19.5580 O.2   448  ARG448     -0.2715
     94  CB        10.3800  -36.1610   16.6190 C.3   448  ARG448      0.0348
     95  CG        10.3270  -35.1900   15.4480 C.3   448  ARG448      0.0492
     96  CD        10.8090  -35.8380   14.1620 C.3   448  ARG448      0.2205
     97  NE        10.7420  -34.9100   13.0460 N.pl3 448  ARG448     -0.0865
     98  CZ        11.6240  -33.9450   12.7850 C.cat 448  ARG448      0.5346
     99  NH1       12.6840  -33.7430   13.5680 N.pl3 448  ARG448      0.1354
    100  NH2       11.4230  -33.1600   11.7380 N.pl3 448  ARG448      0.1354
    101  N          9.1540  -37.0660   19.4200 N.am  449  ASP449     -0.1957
    102  CA         9.0120  -38.2660   20.2370 C.3   449  ASP449      0.1840
    103  C          9.0740  -39.4640   19.3040 C.2   449  ASP449      0.2622
    104  O          8.2980  -39.5460   18.3530 O.2   449  ASP449     -0.2715
    105  CB         7.7010  -38.2520   21.0170 C.3   449  ASP449      0.1450
    106  CG         7.6930  -37.2210   22.1400 C.2   449  ASP449      0.3671
    107  OD1        8.7380  -36.5960   22.4340 O.co2 449  ASP449     -0.2456
    108  OD2        6.6310  -37.0340   22.7530 O.co2 449  ASP449     -0.2456
    109  N         10.0220  -40.3600   19.5530 N.am  450  PHE450     -0.1960
    110  CA        10.1790  -41.5650   18.7520 C.3   450  PHE450      0.1771
    111  C         10.2260  -42.7440   19.7060 C.2   450  PHE450      0.2620
    112  O         11.2960  -43.3020   19.9830 O.2   450  PHE450     -0.2715
    113  CB        11.4340  -41.4680   17.8800 C.3   450  PHE450      0.0574
    114  CG        11.5090  -42.5170   16.8060 C.ar  450  PHE450     -0.0200
    115  CD1       10.6370  -42.4790   15.7280 C.ar  450  PHE450     -0.0042
    116  CD2       12.4510  -43.5340   16.8600 C.ar  450  PHE450     -0.0042
    117  CE1       10.6960  -43.4400   14.7270 C.ar  450  PHE450     -0.0003
    118  CE2       12.5140  -44.4960   15.8670 C.ar  450  PHE450     -0.0003
    119  CZ        11.6390  -44.4490   14.7990 C.ar  450  PHE450     -0.0000
    120  N          9.0500  -43.0850   20.2300 N.am  451  PHE451     -0.1960
    121  CA         8.9000  -44.1230   21.2550 C.3   451  PHE451      0.1771
    122  C          8.3140  -45.3830   20.6320 C.2   451  PHE451      0.2619
    123  O          7.2340  -45.3300   20.0610 O.2   451  PHE451     -0.2715
    124  CB         7.9650  -43.6670   22.3820 C.3   451  PHE451      0.0574
    125  CG         8.3410  -42.3500   23.0240 C.ar  451  PHE451     -0.0200
    126  CD1        9.6720  -41.9580   23.1800 C.ar  451  PHE451     -0.0042
    127  CD2        7.3430  -41.5080   23.5060 C.ar  451  PHE451     -0.0042
    128  CE1        9.9850  -40.7410   23.7800 C.ar  451  PHE451     -0.0003
    129  CE2        7.6510  -40.2970   24.1060 C.ar  451  PHE451     -0.0003
    130  CZ         8.9710  -39.9140   24.2480 C.ar  451  PHE451     -0.0000
    131  N          9.0250  -46.5030   20.7650 N.am  452  LYS452     -0.1977
    132  CA         8.5630  -47.7950   20.2520 C.3   452  LYS452      0.1596
    133  C          7.2510  -48.2560   20.8930 C.2   452  LYS452      0.2287
    134  O          6.4220  -48.8780   20.2310 O.2   452  LYS452     -0.2864
    135  CB         9.6500  -48.8590   20.4370 C.3   452  LYS452      0.0298
    136  CG        10.1140  -49.0620   21.8700 C.3   452  LYS452      0.0038
    137  CD        11.4260  -49.8350   21.9150 C.3   452  LYS452      0.0206
    138  CE        11.5730  -50.6390   23.1960 C.3   452  LYS452      0.1093
    139  NZ        12.9660  -51.1240   23.3870 N.3   452  LYS452     -0.1314
@<TRIPOS>BOND
     1    31    32    1
     2   100    98    1
     3    32    35    1
     4    32    33    1
     5    35    36    1
     6    33    34    2
     7    98    97    2
     8    98    99    1
     9    97    96    1
    10    36    38   ar
    11    36    37   ar
    12    38    40   ar
    13    13    11    1
    14    96    95    1
    15    50    48    1
    16   117   119   ar
    17   117   115   ar
    18    11    12    1
    19    11    10    1
    20   119   118   ar
    21    37    39   ar
    22    40    41   ar
    23     6     7    1
    24     1     2    1
    25    47    48    1
    26    47    44    1
    27    95    94    1
    28    48    49    1
    29     7    10    1
    30     7     8    1
    31   115   114   ar
    32   118   116   ar
    33    43    44    1
    34    39    41   ar
    35    41    42    1
    36    44    45    1
    37    65    64    2
    38    45    46    2
    39     2     3    1
    40     2     5    1
    41    94    91    1
    42   114   116   ar
    43   114   113    1
    44     8     9    2
    45     8    14   am
    46     3     4    2
    47    23    24    1
    48    64    63    1
    49    14    15    1
    50   113   110    1
    51    91    90    1
    52    91    92    1
    53    90    83   am
    54    24    25    1
    55    24    27    1
    56   104   103    2
    57    66    63    1
    58    66    67    1
    59    16    15    1
    60    16    17    2
    61    63    62    1
    62   110   109    1
    63   110   111    1
    64    73    72    2
    65    15    18    1
    66    92   101   am
    67    92    93    2
    68    25    26    2
    69    27    28    1
    70    62    53   am
    71    83    82    1
    72    83    84    2
    73   103   109   am
    74   103   102    1
    75    82    85    1
    76    82    81    1
    77   101   102    1
    78    68    67    1
    79   111   112    2
    80   111   120   am
    81    18    19    1
    82    29    28    2
    83    51    52    1
    84    86    85    1
    85    86    87    1
    86    59    61   ar
    87    59    57   ar
    88    72    81   am
    89    72    71    1
    90    67    69    1
    91    61    60   ar
    92   123   122    2
    93    28    30   am
    94   120   121    1
    95   134   133    2
    96   102   105    1
    97   132   135    1
    98   132   131    1
    99   132   133    1
   100    87    88    1
   101    70    71    1
   102    57    56   ar
   103    19    20    1
   104   135   136    1
   105    53    52    1
   106    53    54    2
   107    88    89    1
   108   122   131   am
   109   122   121    1
   110    60    58   ar
   111    21    20   ar
   112    52    55    1
   113    71    74    1
   114   105   106    1
   115    20    22   ar
   116    56    58   ar
   117    56    55    1
   118   121   124    1
   119   136   137    1
   120   137   138    1
   121    74    75    1
   122   106   107   ar
   123   106   108   ar
   124   124   125    1
   125   125   126   ar
   126   125   127   ar
   127    75    77   ar
   128    75    76   ar
   129   126   128   ar
   130   138   139    1
   131    77    79   ar
   132   127   129   ar
   133   128   130   ar
   134    76    78   ar
   135   129   130   ar
   136    79    80   ar
   137    78    80   ar
