@<TRIPOS>MOLECULE
tmp/5yjxB02.pdb
 199 197 0 0 0
SMALL
GASTEIGER

@<TRIPOS>ATOM
      1  N         15.1920   14.3300   19.2870 N.3    36  TRP36      -0.1241
      2  CA        14.0060   14.3720   18.4390 C.3    36  TRP36       0.1605
      3  C         14.0540   13.3160   17.3380 C.2    36  TRP36       0.2264
      4  O         13.1540   12.4890   17.2420 O.2    36  TRP36      -0.2867
      5  CB        13.7940   15.7740   17.8760 C.3    36  TRP36       0.0550
      6  CG        13.1720   16.6820   18.8860 C.ar   36  TRP36       0.0003
      7  CD1       13.7660   17.7150   19.5280 C.ar   36  TRP36       0.0946
      8  CD2       11.8300   16.6160   19.3850 C.ar   36  TRP36       0.0152
      9  NE1       12.8840   18.3190   20.3900 N.ar   36  TRP36      -0.2442
     10  CE2       11.6840   17.6660   20.3250 C.ar   36  TRP36       0.0810
     11  CE3       10.7350   15.7810   19.1210 C.ar   36  TRP36       0.0012
     12  CZ2       10.4800   17.9100   21.0120 C.ar   36  TRP36       0.0191
     13  CZ3        9.5360   16.0210   19.7990 C.ar   36  TRP36       0.0001
     14  CH2        9.4190   17.0840   20.7410 C.ar   36  TRP36       0.0015
     15  N         12.7240   17.1230   25.9330 N.3    63  PHE63      -0.1241
     16  CA        11.6880   17.9670   25.3290 C.3    63  PHE63       0.1605
     17  C         12.1540   19.4100   25.2280 C.2    63  PHE63       0.2264
     18  O         11.6270   20.2980   25.8920 O.2    63  PHE63      -0.2867
     19  CB        10.3660   17.9000   26.0910 C.3    63  PHE63       0.0534
     20  CG         9.2620   18.6930   25.4400 C.ar   63  PHE63      -0.0203
     21  CD1        8.9090   18.4510   24.1130 C.ar   63  PHE63      -0.0042
     22  CD2        8.5850   19.6830   26.1370 C.ar   63  PHE63      -0.0042
     23  CE1        7.9000   19.1740   23.5010 C.ar   63  PHE63      -0.0003
     24  CE2        7.5700   20.4060   25.5310 C.ar   63  PHE63      -0.0003
     25  CZ         7.2250   20.1530   24.2140 C.ar   63  PHE63      -0.0000
     26  N         11.7450   22.2080   23.8480 N.3    65  PRO65      -0.2116
     27  CA        11.0270   23.4880   23.8740 C.3    65  PRO65       0.1372
     28  C         10.6580   24.0310   25.2450 C.2    65  PRO65       0.2244
     29  O         10.2450   25.1780   25.3250 O.2    65  PRO65      -0.2868
     30  CB         9.7510   23.1880   23.0810 C.3    65  PRO65       0.0268
     31  CG        10.1430   22.0650   22.1930 C.3    65  PRO65       0.0207
     32  CD        10.9840   21.2070   23.0850 C.3    65  PRO65       0.0892
     33  N         13.7280   32.0390   19.3630 N.3   194  PRO194     -0.2116
     34  CA        12.7470   31.7190   20.4060 C.3   194  PRO194      0.1372
     35  C         13.3930   31.3230   21.7550 C.2   194  PRO194      0.2244
     36  O         12.9750   31.8370   22.8090 O.2   194  PRO194     -0.2868
     37  CB        11.9440   30.5550   19.7960 C.3   194  PRO194      0.0268
     38  CG        12.8170   29.9800   18.7290 C.3   194  PRO194      0.0207
     39  CD        13.6300   31.1270   18.2090 C.3   194  PRO194      0.0892
     40  N         11.2680   34.2890   12.1200 N.3   236  MET236     -0.1230
     41  CA        10.4030   33.3190   11.4370 C.3   236  MET236      0.1702
     42  C          8.9190   33.7180   11.4840 C.2   236  MET236      0.2592
     43  O          8.0920   33.1250   10.7790 O.2   236  MET236     -0.2718
     44  CB        10.6060   31.9050   12.0100 C.3   236  MET236      0.0401
     45  CG        10.3770   31.7720   13.5150 C.3   236  MET236      0.0596
     46  SD        11.7310   32.3750   14.5540 S.3   236  MET236     -0.1393
     47  CE        13.0160   31.1840   14.1640 C.3   236  MET236      0.0692
     48  N          8.5990   34.7170   12.3090 N.am  237  PHE237     -0.1976
     49  CA         7.2480   35.2590   12.4210 C.3   237  PHE237      0.1639
     50  C          7.1230   36.4620   11.4910 C.2   237  PHE237      0.2290
     51  O          8.1230   37.1230   11.2060 O.2   237  PHE237     -0.2864
     52  CB         6.9760   35.7130   13.8530 C.3   237  PHE237      0.0560
     53  CG         6.9670   34.5990   14.8560 C.ar  237  PHE237     -0.0200
     54  CD1        8.1440   33.9480   15.2110 C.ar  237  PHE237     -0.0042
     55  CD2        5.7850   34.2200   15.4710 C.ar  237  PHE237     -0.0042
     56  CE1        8.1390   32.9230   16.1400 C.ar  237  PHE237     -0.0003
     57  CE2        5.7740   33.2010   16.4070 C.ar  237  PHE237     -0.0003
     58  CZ         6.9520   32.5490   16.7400 C.ar  237  PHE237     -0.0000
     59  N         22.8410   29.7310   17.3500 N.3   296  GLY296     -0.1210
     60  CA        23.6230   29.0120   16.3780 C.3   296  GLY296      0.1956
     61  C         23.7810   27.5400   16.6670 C.2   296  GLY296      0.2611
     62  O         23.5410   27.0650   17.7850 O.2   296  GLY296     -0.2717
     63  N         24.2080   26.8150   15.6430 N.am  297  ASN297     -0.1974
     64  CA        24.4310   25.3890   15.7440 C.3   297  ASN297      0.1688
     65  C         25.4310   24.9790   14.6740 C.2   297  ASN297      0.2292
     66  O         25.2410   25.2690   13.4930 O.2   297  ASN297     -0.2864
     67  CB        23.1090   24.6310   15.5810 C.3   297  ASN297      0.1181
     68  CG        22.4650   24.2780   16.9130 C.2   297  ASN297      0.2629
     69  OD1       23.1470   24.1680   17.9360 O.2   297  ASN297     -0.2716
     70  ND2       21.1470   24.0910   16.9020 N.am  297  ASN297     -0.0877
     71  N         14.5870   24.2200    7.8780 N.3   346  PRO346     -0.2103
     72  CA        14.8050   24.7950    9.1920 C.3   346  PRO346      0.1489
     73  C         15.4440   23.7520   10.1290 C.2   346  PRO346      0.2418
     74  O         15.0360   22.5860   10.1230 O.2   346  PRO346     -0.2734
     75  CB        13.3870   25.1540    9.6530 C.3   346  PRO346      0.0282
     76  CG        12.5910   25.2750    8.4110 C.3   346  PRO346      0.0208
     77  CD        13.1610   24.2260    7.5100 C.3   346  PRO346      0.0893
     78  N         16.4580   24.1550   10.9150 N.am  347  PRO347     -0.2718
     79  CA        17.0190   23.2340   11.8990 C.3   347  PRO347      0.1535
     80  C         16.1640   23.2700   13.1570 C.2   347  PRO347      0.2599
     81  O         16.4860   23.9610   14.1180 O.2   347  PRO347     -0.2715
     82  CB        18.4180   23.7930   12.1390 C.3   347  PRO347      0.0310
     83  CG        18.2790   25.2590   11.8860 C.3   347  PRO347      0.0237
     84  CD        17.0780   25.4880   11.0050 C.3   347  PRO347      0.0939
     85  N         15.0560   22.5390   13.1140 N.am  348  THR348     -0.1937
     86  CA        14.0530   22.5670   14.1730 C.3   348  THR348      0.2028
     87  C         13.6730   21.1370   14.5790 C.2   348  THR348      0.2642
     88  O         14.1760   20.1550   14.0080 O.2   348  THR348     -0.2714
     89  CB        12.7850   23.3540   13.7340 C.3   348  THR348      0.1808
     90  OG1       11.7530   22.4470   13.3220 O.3   348  THR348     -0.2208
     91  CG2       13.0920   24.2750   12.5940 C.3   348  THR348      0.0379
     92  N         12.7900   21.0360   15.5710 N.am  349  ALA349     -0.1963
     93  CA        12.2790   19.7460   16.0340 C.3   349  ALA349      0.1728
     94  C         11.2730   19.2010   15.0260 C.2   349  ALA349      0.2616
     95  O         11.3530   18.0400   14.5750 O.2   349  ALA349     -0.2715
     96  CB        11.6180   19.9030   17.3980 C.3   349  ALA349      0.0334
     97  N         10.3250   20.0750   14.6970 N.am  350  GLN350     -0.1977
     98  CA         9.2730   19.8110   13.7330 C.3   350  GLN350      0.1601
     99  C          9.8050   19.1030   12.4790 C.2   350  GLN350      0.2287
    100  O          9.2340   18.0970   12.0490 O.2   350  GLN350     -0.2864
    101  CB         8.6230   21.1410   13.3550 C.3   350  GLN350      0.0394
    102  CG         7.2170   21.0340   12.8040 C.3   350  GLN350      0.0908
    103  CD         7.0150   21.8950   11.5710 C.2   350  GLN350      0.2608
    104  OE1        7.5240   23.0160   11.4770 O.2   350  GLN350     -0.2717
    105  NE2        6.2740   21.3640   10.6090 N.am  350  GLN350     -0.0878
    106  N         11.3270   15.7060   13.5040 N.3   353  HIS353     -0.1226
    107  CA        10.1500   14.8840   13.8380 C.3   353  HIS353      0.1752
    108  C          9.4580   14.2750   12.6150 C.2   353  HIS353      0.2595
    109  O          9.0910   13.0930   12.6330 O.2   353  HIS353     -0.2718
    110  CB         9.1260   15.7200   14.6050 C.3   353  HIS353      0.0759
    111  CG         7.7710   15.0890   14.6800 C.ar  353  HIS353      0.0818
    112  ND1        7.4990   14.0070   15.4890 N.ar  353  HIS353     -0.2268
    113  CD2        6.6160   15.3800   14.0400 C.ar  353  HIS353      0.1154
    114  CE1        6.2310   13.6670   15.3550 C.ar  353  HIS353      0.1986
    115  NE2        5.6730   14.4850   14.4810 N.ar  353  HIS353     -0.2212
    116  N          9.2490   15.1020   11.5850 N.am  354  GLN354     -0.1979
    117  CA         8.7510   14.6340   10.2940 C.3   354  GLN354      0.1601
    118  C          9.8120   13.7830    9.6520 C.2   354  GLN354      0.2287
    119  O          9.5940   12.5950    9.4530 O.2   354  GLN354     -0.2864
    120  CB         8.4110   15.7890    9.3620 C.3   354  GLN354      0.0394
    121  CG         7.1530   16.5590    9.7280 C.3   354  GLN354      0.0908
    122  CD         6.7870   17.6130    8.6880 C.2   354  GLN354      0.2608
    123  OE1        6.9040   17.3890    7.4750 O.2   354  GLN354     -0.2717
    124  NE2        6.3330   18.7660    9.1590 N.am  354  GLN354     -0.0878
    125  N          5.9610   22.5840    6.8710 N.3   394  ASP394     -0.1225
    126  CA         6.1440   23.6490    7.8800 C.3   394  ASP394      0.1805
    127  C          4.8360   24.0770    8.5950 C.2   394  ASP394      0.2598
    128  O          3.9820   24.7310    8.0030 O.2   394  ASP394     -0.2718
    129  CB         6.8100   24.8440    7.1740 C.3   394  ASP394      0.1424
    130  CG         7.2480   25.9330    8.1220 C.2   394  ASP394      0.3668
    131  OD1        6.4760   26.2560    9.0580 O.co2 394  ASP394     -0.2456
    132  OD2        8.3580   26.4840    7.9030 O.co2 394  ASP394     -0.2456
    133  N          4.7030   23.7370    9.8730 N.am  395  LEU395     -0.1966
    134  CA         3.4240   23.8510   10.5680 C.3   395  LEU395      0.1728
    135  C          3.2720   25.1470   11.3490 C.2   395  LEU395      0.2617
    136  O          2.2840   25.3070   12.0680 O.2   395  LEU395     -0.2715
    137  CB         3.2030   22.6730   11.5330 C.3   395  LEU395      0.0311
    138  CG         2.6790   21.3010   11.0780 C.3   395  LEU395      0.0022
    139  CD1        1.9450   20.6410   12.2440 C.3   395  LEU395      0.0001
    140  CD2        1.7600   21.3450    9.8680 C.3   395  LEU395      0.0001
    141  N          4.2240   26.0700   11.2290 N.am  396  GLY396     -0.1940
    142  CA         4.1220   27.3560   11.9350 C.3   396  GLY396      0.2014
    143  C          5.0460   27.4530   13.1280 C.2   396  GLY396      0.2639
    144  O          5.9010   26.5960   13.3160 O.2   396  GLY396     -0.2714
    145  N          4.8590   28.4810   13.9520 N.am  397  ALA397     -0.1963
    146  CA         5.8560   28.8180   14.9700 C.3   397  ALA397      0.1728
    147  C          5.2890   29.4490   16.2470 C.2   397  ALA397      0.2616
    148  O          4.6310   30.4840   16.1890 O.2   397  ALA397     -0.2715
    149  CB         6.8990   29.7430   14.3570 C.3   397  ALA397      0.0334
    150  N          5.5730   28.8180   17.3900 N.am  398  LEU398     -0.1977
    151  CA         5.2450   29.3650   18.7170 C.3   398  LEU398      0.1596
    152  C          6.4870   29.9230   19.4290 C.2   398  LEU398      0.2287
    153  O          7.6210   29.5100   19.1520 O.2   398  LEU398     -0.2864
    154  CB         4.5920   28.3020   19.6070 C.3   398  LEU398      0.0297
    155  CG         3.1770   27.8600   19.2200 C.3   398  LEU398      0.0022
    156  CD1        3.2240   26.6580   18.2870 C.3   398  LEU398      0.0001
    157  CD2        2.3410   27.5410   20.4540 C.3   398  LEU398      0.0001
    158  N         -0.8460   23.5720   23.7530 N.3   432  LEU432     -0.1231
    159  CA        -0.2420   22.9780   22.5540 C.3   432  LEU432      0.1693
    160  C          1.1060   22.2930   22.8460 C.2   432  LEU432      0.2592
    161  O          1.3230   21.1450   22.4420 O.2   432  LEU432     -0.2718
    162  CB        -0.0820   24.0310   21.4480 C.3   432  LEU432      0.0284
    163  CG        -0.1300   23.5370   19.9930 C.3   432  LEU432      0.0019
    164  CD1       -1.4500   22.8370   19.6870 C.3   432  LEU432      0.0001
    165  CD2        0.0970   24.6970   19.0270 C.3   432  LEU432      0.0001
    166  N          2.0060   22.9960   23.5370 N.am  433  TYR433     -0.1976
    167  CA         3.2820   22.4010   23.9820 C.3   433  TYR433      0.1639
    168  C          3.0290   21.1050   24.7610 C.2   433  TYR433      0.2290
    169  O          3.7260   20.1060   24.5490 O.2   433  TYR433     -0.2864
    170  CB         4.1150   23.3990   24.8200 C.3   433  TYR433      0.0560
    171  CG         5.1400   24.2400   24.0460 C.ar  433  TYR433     -0.0198
    172  CD1        5.2040   24.2290   22.6460 C.ar  433  TYR433     -0.0009
    173  CD2        6.0350   25.0690   24.7250 C.ar  433  TYR433     -0.0009
    174  CE1        6.1380   24.9940   21.9590 C.ar  433  TYR433      0.0417
    175  CE2        6.9660   25.8380   24.0370 C.ar  433  TYR433      0.0417
    176  CZ         7.0100   25.7970   22.6570 C.ar  433  TYR433      0.1957
    177  OH         7.9300   26.5540   21.9760 O.3   433  TYR433     -0.2866
    178  N          0.5600   18.9780   24.3660 N.3   435  SER435     -0.1202
    179  CA         0.1780   17.9100   23.4510 C.3   435  SER435      0.2020
    180  C          1.3440   17.3550   22.6270 C.2   435  SER435      0.2618
    181  O          1.3620   16.1670   22.3020 O.2   435  SER435     -0.2717
    182  CB        -0.8970   18.4130   22.5020 C.3   435  SER435      0.2103
    183  OG        -0.3690   19.4270   21.6690 O.3   435  SER435     -0.2182
    184  N          2.3050   18.2050   22.2780 N.am  436  MET436     -0.1979
    185  CA         3.4380   17.7700   21.4580 C.3   436  MET436      0.1605
    186  C          4.5070   17.0310   22.2530 C.2   436  MET436      0.2287
    187  O          5.4510   16.4940   21.6630 O.2   436  MET436     -0.2864
    188  CB         4.1010   18.9630   20.8040 C.3   436  MET436      0.0413
    189  CG         3.2200   19.7410   19.8570 C.3   436  MET436      0.0598
    190  SD         3.5620   21.5020   19.9740 S.3   436  MET436     -0.1393
    191  CE         5.2910   21.5370   20.4920 C.3   436  MET436      0.0692
    192  N          6.1750   14.0100   24.1660 N.3   438  LEU438     -0.1245
    193  CA         6.1910   12.6230   23.6770 C.3   438  LEU438      0.1561
    194  C          5.9250   11.5390   24.7320 C.2   438  LEU438      0.2260
    195  O          6.1610   10.3560   24.4700 O.2   438  LEU438     -0.2867
    196  CB         7.5310   12.3360   22.9870 C.3   438  LEU438      0.0270
    197  CG         7.5910   12.6600   21.5000 C.3   438  LEU438      0.0019
    198  CD1        7.1480   14.0900   21.2360 C.3   438  LEU438      0.0001
    199  CD2        8.9880   12.4010   20.9510 C.3   438  LEU438      0.0001
@<TRIPOS>BOND
     1   125   126    1
     2   129   126    1
     3   129   130    1
     4   123   122    2
     5    77    71    1
     6    77    76    1
     7    71    72    1
     8   126   127    1
     9   132   130   ar
    10   128   127    2
    11   130   131   ar
    12    76    75    1
    13   127   133   am
    14   122   124   am
    15   122   121    1
    16    72    75    1
    17    72    73    1
    18   120   121    1
    19   120   117    1
    20   119   118    2
    21   118   117    1
    22   140   138    1
    23   133   134    1
    24    74    73    2
    25    73    78   am
    26   117   116    1
    27   134   135    1
    28   134   137    1
    29   105   103   am
    30    43    42    2
    31    78    84    1
    32    78    79    1
    33    84    83    1
    34   138   137    1
    35   138   139    1
    36    51    50    2
    37   141   135   am
    38   141   142    1
    39   135   136    2
    40    41    42    1
    41    41    44    1
    42    41    40    1
    43   104   103    2
    44    42    48   am
    45    50    49    1
    46   103   102    1
    47   116   108   am
    48    83    82    1
    49    79    82    1
    50    79    80    1
    51   142   143    1
    52    44    45    1
    53   100    99    2
    54    48    49    1
    55    49    52    1
    56    99    98    1
    57    91    89    1
    58   108   109    2
    59   108   107    1
    60   102   101    1
    61    85    80   am
    62    85    86    1
    63   143   144    2
    64   143   145   am
    65    80    81    2
    66    90    89    1
    67   101    98    1
    68    66    65    2
    69   106   107    1
    70    45    46    1
    71    98    97    1
    72    89    86    1
    73   107   110    1
    74    52    53    1
    75   145   146    1
    76    88    87    2
    77   113   115   ar
    78   113   111   ar
    79    47    46    1
    80    86    87    1
    81   149   146    1
    82   115   114   ar
    83    95    94    2
    84    87    92   am
    85   110   111    1
    86    65    64    1
    87   111   112   ar
    88    97    94   am
    89    53    54   ar
    90    53    55   ar
    91   146   147    1
    92    94    93    1
    93    54    56   ar
    94   114   112   ar
    95    55    57   ar
    96    92    93    1
    97    67    64    1
    98    67    68    1
    99    63    64    1
   100    63    61   am
   101    93    96    1
   102    56    58   ar
   103   148   147    2
   104   147   150   am
   105    60    61    1
   106    60    59    1
   107    57    58   ar
   108    61    62    2
   109    70    68   am
   110    68    69    2
   111     4     3    2
   112     3     2    1
   113   150   151    1
   114     5     2    1
   115     5     6    1
   116    39    38    1
   117    39    33    1
   118   156   155    1
   119     2     1    1
   120   151   152    1
   121   151   154    1
   122    38    37    1
   123     6     8   ar
   124     6     7   ar
   125   165   163    1
   126    11     8   ar
   127    11    13   ar
   128   153   152    2
   129   155   154    1
   130   155   157    1
   131    33    34    1
   132     8    10   ar
   133     7     9   ar
   134   164   163    1
   135    37    34    1
   136    13    14   ar
   137   189   190    1
   138   189   188    1
   139   190   191    1
   140   163   162    1
   141    10     9   ar
   142    10    12   ar
   143    34    35    1
   144    14    12   ar
   145   188   185    1
   146   199   197    1
   147   198   197    1
   148   162   159    1
   149   185   186    1
   150   185   184    1
   151   197   196    1
   152   187   186    2
   153   183   182    1
   154    35    36    2
   155   174   172   ar
   156   174   176   ar
   157   177   176    1
   158    31    30    1
   159    31    32    1
   160   184   180   am
   161   181   180    2
   162   161   160    2
   163   182   179    1
   164   159   160    1
   165   159   158    1
   166   180   179    1
   167   172   171   ar
   168   176   175   ar
   169   160   166   am
   170   196   193    1
   171    30    27    1
   172    32    26    1
   173   179   178    1
   174    23    21   ar
   175    23    25   ar
   176   166   167    1
   177   193   192    1
   178   193   194    1
   179    26    27    1
   180    27    28    1
   181   167   168    1
   182   167   170    1
   183   175   173   ar
   184   171   173   ar
   185   171   170    1
   186    21    20   ar
   187    25    24   ar
   188   195   194    2
   189   169   168    2
   190    17    16    1
   191    17    18    2
   192    28    29    2
   193    16    15    1
   194    16    19    1
   195    20    19    1
   196    20    22   ar
   197    24    22   ar
