@<TRIPOS>MOLECULE
tmp/5yjxB01.pdb
 92 91 0 0 0
SMALL
GASTEIGER

@<TRIPOS>ATOM
      1  N         26.2790   23.6680   19.8200 N.3   136  PRO136     -0.2116
      2  CA        26.1140   25.1150   19.6160 C.3   136  PRO136      0.1372
      3  C         27.3780   25.8650   19.1480 C.2   136  PRO136      0.2244
      4  O         28.5160   25.4330   19.3870 O.2   136  PRO136     -0.2868
      5  CB        25.6280   25.6200   20.9770 C.3   136  PRO136      0.0268
      6  CG        26.1450   24.6310   21.9460 C.3   136  PRO136      0.0207
      7  CD        26.2370   23.3060   21.2440 C.3   136  PRO136      0.0892
      8  N         22.4990   27.2020   26.4300 N.3   151  LEU151     -0.1231
      9  CA        21.2100   26.7140   26.8820 C.3   151  LEU151      0.1693
     10  C         20.7990   25.5610   25.9890 C.2   151  LEU151      0.2591
     11  O         19.9230   25.6990   25.1600 O.2   151  LEU151     -0.2718
     12  CB        20.1730   27.8310   26.8570 C.3   151  LEU151      0.0284
     13  CG        18.8170   27.4730   27.4710 C.3   151  LEU151      0.0019
     14  CD1       18.9380   26.6500   28.7570 C.3   151  LEU151      0.0001
     15  CD2       18.0370   28.7540   27.7250 C.3   151  LEU151      0.0001
     16  N         21.4420   24.4160   26.1690 N.am  152  LYS152     -0.1980
     17  CA        21.3150   23.2990   25.2280 C.3   152  LYS152      0.1596
     18  C         20.6730   22.0850   25.8720 C.2   152  LYS152      0.2287
     19  O         19.7420   21.5190   25.3210 O.2   152  LYS152     -0.2864
     20  CB        22.7060   22.9080   24.6900 C.3   152  LYS152      0.0298
     21  CG        22.7190   21.9620   23.5090 C.3   152  LYS152      0.0038
     22  CD        22.4520   22.6960   22.2140 C.3   152  LYS152      0.0206
     23  CE        22.1410   21.7020   21.1060 C.3   152  LYS152      0.1093
     24  NZ        22.6750   22.1590   19.7950 N.3   152  LYS152     -0.1314
     25  N         16.4740   34.4270   18.6560 N.3   193  GLY193     -0.1210
     26  CA        15.5500   33.3310   18.3690 C.3   193  GLY193      0.1940
     27  C         14.6190   33.0320   19.5350 C.2   193  GLY193      0.2454
     28  O         14.6940   33.6910   20.5800 O.2   193  GLY193     -0.2732
     29  N         13.7280   32.0390   19.3630 N.am  194  PRO194     -0.2717
     30  CA        12.7470   31.7190   20.4060 C.3   194  PRO194      0.1536
     31  C         13.3930   31.3230   21.7550 C.2   194  PRO194      0.2599
     32  O         12.9750   31.8370   22.8090 O.2   194  PRO194     -0.2715
     33  CB        11.9440   30.5550   19.7960 C.3   194  PRO194      0.0310
     34  CG        12.8170   29.9800   18.7290 C.3   194  PRO194      0.0237
     35  CD        13.6300   31.1270   18.2090 C.3   194  PRO194      0.0939
     36  N         14.3990   30.4370   21.7010 N.am  195  THR195     -0.1937
     37  CA        15.1440   29.9630   22.8810 C.3   195  THR195      0.2028
     38  C         15.5420   31.1220   23.7970 C.2   195  THR195      0.2642
     39  O         15.1100   31.1880   24.9530 O.2   195  THR195     -0.2714
     40  CB        16.4290   29.1940   22.4630 C.3   195  THR195      0.1808
     41  OG1       16.0760   28.0260   21.7140 O.3   195  THR195     -0.2208
     42  CG2       17.2650   28.7680   23.6680 C.3   195  THR195      0.0379
     43  N         16.3610   32.0290   23.2630 N.am  196  GLY196     -0.1954
     44  CA        16.8180   33.2040   23.9940 C.3   196  GLY196      0.1869
     45  C         15.6670   34.0160   24.5540 C.2   196  GLY196      0.2309
     46  O         15.5880   34.2410   25.7650 O.2   196  GLY196     -0.2863
     47  N         11.2680   34.2890   12.1200 N.3   236  MET236     -0.1245
     48  CA        10.4030   33.3190   11.4370 C.3   236  MET236      0.1570
     49  C          8.9190   33.7180   11.4840 C.2   236  MET236      0.2261
     50  O          8.0920   33.1250   10.7790 O.2   236  MET236     -0.2867
     51  CB        10.6060   31.9050   12.0100 C.3   236  MET236      0.0387
     52  CG        10.3770   31.7720   13.5150 C.3   236  MET236      0.0595
     53  SD        11.7310   32.3750   14.5540 S.3   236  MET236     -0.1393
     54  CE        13.0160   31.1840   14.1640 C.3   236  MET236      0.0692
     55  N         24.1160   31.9280   26.0970 N.3   293  TRP293     -0.1227
     56  CA        24.4660   31.9310   24.6750 C.3   293  TRP293      0.1737
     57  C         23.5090   31.0560   23.8510 C.2   293  TRP293      0.2595
     58  O         23.7550   29.8610   23.6250 O.2   293  TRP293     -0.2718
     59  CB        25.9070   31.4550   24.5080 C.3   293  TRP293      0.0564
     60  CG        26.4620   31.7200   23.1640 C.ar  293  TRP293      0.0003
     61  CD1       26.4650   30.8760   22.0890 C.ar  293  TRP293      0.0946
     62  CD2       27.1000   32.9150   22.7410 C.ar  293  TRP293      0.0152
     63  NE1       27.0720   31.4790   21.0180 N.ar  293  TRP293     -0.2442
     64  CE2       27.4670   32.7380   21.3940 C.ar  293  TRP293      0.0810
     65  CE3       27.3980   34.1260   23.3670 C.ar  293  TRP293      0.0012
     66  CZ2       28.1160   33.7320   20.6670 C.ar  293  TRP293      0.0191
     67  CZ3       28.0420   35.1150   22.6410 C.ar  293  TRP293      0.0001
     68  CH2       28.3930   34.9130   21.3110 C.ar  293  TRP293      0.0015
     69  N         22.4140   31.6730   23.4150 N.am  294  ALA294     -0.1966
     70  CA        21.3150   30.9620   22.7530 C.3   294  ALA294      0.1728
     71  C         21.3330   31.2390   21.2580 C.2   294  ALA294      0.2617
     72  O         20.3680   31.7530   20.6800 O.2   294  ALA294     -0.2715
     73  CB        19.9680   31.3630   23.3580 C.3   294  ALA294      0.0334
     74  N         22.4430   30.8970   20.6300 N.am  295  THR295     -0.1937
     75  CA        22.5940   31.1840   19.2240 C.3   295  THR295      0.2028
     76  C         23.3530   30.0930   18.5180 C.2   295  THR295      0.2643
     77  O         24.3730   29.6000   19.0110 O.2   295  THR295     -0.2714
     78  CB        23.3380   32.5160   18.9660 C.3   295  THR295      0.1808
     79  OG1       24.0290   32.4370   17.7090 O.3   295  THR295     -0.2208
     80  CG2       24.3520   32.8000   20.0580 C.3   295  THR295      0.0379
     81  N         22.8410   29.7310   17.3500 N.am  296  GLY296     -0.1939
     82  CA        23.6230   29.0120   16.3780 C.3   296  GLY296      0.2014
     83  C         23.7810   27.5400   16.6670 C.2   296  GLY296      0.2638
     84  O         23.5410   27.0650   17.7850 O.2   296  GLY296     -0.2714
     85  N         24.2080   26.8150   15.6430 N.am  297  ASN297     -0.1972
     86  CA        24.4310   25.3890   15.7440 C.3   297  ASN297      0.1688
     87  C         25.4310   24.9790   14.6740 C.2   297  ASN297      0.2292
     88  O         25.2410   25.2690   13.4930 O.2   297  ASN297     -0.2864
     89  CB        23.1090   24.6310   15.5810 C.3   297  ASN297      0.1181
     90  CG        22.4650   24.2780   16.9130 C.2   297  ASN297      0.2629
     91  OD1       23.1470   24.1680   17.9360 O.2   297  ASN297     -0.2716
     92  ND2       21.1470   24.0910   16.9020 N.am  297  ASN297     -0.0877
@<TRIPOS>BOND
     1    50    49    2
     2    48    49    1
     3    48    51    1
     4    48    47    1
     5    51    52    1
     6    88    87    2
     7    52    53    1
     8    54    53    1
     9    87    86    1
    10    89    86    1
    11    89    90    1
    12    85    86    1
    13    85    83   am
    14    82    83    1
    15    82    81    1
    16    83    84    2
    17    92    90   am
    18    90    91    2
    19    81    76   am
    20    79    78    1
    21    35    34    1
    22    35    29    1
    23    26    25    1
    24    26    27    1
    25    76    77    2
    26    76    75    1
    27    34    33    1
    28    78    75    1
    29    78    80    1
    30     3     4    2
    31     3     2    1
    32    75    74    1
    33    29    27   am
    34    29    30    1
    35    27    28    2
    36     2     1    1
    37     2     5    1
    38    24    23    1
    39    33    30    1
    40     1     7    1
    41    30    31    1
    42    74    71   am
    43    66    68   ar
    44    66    64   ar
    45    72    71    2
    46     5     6    1
    47    63    64   ar
    48    63    61   ar
    49    23    22    1
    50     7     6    1
    51    71    70    1
    52    68    67   ar
    53    64    62   ar
    54    36    31   am
    55    36    37    1
    56    41    40    1
    57    31    32    2
    58    61    60   ar
    59    22    21    1
    60    40    37    1
    61    40    42    1
    62    67    65   ar
    63    62    60   ar
    64    62    65   ar
    65    70    73    1
    66    70    69    1
    67    37    38    1
    68    60    59    1
    69    43    38   am
    70    43    44    1
    71    69    57   am
    72    21    20    1
    73    58    57    2
    74    38    39    2
    75    57    56    1
    76    44    45    1
    77    59    56    1
    78    45    46    2
    79    56    55    1
    80    20    17    1
    81    11    10    2
    82    17    18    1
    83    17    16    1
    84    19    18    2
    85    10    16   am
    86    10     9    1
    87     8     9    1
    88    12     9    1
    89    12    13    1
    90    13    15    1
    91    13    14    1
