@<TRIPOS>MOLECULE
tmp/5yjyB01.pdb
 113 111 0 0 0
SMALL
GASTEIGER

@<TRIPOS>ATOM
      1  N         15.4680   14.2500   18.8890 N.3    36  TRP36      -0.1241
      2  CA        14.2650   14.2390   18.0760 C.3    36  TRP36       0.1605
      3  C         14.4070   13.2200   16.9810 C.2    36  TRP36       0.2264
      4  O         13.7050   12.2080   16.9760 O.2    36  TRP36      -0.2867
      5  CB        14.0580   15.5970   17.4490 C.3    36  TRP36       0.0550
      6  CG        13.5490   16.5990   18.3850 C.ar   36  TRP36       0.0003
      7  CD1       14.2000   17.6850   18.8270 C.ar   36  TRP36       0.0946
      8  CD2       12.2450   16.6230   18.9820 C.ar   36  TRP36       0.0152
      9  NE1       13.3890   18.4120   19.6550 N.ar   36  TRP36      -0.2442
     10  CE2       12.1810   17.7750   19.7830 C.ar   36  TRP36       0.0810
     11  CE3       11.1250   15.7810   18.9150 C.ar   36  TRP36       0.0012
     12  CZ2       11.0330   18.1230   20.5310 C.ar   36  TRP36       0.0191
     13  CZ3        9.9810   16.1350   19.6510 C.ar   36  TRP36       0.0001
     14  CH2        9.9520   17.3020   20.4510 C.ar   36  TRP36       0.0015
     15  N         11.8040   22.1660   23.1880 N.3    65  PRO65      -0.2116
     16  CA        11.1770   23.4980   23.1480 C.3    65  PRO65       0.1372
     17  C         10.9520   24.0870   24.5170 C.2    65  PRO65       0.2244
     18  O         11.0310   25.3090   24.6620 O.2    65  PRO65      -0.2868
     19  CB         9.8460   23.2410   22.4380 C.3    65  PRO65       0.0268
     20  CG        10.0890   21.9870   21.6620 C.3    65  PRO65       0.0207
     21  CD        10.9190   21.1560   22.5990 C.3    65  PRO65       0.0892
     22  N         13.5120   21.2340   15.1920 N.3   349  ALA349     -0.1231
     23  CA        12.9350   19.9780   15.6290 C.3   349  ALA349      0.1694
     24  C         11.9750   19.4580   14.5590 C.2   349  ALA349      0.2591
     25  O         12.1880   18.3940   13.9650 O.2   349  ALA349     -0.2718
     26  CB        12.2040   20.1630   16.9570 C.3   349  ALA349      0.0304
     27  N         10.9390   20.2500   14.3040 N.am  350  GLN350     -0.1979
     28  CA         9.7910   19.8260   13.5130 C.3   350  GLN350      0.1601
     29  C         10.2200   19.0800   12.2470 C.2   350  GLN350      0.2287
     30  O          9.7350   17.9710   11.9670 O.2   350  GLN350     -0.2864
     31  CB         8.9560   21.0590   13.1950 C.3   350  GLN350      0.0394
     32  CG         7.7540   20.8310   12.3140 C.3   350  GLN350      0.0908
     33  CD         7.0670   22.1360   11.9910 C.2   350  GLN350      0.2608
     34  OE1        6.8010   22.9410   12.8840 O.2   350  GLN350     -0.2717
     35  NE2        6.8070   22.3730   10.7040 N.am  350  GLN350     -0.0878
     36  N         11.6280   15.5600   12.9690 N.3   353  HIS353     -0.1226
     37  CA        10.4980   14.6790   13.2680 C.3   353  HIS353      0.1752
     38  C          9.9450   13.9630   12.0080 C.2   353  HIS353      0.2595
     39  O          9.9790   12.7160   11.9030 O.2   353  HIS353     -0.2718
     40  CB         9.4260   15.5400   13.9560 C.3   353  HIS353      0.0759
     41  CG         8.0530   14.9440   13.9630 C.ar  353  HIS353      0.0818
     42  ND1        7.7300   13.8180   14.6920 N.ar  353  HIS353     -0.2268
     43  CD2        6.9070   15.3440   13.3580 C.ar  353  HIS353      0.1154
     44  CE1        6.4490   13.5420   14.5240 C.ar  353  HIS353      0.1986
     45  NE2        5.9270   14.4510   13.7190 N.ar  353  HIS353     -0.2212
     46  N          9.4640   14.7740   11.0560 N.am  354  GLN354     -0.1979
     47  CA         8.9250   14.2900    9.7880 C.3   354  GLN354      0.1601
     48  C         10.0530   13.5880    9.1000 C.2   354  GLN354      0.2287
     49  O          9.9160   12.4190    8.7700 O.2   354  GLN354     -0.2864
     50  CB         8.4300   15.4360    8.9200 C.3   354  GLN354      0.0394
     51  CG         7.5040   16.4110    9.6350 C.3   354  GLN354      0.0908
     52  CD         7.0980   17.5970    8.7640 C.2   354  GLN354      0.2608
     53  OE1        7.3360   17.6140    7.5500 O.2   354  GLN354     -0.2717
     54  NE2        6.4640   18.5930    9.3840 N.am  354  GLN354     -0.0878
     55  N          4.3450   22.7930    9.2650 N.3   396  LEU396     -0.1231
     56  CA         3.1060   22.9280    9.9660 C.3   396  LEU396      0.1693
     57  C          2.9450   24.1870   10.7690 C.2   396  LEU396      0.2593
     58  O          1.8310   24.6180   10.9410 O.2   396  LEU396     -0.2718
     59  CB         2.9400   21.7680   10.9070 C.3   396  LEU396      0.0284
     60  CG         1.8840   20.7600   10.5380 C.3   396  LEU396      0.0019
     61  CD1        2.5200   19.3970   10.4370 C.3   396  LEU396      0.0001
     62  CD2        0.8160   20.7670   11.6060 C.3   396  LEU396      0.0001
     63  N          3.9990   24.7430   11.3370 N.am  397  GLY397     -0.1942
     64  CA         3.8250   25.8350   12.2820 C.3   397  GLY397      0.2014
     65  C          4.9860   26.7740   12.5320 C.2   397  GLY397      0.2639
     66  O          5.9760   26.7480   11.8370 O.2   397  GLY397     -0.2714
     67  N          4.8050   27.6820   13.4780 N.am  398  ALA398     -0.1963
     68  CA         5.8920   28.2550   14.2400 C.3   398  ALA398      0.1728
     69  C          5.4100   28.7590   15.6040 C.2   398  ALA398      0.2616
     70  O          4.2520   29.0910   15.7490 O.2   398  ALA398     -0.2715
     71  CB         6.5680   29.3360   13.4490 C.3   398  ALA398      0.0334
     72  N          6.2770   28.7930   16.6100 N.am  399  LEU399     -0.1977
     73  CA         5.8480   29.1710   17.9520 C.3   399  LEU399      0.1596
     74  C          6.9280   29.8020   18.8080 C.2   399  LEU399      0.2287
     75  O          8.0800   29.4730   18.6460 O.2   399  LEU399     -0.2864
     76  CB         5.3880   27.9330   18.6670 C.3   399  LEU399      0.0297
     77  CG         3.8990   27.7470   18.7440 C.3   399  LEU399      0.0022
     78  CD1        3.6100   26.3590   18.2370 C.3   399  LEU399      0.0001
     79  CD2        3.4660   27.8890   20.1850 C.3   399  LEU399      0.0001
     80  N         -0.7060   23.3110   22.9450 N.3   433  LEU433     -0.1231
     81  CA        -0.0260   22.7900   21.7740 C.3   433  LEU433      0.1693
     82  C          1.2450   22.0000   22.1490 C.2   433  LEU433      0.2592
     83  O          1.4970   20.9080   21.6000 O.2   433  LEU433     -0.2718
     84  CB         0.2980   23.9530   20.8270 C.3   433  LEU433      0.0284
     85  CG         0.3970   23.7250   19.3170 C.3   433  LEU433      0.0019
     86  CD1       -0.3500   22.4970   18.8210 C.3   433  LEU433      0.0001
     87  CD2       -0.1070   24.9680   18.5910 C.3   433  LEU433      0.0001
     88  N          2.0130   22.5470   23.1030 N.am  434  TYR434     -0.1976
     89  CA         3.3150   21.9810   23.4760 C.3   434  TYR434      0.1639
     90  C          3.1490   20.6690   24.2470 C.2   434  TYR434      0.2290
     91  O          3.8180   19.6920   23.9110 O.2   434  TYR434     -0.2864
     92  CB         4.1850   23.0030   24.2380 C.3   434  TYR434      0.0560
     93  CG         5.2040   23.8370   23.4080 C.ar  434  TYR434     -0.0198
     94  CD1        5.2120   23.8560   21.9930 C.ar  434  TYR434     -0.0009
     95  CD2        6.1520   24.6340   24.0600 C.ar  434  TYR434     -0.0009
     96  CE1        6.1430   24.6280   21.2850 C.ar  434  TYR434      0.0417
     97  CE2        7.0720   25.3960   23.3540 C.ar  434  TYR434      0.0417
     98  CZ         7.0680   25.3980   21.9810 C.ar  434  TYR434      0.1957
     99  OH         8.0030   26.1740   21.3400 O.3   434  TYR434     -0.2866
    100  N          0.4140   18.6130   23.9520 N.3   436  SER436     -0.1202
    101  CA         0.0640   17.8920   22.7320 C.3   436  SER436      0.2020
    102  C          1.2370   17.2730   21.9690 C.2   436  SER436      0.2618
    103  O          1.2760   16.0580   21.7180 O.2   436  SER436     -0.2717
    104  CB        -0.6100   18.8360   21.7340 C.3   436  SER436      0.2103
    105  OG        -1.8490   19.3070   22.2340 O.3   436  SER436     -0.2182
    106  N          2.2620   18.1080   21.7700 N.am  437  MET437     -0.1979
    107  CA         3.4620   17.7340   20.9850 C.3   437  MET437      0.1605
    108  C          4.5700   17.0280   21.8160 C.2   437  MET437      0.2287
    109  O          5.5830   16.5670   21.2500 O.2   437  MET437     -0.2864
    110  CB         4.1170   18.8010   20.1330 C.3   437  MET437      0.0413
    111  CG         3.2510   19.3720   19.0270 C.3   437  MET437      0.0598
    112  SD         3.6610   21.1150   18.7680 S.3   437  MET437     -0.1393
    113  CE         5.4450   21.1320   18.8680 C.3   437  MET437      0.0692
@<TRIPOS>BOND
     1    53    52    2
     2    52    54   am
     3    52    51    1
     4    49    48    2
     5    50    51    1
     6    50    47    1
     7    48    47    1
     8    55    56    1
     9    47    46    1
    10    56    57    1
    11    56    59    1
    12    61    60    1
    13    60    59    1
    14    60    62    1
    15    35    33   am
    16    57    58    2
    17    57    63   am
    18    46    38   am
    19    63    64    1
    20    66    65    2
    21    39    38    2
    22    30    29    2
    23    33    32    1
    24    33    34    2
    25    38    37    1
    26    29    28    1
    27    64    65    1
    28    32    31    1
    29    65    67   am
    30    36    37    1
    31    31    28    1
    32    37    40    1
    33    43    45   ar
    34    43    41   ar
    35    71    68    1
    36    67    68    1
    37    28    27    1
    38    45    44   ar
    39    40    41    1
    40    41    42   ar
    41    25    24    2
    42    68    69    1
    43    27    24   am
    44    44    42   ar
    45    24    23    1
    46    22    23    1
    47    69    70    2
    48    69    72   am
    49    23    26    1
    50    72    73    1
    51     4     3    2
    52     3     2    1
    53     5     2    1
    54     5     6    1
    55    73    76    1
    56    73    74    1
    57     2     1    1
    58    78    77    1
    59     6     7   ar
    60     6     8   ar
    61    87    85    1
    62    75    74    2
    63    76    77    1
    64    77    79    1
    65   112   113    1
    66   112   111    1
    67    86    85    1
    68     7     9   ar
    69    11     8   ar
    70    11    13   ar
    71     8    10   ar
    72   111   110    1
    73    85    84    1
    74    13    14   ar
    75     9    10   ar
    76    10    12   ar
    77   110   107    1
    78    14    12   ar
    79    84    81    1
    80   107   106    1
    81   107   108    1
    82   109   108    2
    83    96    98   ar
    84    96    94   ar
    85    99    98    1
    86    83    82    2
    87    20    19    1
    88    20    21    1
    89   103   102    2
    90   104   105    1
    91   104   101    1
    92   106   102   am
    93    81    82    1
    94    81    80    1
    95   102   101    1
    96    98    97   ar
    97    94    93   ar
    98    82    88   am
    99    19    16    1
   100    21    15    1
   101   101   100    1
   102    88    89    1
   103    16    15    1
   104    16    17    1
   105    97    95   ar
   106    93    95   ar
   107    93    92    1
   108    89    92    1
   109    89    90    1
   110    91    90    2
   111    17    18    2
