@<TRIPOS>MOLECULE
tmp/5yk0A00.pdb
 171 164 0 0 0
SMALL
GASTEIGER

@<TRIPOS>ATOM
      1  N        -60.8460    4.8090   12.0970 N.3    91  VAL91      -0.1231
      2  CA       -60.8630    4.9930   10.6540 C.3    91  VAL91       0.1692
      3  C        -61.0360    6.4580   10.2760 C.2    91  VAL91       0.2592
      4  O        -60.7890    6.8450    9.1340 O.2    91  VAL91      -0.2718
      5  CB       -61.9850    4.1700    9.9950 C.3    91  VAL91       0.0266
      6  CG1      -61.7460    2.6860   10.2090 C.3    91  VAL91       0.0020
      7  CG2      -63.3380    4.5800   10.5490 C.3    91  VAL91       0.0020
      8  N        -61.4590    7.2710   11.2370 N.am   92  ALA92      -0.1966
      9  CA       -61.7060    8.6810   10.9710 C.3    92  ALA92       0.1728
     10  C        -61.6610    9.5110   12.2450 C.2    92  ALA92       0.2617
     11  O        -61.6940    8.9770   13.3560 O.2    92  ALA92      -0.2715
     12  CB       -63.0460    8.8590   10.2760 C.3    92  ALA92       0.0334
     13  N        -61.5830   10.8250   12.0750 N.am   93  SER93      -0.1936
     14  CA       -61.5810   11.7360   13.2080 C.3    93  SER93       0.2055
     15  C        -62.8980   12.4910   13.2850 C.2    93  SER93       0.2643
     16  O        -63.4910   12.8280   12.2600 O.2    93  SER93      -0.2714
     17  CB       -60.4140   12.7180   13.1080 C.3    93  SER93       0.2130
     18  OG       -59.1790   12.0270   13.0640 O.3    93  SER93      -0.2179
     19  N        -63.3570   12.7340   14.5060 N.am   94  ALA94      -0.1963
     20  CA       -64.5250   13.5720   14.7370 C.3    94  ALA94       0.1728
     21  C        -64.0810   14.8600   15.4200 C.2    94  ALA94       0.2617
     22  O        -62.9150   14.9930   15.7940 O.2    94  ALA94      -0.2715
     23  CB       -65.5580   12.8400   15.5760 C.3    94  ALA94       0.0334
     24  N        -65.0070   15.8010   15.5830 N.am   95  SER95      -0.1936
     25  CA       -64.6780   17.1110   16.1370 C.3    95  SER95       0.2055
     26  C        -64.0360   16.9950   17.5170 C.2    95  SER95       0.2642
     27  O        -62.9950   17.5990   17.7720 O.2    95  SER95      -0.2714
     28  CB       -65.9260   17.9930   16.2070 C.3    95  SER95       0.2130
     29  OG       -66.8740   17.4660   17.1170 O.3    95  SER95      -0.2179
     30  N        -64.6510   16.2170   18.4020 N.am   96  ILE96      -0.1977
     31  CA       -64.0690   15.9660   19.7170 C.3    96  ILE96       0.1596
     32  C        -64.0340   14.4730   20.0380 C.2    96  ILE96       0.2287
     33  O        -64.2780   14.0610   21.1730 O.2    96  ILE96      -0.2864
     34  CB       -64.8310   16.7090   20.8390 C.3    96  ILE96       0.0276
     35  CG1      -66.3170   16.3420   20.8330 C.3    96  ILE96       0.0022
     36  CG2      -64.6580   18.2160   20.6960 C.3    96  ILE96       0.0022
     37  CD1      -67.0560   16.8100   22.0760 C.3    96  ILE96       0.0001
     38  N        -63.6830    7.8970   15.2160 N.3    99  VAL99      -0.1245
     39  CA       -64.6620    6.9250   14.7530 C.3    99  VAL99       0.1561
     40  C        -64.0050    5.5870   14.4370 C.2    99  VAL99       0.2260
     41  O        -62.9660    5.5300   13.7780 O.2    99  VAL99      -0.2867
     42  CB       -65.4110    7.4410   13.5090 C.3    99  VAL99       0.0252
     43  CG1      -66.4490    6.4260   13.0460 C.3    99  VAL99       0.0019
     44  CG2      -66.0650    8.7840   13.8090 C.3    99  VAL99       0.0019
     45  N        -70.4870    2.2780   12.3670 N.3   111  ALA111     -0.1245
     46  CA       -69.5620    3.3060   12.8060 C.3   111  ALA111      0.1562
     47  C        -69.8290    3.6240   14.2750 C.2   111  ALA111      0.2260
     48  O        -70.9740    3.8580   14.6840 O.2   111  ALA111     -0.2867
     49  CB       -69.6970    4.5620   11.9490 C.3   111  ALA111      0.0290
     50  N        -68.7330    6.2370   17.1050 N.3   113  LYS113     -0.1245
     51  CA       -68.0650    7.4740   17.4800 C.3   113  LYS113      0.1561
     52  C        -67.8150    7.5220   18.9820 C.2   113  LYS113      0.2260
     53  O        -68.7520    7.4690   19.7980 O.2   113  LYS113     -0.2867
     54  CB       -68.8660    8.6980   17.0390 C.3   113  LYS113      0.0271
     55  CG       -68.1250   10.0070   17.3130 C.3   113  LYS113      0.0035
     56  CD       -68.6650   11.1570   16.4860 C.3   113  LYS113      0.0206
     57  CE       -70.1360   11.3950   16.7450 C.3   113  LYS113      0.1093
     58  NZ       -70.6530   12.5060   15.8990 N.3   113  LYS113     -0.1314
     59  N        -73.9720   13.2870   22.7920 N.3   163  TYR163     -0.1241
     60  CA       -74.2100   12.6680   21.4900 C.3   163  TYR163      0.1605
     61  C        -75.6640   12.2340   21.2700 C.2   163  TYR163      0.2264
     62  O        -76.1070   12.0450   20.1260 O.2   163  TYR163     -0.2867
     63  CB       -73.2860   11.4600   21.3160 C.3   163  TYR163      0.0534
     64  CG       -71.8440   11.7910   20.9810 C.ar  163  TYR163     -0.0201
     65  CD1      -71.4740   13.0610   20.5480 C.ar  163  TYR163     -0.0009
     66  CD2      -70.8540   10.8190   21.0770 C.ar  163  TYR163     -0.0009
     67  CE1      -70.1500   13.3520   20.2290 C.ar  163  TYR163      0.0417
     68  CE2      -69.5380   11.0980   20.7610 C.ar  163  TYR163      0.0417
     69  CZ       -69.1890   12.3620   20.3380 C.ar  163  TYR163      0.1957
     70  OH       -67.8740   12.6250   20.0230 O.3   163  TYR163     -0.2866
     71  N        -77.9790   14.7900   18.8230 N.3   166  GLU166     -0.1245
     72  CA       -77.8090   14.5370   17.4000 C.3   166  GLU166      0.1567
     73  C        -78.3400   13.1540   17.0530 C.2   166  GLU166      0.2260
     74  O        -78.9370   12.9660   15.9930 O.2   166  GLU166     -0.2867
     75  CB       -76.3450   14.6600   16.9780 C.3   166  GLU166      0.0388
     76  CG       -76.1430   14.4180   15.4860 C.3   166  GLU166      0.1160
     77  CD       -74.7120   14.6120   15.0340 C.2   166  GLU166      0.3649
     78  OE1      -73.8850   15.0780   15.8460 O.co2 166  GLU166     -0.2457
     79  OE2      -74.4150   14.2980   13.8610 O.co2 166  GLU166     -0.2457
     80  N        -78.3970    6.4460    7.7020 N.3   186  PRO186     -0.2116
     81  CA       -78.1140    5.2640    8.5210 C.3   186  PRO186      0.1372
     82  C        -78.9090    5.2780    9.8190 C.2   186  PRO186      0.2244
     83  O        -79.0820    6.3340   10.4250 O.2   186  PRO186     -0.2868
     84  CB       -76.6080    5.3670    8.7900 C.3   186  PRO186      0.0268
     85  CG       -76.2580    6.7930    8.5350 C.3   186  PRO186      0.0207
     86  CD       -77.2050    7.2820    7.4900 C.3   186  PRO186      0.0892
     87  N        -73.9230    3.8690   14.7630 N.3   198  GLN198     -0.1231
     88  CA       -74.8920    3.8920   13.6680 C.3   198  GLN198      0.1698
     89  C        -74.4730    2.9690   12.5350 C.2   198  GLN198      0.2592
     90  O        -73.3160    2.5830   12.4490 O.2   198  GLN198     -0.2718
     91  CB       -75.0720    5.3140   13.1400 C.3   198  GLN198      0.0381
     92  CG       -73.7970    5.9490   12.6260 C.3   198  GLN198      0.0905
     93  CD       -73.9770    7.4160   12.2910 C.2   198  GLN198      0.2608
     94  OE1      -74.3750    7.7670   11.1800 O.2   198  GLN198     -0.2717
     95  NE2      -73.6900    8.2810   13.2540 N.am  198  GLN198     -0.0878
     96  N        -75.4220    2.6240   11.6690 N.am  199  GLU199     -0.1966
     97  CA       -75.1440    1.7660   10.5220 C.3   199  GLU199      0.1733
     98  C        -74.0330    2.3480    9.6610 C.2   199  GLU199      0.2616
     99  O        -73.9940    3.5510    9.4150 O.2   199  GLU199     -0.2715
    100  CB       -76.4040    1.5680    9.6830 C.3   199  GLU199      0.0429
    101  CG       -77.5090    0.8180   10.4030 C.3   199  GLU199      0.1163
    102  CD       -78.7460    0.6560    9.5470 C.2   199  GLU199      0.3649
    103  OE1      -78.9960    1.5320    8.6900 O.co2 199  GLU199     -0.2457
    104  OE2      -79.4600   -0.3530    9.7220 O.co2 199  GLU199     -0.2457
    105  N        -73.1230    1.4910    9.2190 N.am  200  TRP200     -0.1960
    106  CA       -72.0060    1.9330    8.4010 C.3   200  TRP200      0.1771
    107  C        -72.4400    2.1460    6.9590 C.2   200  TRP200      0.2620
    108  O        -73.0270    1.2620    6.3390 O.2   200  TRP200     -0.2715
    109  CB       -70.8590    0.9200    8.4520 C.3   200  TRP200      0.0590
    110  CG       -69.6820    1.3200    7.6170 C.ar  200  TRP200      0.0006
    111  CD1      -69.4890    1.0590    6.2910 C.ar  200  TRP200      0.0946
    112  CD2      -68.5370    2.0650    8.0500 C.ar  200  TRP200      0.0152
    113  NE1      -68.2940    1.5930    5.8740 N.ar  200  TRP200     -0.2442
    114  CE2      -67.6900    2.2140    6.9340 C.ar  200  TRP200      0.0810
    115  CE3      -68.1460    2.6160    9.2750 C.ar  200  TRP200      0.0012
    116  CZ2      -66.4740    2.8930    7.0060 C.ar  200  TRP200      0.0191
    117  CZ3      -66.9380    3.2880    9.3450 C.ar  200  TRP200      0.0001
    118  CH2      -66.1170    3.4220    8.2160 C.ar  200  TRP200      0.0015
    119  N        -72.1560    3.3270    6.4280 N.am  201  ILE201     -0.1963
    120  CA       -72.3410    3.5650    5.0060 C.3   201  ILE201      0.1727
    121  C        -71.0900    4.2180    4.4500 C.2   201  ILE201      0.2616
    122  O        -70.4330    5.0030    5.1290 O.2   201  ILE201     -0.2715
    123  CB       -73.5720    4.4560    4.7040 C.3   201  ILE201      0.0290
    124  CG1      -73.4020    5.8500    5.3120 C.3   201  ILE201      0.0022
    125  CG2      -74.8540    3.7980    5.1990 C.3   201  ILE201      0.0023
    126  CD1      -74.4470    6.8430    4.8450 C.3   201  ILE201      0.0001
    127  N        -70.7380    3.8800    3.2200 N.am  202  GLU202     -0.1977
    128  CA       -69.6400    4.5780    2.5810 C.3   202  GLU202      0.1602
    129  C        -69.8810    4.7210    1.0920 C.2   202  GLU202      0.2287
    130  O        -70.4910    3.8670    0.4490 O.2   202  GLU202     -0.2864
    131  CB       -68.3080    3.8740    2.8490 C.3   202  GLU202      0.0415
    132  CG       -68.1880    2.4790    2.2760 C.3   202  GLU202      0.1163
    133  CD       -66.8240    1.8770    2.5430 C.2   202  GLU202      0.3649
    134  OE1      -66.7080    1.0530    3.4740 O.co2 202  GLU202     -0.2457
    135  OE2      -65.8650    2.2360    1.8280 O.co2 202  GLU202     -0.2457
    136  N        -68.7810   17.5700    4.4420 N.3   246  GLY246     -0.1210
    137  CA       -68.4680   16.4300    5.2860 C.3   246  GLY246      0.1956
    138  C        -69.6950   15.6460    5.7100 C.2   246  GLY246      0.2611
    139  O        -69.5850   14.4890    6.1080 O.2   246  GLY246     -0.2717
    140  N        -70.8670   16.2710    5.6180 N.am  247  ASN247     -0.1974
    141  CA       -72.1150   15.6170    6.0010 C.3   247  ASN247      0.1688
    142  C        -72.6380   14.6090    4.9740 C.2   247  ASN247      0.2292
    143  O        -73.5010   13.7920    5.2950 O.2   247  ASN247     -0.2864
    144  CB       -73.2130   16.6570    6.2500 C.3   247  ASN247      0.1181
    145  CG       -72.8000   17.7290    7.2420 C.2   247  ASN247      0.2629
    146  OD1      -71.8830   17.5400    8.0390 O.2   247  ASN247     -0.2716
    147  ND2      -73.4880   18.8640    7.1970 N.am  247  ASN247     -0.0877
    148  N        -72.4260   12.0710    1.1650 N.3   249  MET249     -0.1245
    149  CA       -71.6550   11.2540    0.2330 C.3   249  MET249      0.1570
    150  C        -72.5180   10.7360   -0.9140 C.2   249  MET249      0.2261
    151  O        -73.7430   10.7360   -0.8310 O.2   249  MET249     -0.2867
    152  CB       -70.9930   10.0850    0.9690 C.3   249  MET249      0.0387
    153  CG       -71.9680    9.1040    1.6010 C.3   249  MET249      0.0595
    154  SD       -71.1320    7.9330    2.6930 S.3   249  MET249     -0.1393
    155  CE       -70.5260    9.0420    3.9600 C.3   249  MET249      0.0692
    156  N        -74.8720   11.7440    7.0010 N.3   259  ILE259     -0.1231
    157  CA       -74.3930   11.1910    8.2700 C.3   259  ILE259      0.1692
    158  C        -74.3440   12.1620    9.4530 C.2   259  ILE259      0.2592
    159  O        -74.2360   11.7270   10.6000 O.2   259  ILE259     -0.2718
    160  CB       -72.9820   10.5830    8.1150 C.3   259  ILE259      0.0266
    161  CG1      -71.9900   11.6340    7.6170 C.3   259  ILE259      0.0019
    162  CG2      -73.0180    9.3910    7.1770 C.3   259  ILE259      0.0020
    163  CD1      -70.5640   11.1250    7.5260 C.3   259  ILE259      0.0001
    164  N        -74.4190   13.4630    9.1930 N.am  260  ASP260     -0.1974
    165  CA       -74.3330   14.4370   10.2860 C.3   260  ASP260      0.1709
    166  C        -75.6680   15.1450   10.4800 C.2   260  ASP260      0.2293
    167  O        -76.2420   15.6760    9.5300 O.2   260  ASP260     -0.2864
    168  CB       -73.2200   15.4550   10.0190 C.3   260  ASP260      0.1436
    169  CG       -72.7990   16.2180   11.2720 C.2   260  ASP260      0.3671
    170  OD1      -73.6690   16.5610   12.1010 O.co2 260  ASP260     -0.2456
    171  OD2      -71.5870   16.4830   11.4260 O.co2 260  ASP260     -0.2456
@<TRIPOS>BOND
     1   150   151    2
     2   150   149    1
     3   149   152    1
     4   149   148    1
     5   130   129    2
     6   152   153    1
     7   129   128    1
     8   153   154    1
     9   135   133   ar
    10   132   133    1
    11   132   131    1
    12   133   134   ar
    13   128   131    1
    14   128   127    1
    15   154   155    1
    16   127   121   am
    17   136   137    1
    18   121   120    1
    19   121   122    2
    20   123   120    1
    21   123   125    1
    22   123   124    1
    23   126   124    1
    24   142   143    2
    25   142   141    1
    26   120   119    1
    27   137   138    1
    28   140   138   am
    29   140   141    1
    30   138   139    2
    31   113   111   ar
    32   113   114   ar
    33   141   144    1
    34   144   145    1
    35   111   110   ar
    36   108   107    2
    37   119   107   am
    38   114   116   ar
    39   114   112   ar
    40   107   106    1
    41   156   157    1
    42   116   118   ar
    43   162   160    1
    44   147   145   am
    45   145   146    2
    46    86    80    1
    47    86    85    1
    48   163   161    1
    49   110   112   ar
    50   110   109    1
    51   161   160    1
    52    80    81    1
    53   112   115   ar
    54   160   157    1
    55   118   117   ar
    56   157   158    1
    57   106   109    1
    58   106   105    1
    59    81    84    1
    60    81    82    1
    61    85    84    1
    62   103   102   ar
    63     4     3    2
    64   164   158   am
    65   164   165    1
    66   105    98   am
    67   115   117   ar
    68    99    98    2
    69   158   159    2
    70   167   166    2
    71   102   104   ar
    72   102   101    1
    73    98    97    1
    74   100   101    1
    75   100    97    1
    76    82    83    2
    77     5     6    1
    78     5     7    1
    79     5     2    1
    80   168   165    1
    81   168   169    1
    82    12     9    1
    83     3     2    1
    84     3     8   am
    85   165   166    1
    86    97    96    1
    87     2     1    1
    88     9     8    1
    89     9    10    1
    90    94    93    2
    91   169   171   ar
    92   169   170   ar
    93    96    89   am
    94    49    46    1
    95    13    10   am
    96    13    14    1
    97    10    11    2
    98    16    15    2
    99    93    92    1
   100    93    95   am
   101    45    46    1
   102    90    89    2
   103    89    88    1
   104    92    91    1
   105    46    47    1
   106    43    42    1
   107    18    17    1
   108    17    14    1
   109    91    88    1
   110    14    15    1
   111    15    19   am
   112    42    44    1
   113    42    39    1
   114    88    87    1
   115    41    40    2
   116    79    77   ar
   117    47    48    2
   118    40    39    1
   119    19    20    1
   120    20    21    1
   121    20    23    1
   122    39    38    1
   123    77    76    1
   124    77    78   ar
   125    21    24   am
   126    21    22    2
   127    76    75    1
   128    24    25    1
   129    58    57    1
   130    74    73    2
   131    25    28    1
   132    25    26    1
   133    28    29    1
   134    56    57    1
   135    56    55    1
   136    75    72    1
   137    54    55    1
   138    54    51    1
   139    73    72    1
   140    50    51    1
   141    72    71    1
   142    51    52    1
   143    26    27    2
   144    26    30   am
   145    30    31    1
   146    52    53    2
   147    31    32    1
   148    31    34    1
   149    70    69    1
   150    32    33    2
   151    62    61    2
   152    67    69   ar
   153    67    65   ar
   154    69    68   ar
   155    65    64   ar
   156    36    34    1
   157    68    66   ar
   158    35    34    1
   159    35    37    1
   160    64    66   ar
   161    64    63    1
   162    61    60    1
   163    63    60    1
   164    60    59    1
