@<TRIPOS>MOLECULE
tmp/5yk1A00.pdb
 172 164 0 0 0
SMALL
GASTEIGER

@<TRIPOS>ATOM
      1  N         60.9890   -4.8550   12.3010 N.3    93  VAL93      -0.1231
      2  CA        61.0150   -5.1130   10.8700 C.3    93  VAL93       0.1692
      3  C         61.1560   -6.5980   10.6000 C.2    93  VAL93       0.2592
      4  O         60.8420   -7.0610    9.5020 O.2    93  VAL93      -0.2718
      5  CB        62.1590   -4.3660   10.1690 C.3    93  VAL93       0.0266
      6  CG1       62.0110   -2.8730   10.3720 C.3    93  VAL93       0.0020
      7  CG2       63.5020   -4.8420   10.6870 C.3    93  VAL93       0.0020
      8  N         61.6310   -7.3540   11.5860 N.am   94  ALA94      -0.1966
      9  CA        61.7640   -8.7940   11.3520 C.3    94  ALA94       0.1728
     10  C         61.6920   -9.6100   12.6270 C.2    94  ALA94       0.2617
     11  O         61.7130   -9.0650   13.7270 O.2    94  ALA94      -0.2715
     12  CB        63.0660   -9.0870   10.6240 C.3    94  ALA94       0.0334
     13  N         61.5950  -10.9250   12.4710 N.am   95  SER95      -0.1936
     14  CA        61.6600  -11.8250   13.6110 C.3    95  SER95       0.2055
     15  C         62.9720  -12.5950   13.5940 C.2    95  SER95       0.2643
     16  O         63.5170  -12.8990   12.5310 O.2    95  SER95      -0.2714
     17  CB        60.4820  -12.7980   13.6090 C.3    95  SER95       0.2130
     18  OG        60.6600  -13.7920   12.6130 O.3    95  SER95      -0.2179
     19  N         63.4780  -12.8870   14.7850 N.am   96  ALA96      -0.1963
     20  CA        64.6150  -13.7800   14.9600 C.3    96  ALA96       0.1728
     21  C         64.1250  -15.0260   15.6850 C.2    96  ALA96       0.2616
     22  O         62.9460  -15.1110   16.0430 O.2    96  ALA96      -0.2715
     23  CB        65.7330  -13.0920   15.7340 C.3    96  ALA96       0.0334
     24  N         65.0130  -15.9900   15.9070 N.am   97  SER97      -0.1950
     25  CA        64.6030  -17.2660   16.4870 C.3    97  SER97       0.1924
     26  C         64.0460  -17.0970   17.9000 C.2    97  SER97       0.2314
     27  O         63.0080  -17.6740   18.2280 O.2    97  SER97      -0.2863
     28  CB        65.7720  -18.2580   16.4850 C.3    97  SER97       0.2116
     29  OG        66.9180  -17.7100   17.1070 O.3    97  SER97      -0.2180
     30  N         63.7700   -8.0040   15.4180 N.3   101  VAL101     -0.1245
     31  CA        64.7180   -7.0480   14.8820 C.3   101  VAL101      0.1561
     32  C         64.0340   -5.7420   14.5120 C.2   101  VAL101      0.2260
     33  O         63.0230   -5.7340   13.7800 O.2   101  VAL101     -0.2867
     34  CB        65.4380   -7.6040   13.6430 C.3   101  VAL101      0.0252
     35  CG1       66.4730   -6.6000   13.1350 C.3   101  VAL101      0.0019
     36  CG2       66.0870   -8.9440   13.9690 C.3   101  VAL101      0.0019
     37  N         70.5370   -2.3280   12.4710 N.3   113  ALA113     -0.1245
     38  CA        69.6080   -3.3480   12.9260 C.3   113  ALA113      0.1562
     39  C         69.8990   -3.6760   14.3910 C.2   113  ALA113      0.2260
     40  O         71.0590   -3.9020   14.7880 O.2   113  ALA113     -0.2867
     41  CB        69.7130   -4.6110   12.0620 C.3   113  ALA113      0.0290
     42  N         68.8230   -6.3210   17.2410 N.3   115  LYS115     -0.1245
     43  CA        68.1640   -7.5640   17.6040 C.3   115  LYS115      0.1561
     44  C         67.9640   -7.6160   19.1100 C.2   115  LYS115      0.2260
     45  O         68.9280   -7.5700   19.8920 O.2   115  LYS115     -0.2867
     46  CB        68.9540   -8.7780   17.1190 C.3   115  LYS115      0.0271
     47  CG        68.2510  -10.1000   17.4450 C.3   115  LYS115      0.0035
     48  CD        68.8330  -11.2650   16.6670 C.3   115  LYS115      0.0206
     49  CE        70.3130  -11.4400   16.9350 C.3   115  LYS115      0.1093
     50  NZ        70.8870  -12.5570   16.1310 N.3   115  LYS115     -0.1314
     51  N         72.5480  -19.6400   21.6530 N.3   162  GLU162     -0.1245
     52  CA        71.2670  -18.9760   21.4200 C.3   162  GLU162      0.1567
     53  C         71.0200  -17.8170   22.3880 C.2   162  GLU162      0.2260
     54  O         70.4480  -16.7900   22.0060 O.2   162  GLU162     -0.2867
     55  CB        70.1140  -19.9800   21.5110 C.3   162  GLU162      0.0388
     56  CG        69.9760  -20.8710   20.2840 C.3   162  GLU162      0.1160
     57  CD        69.5560  -20.1010   19.0390 C.2   162  GLU162      0.3649
     58  OE1       68.8160  -19.1040   19.1690 O.co2 162  GLU162     -0.2457
     59  OE2       69.9700  -20.4910   17.9260 O.co2 162  GLU162     -0.2457
     60  N         74.1200  -13.2370   22.8790 N.3   165  TYR165     -0.1241
     61  CA        74.3390  -12.6200   21.5740 C.3   165  TYR165      0.1605
     62  C         75.7900  -12.1620   21.3540 C.2   165  TYR165      0.2264
     63  O         76.2260  -11.9350   20.2130 O.2   165  TYR165     -0.2867
     64  CB        73.3860  -11.4370   21.4050 C.3   165  TYR165      0.0534
     65  CG        71.9420  -11.8030   21.1050 C.ar  165  TYR165     -0.0201
     66  CD1       71.5820  -13.0910   20.7100 C.ar  165  TYR165     -0.0009
     67  CD2       70.9420  -10.8460   21.1970 C.ar  165  TYR165     -0.0009
     68  CE1       70.2510  -13.4090   20.4230 C.ar  165  TYR165      0.0417
     69  CE2       69.6240  -11.1500   20.9180 C.ar  165  TYR165      0.0417
     70  CZ        69.2800  -12.4230   20.5260 C.ar  165  TYR165      0.1957
     71  OH        67.9570  -12.6870   20.2430 O.3   165  TYR165     -0.2866
     72  N         78.0390  -14.6580   18.9830 N.3   168  GLU168     -0.1245
     73  CA        77.8140  -14.3930   17.5720 C.3   168  GLU168      0.1567
     74  C         78.4470  -13.0600   17.1900 C.2   168  GLU168      0.2260
     75  O         79.0680  -12.9490   16.1340 O.2   168  GLU168     -0.2867
     76  CB        76.3220  -14.3820   17.2450 C.3   168  GLU168      0.0388
     77  CG        76.0360  -14.2250   15.7630 C.3   168  GLU168      0.1160
     78  CD        74.5990  -13.8380   15.4730 C.2   168  GLU168      0.3649
     79  OE1       73.9360  -13.2750   16.3720 O.co2 168  GLU168     -0.2457
     80  OE2       74.1370  -14.0950   14.3410 O.co2 168  GLU168     -0.2457
     81  N         78.3950   -6.4850    7.6750 N.3   188  PRO188     -0.2116
     82  CA        78.1070   -5.3090    8.5020 C.3   188  PRO188      0.1372
     83  C         78.9140   -5.3160    9.7920 C.2   188  PRO188      0.2244
     84  O         79.0970   -6.3750   10.3900 O.2   188  PRO188     -0.2868
     85  CB        76.6050   -5.4320    8.7910 C.3   188  PRO188      0.0268
     86  CG        76.2610   -6.8540    8.5040 C.3   188  PRO188      0.0207
     87  CD        77.2030   -7.3190    7.4500 C.3   188  PRO188      0.0892
     88  N         74.0470   -4.0200   14.7890 N.3   200  GLN200     -0.1231
     89  CA        74.9850   -4.0180   13.6670 C.3   200  GLN200      0.1698
     90  C         74.5360   -3.0650   12.5680 C.2   200  GLN200      0.2592
     91  O         73.3780   -2.6570   12.5290 O.2   200  GLN200     -0.2718
     92  CB        75.1510   -5.4290   13.1000 C.3   200  GLN200      0.0381
     93  CG        73.8920   -6.0000   12.4810 C.3   200  GLN200      0.0905
     94  CD        73.9960   -7.4980   12.2260 C.2   200  GLN200      0.2608
     95  OE1       74.0480   -7.9390   11.0810 O.2   200  GLN200     -0.2717
     96  NE2       74.0170   -8.2820   13.2950 N.am  200  GLN200     -0.0878
     97  N         75.4580   -2.7140   11.6790 N.am  201  GLU201     -0.1966
     98  CA        75.1430   -1.8300   10.5650 C.3   201  GLU201      0.1733
     99  C         74.0360   -2.4230    9.7180 C.2   201  GLU201      0.2616
    100  O         74.0020   -3.6300    9.4790 O.2   201  GLU201     -0.2715
    101  CB        76.3740   -1.5830    9.7080 C.3   201  GLU201      0.0429
    102  CG        77.4830   -0.8530   10.4290 C.3   201  GLU201      0.1163
    103  CD        78.6910   -0.6730    9.5460 C.2   201  GLU201      0.3649
    104  OE1       78.9780   -1.5940    8.7460 O.co2 201  GLU201     -0.2457
    105  OE2       79.3360    0.3870    9.6390 O.co2 201  GLU201     -0.2457
    106  N         73.1190   -1.5690    9.2870 N.am  202  TRP202     -0.1960
    107  CA        72.0060   -1.9970    8.4580 C.3   202  TRP202      0.1771
    108  C         72.4610   -2.2230    7.0240 C.2   202  TRP202      0.2620
    109  O         73.0470   -1.3410    6.3980 O.2   202  TRP202     -0.2715
    110  CB        70.8790   -0.9520    8.4850 C.3   202  TRP202      0.0590
    111  CG        69.6780   -1.3630    7.6860 C.ar  202  TRP202      0.0006
    112  CD1       69.4590   -1.1340    6.3580 C.ar  202  TRP202      0.0946
    113  CD2       68.5360   -2.0890    8.1620 C.ar  202  TRP202      0.0152
    114  NE1       68.2500   -1.6660    5.9790 N.ar  202  TRP202     -0.2442
    115  CE2       67.6630   -2.2560    7.0680 C.ar  202  TRP202      0.0810
    116  CE3       68.1650   -2.6070    9.4100 C.ar  202  TRP202      0.0012
    117  CZ2       66.4400   -2.9200    7.1810 C.ar  202  TRP202      0.0191
    118  CZ3       66.9490   -3.2650    9.5220 C.ar  202  TRP202      0.0001
    119  CH2       66.1020   -3.4180    8.4110 C.ar  202  TRP202      0.0015
    120  N         72.2030   -3.4080    6.5000 N.am  203  ILE203     -0.1963
    121  CA        72.3910   -3.6150    5.0770 C.3   203  ILE203      0.1727
    122  C         71.1400   -4.2690    4.5180 C.2   203  ILE203      0.2616
    123  O         70.4770   -5.0500    5.1970 O.2   203  ILE203     -0.2715
    124  CB        73.6390   -4.4780    4.7530 C.3   203  ILE203      0.0290
    125  CG1       73.4890   -5.8940    5.3020 C.3   203  ILE203      0.0022
    126  CG2       74.9150   -3.8240    5.2830 C.3   203  ILE203      0.0023
    127  CD1       74.5580   -6.8360    4.7950 C.3   203  ILE203      0.0001
    128  N         70.7980   -3.9210    3.2870 N.am  204  GLU204     -0.1977
    129  CA        69.6900   -4.5820    2.6290 C.3   204  GLU204      0.1602
    130  C         69.9690   -4.7400    1.1430 C.2   204  GLU204      0.2287
    131  O         70.6510   -3.9330    0.5220 O.2   204  GLU204     -0.2864
    132  CB        68.3860   -3.8190    2.8550 C.3   204  GLU204      0.0415
    133  CG        68.3490   -2.4450    2.2260 C.3   204  GLU204      0.1163
    134  CD        66.9850   -1.8010    2.3460 C.2   204  GLU204      0.3649
    135  OE1       66.4530   -1.7370    3.4760 O.co2 204  GLU204     -0.2457
    136  OE2       66.4440   -1.3700    1.3080 O.co2 204  GLU204     -0.2457
    137  N         68.6750  -17.4530    4.3030 N.3   248  GLY248     -0.1210
    138  CA        68.3280  -16.3250    5.1500 C.3   248  GLY248      0.1956
    139  C         69.5330  -15.5050    5.5750 C.2   248  GLY248      0.2611
    140  O         69.3950  -14.3460    5.9440 O.2   248  GLY248     -0.2717
    141  N         70.7190  -16.1060    5.5140 N.am  249  ASN249     -0.1974
    142  CA        71.9440  -15.4290    5.9240 C.3   249  ASN249      0.1688
    143  C         72.5630  -14.5190    4.8530 C.2   249  ASN249      0.2292
    144  O         73.5160  -13.7900    5.1340 O.2   249  ASN249     -0.2864
    145  CB        72.9870  -16.4610    6.3570 C.3   249  ASN249      0.1181
    146  CG        72.4850  -17.3740    7.4670 C.2   249  ASN249      0.2629
    147  OD1       71.5410  -17.0410    8.1820 O.2   249  ASN249     -0.2716
    148  ND2       73.1170  -18.5290    7.6120 N.am  249  ASN249     -0.0877
    149  N         72.3880  -11.9900    1.0670 N.3   251  MET251     -0.1245
    150  CA        71.6340  -11.1610    0.1300 C.3   251  MET251      0.1570
    151  C         72.4950  -10.6640   -1.0310 C.2   251  MET251      0.2261
    152  O         73.7200  -10.6550   -0.9530 O.2   251  MET251     -0.2867
    153  CB        71.0060   -9.9730    0.8610 C.3   251  MET251      0.0387
    154  CG        72.0090   -9.0420    1.5270 C.3   251  MET251      0.0595
    155  SD        71.2330   -7.9320    2.7250 S.3   251  MET251     -0.1393
    156  CE        70.4400   -9.1050    3.8150 C.3   251  MET251      0.0692
    157  N         74.8980  -11.7080    6.8620 N.3   261  ILE261     -0.1231
    158  CA        74.4120  -11.0930    8.1040 C.3   261  ILE261      0.1692
    159  C         74.3760  -11.9750    9.3480 C.2   261  ILE261      0.2592
    160  O         74.2730  -11.4540   10.4630 O.2   261  ILE261     -0.2718
    161  CB        72.9900  -10.5240    7.9270 C.3   261  ILE261      0.0266
    162  CG1       71.9910  -11.6470    7.6430 C.3   261  ILE261      0.0019
    163  CG2       72.9650   -9.4810    6.8330 C.3   261  ILE261      0.0020
    164  CD1       70.5630  -11.1650    7.5440 C.3   261  ILE261      0.0001
    165  N         74.4460  -13.2910    9.1840 N.am  262  ASP262     -0.1974
    166  CA        74.3140  -14.1870   10.3400 C.3   262  ASP262      0.1709
    167  C         75.6220  -14.9400   10.5850 C.2   262  ASP262      0.2293
    168  O         76.2040  -15.5050    9.6560 O.2   262  ASP262     -0.2864
    169  CB        73.1580  -15.1670   10.1190 C.3   262  ASP262      0.1436
    170  CG        72.7580  -15.9250   11.3830 C.2   262  ASP262      0.3671
    171  OD1       73.5740  -16.0360   12.3250 O.co2 262  ASP262     -0.2456
    172  OD2       71.6170  -16.4310   11.4270 O.co2 262  ASP262     -0.2456
@<TRIPOS>BOND
     1   151   152    2
     2   151   150    1
     3   150   153    1
     4   150   149    1
     5   131   130    2
     6   153   154    1
     7   130   129    1
     8   136   134   ar
     9   154   155    1
    10   133   134    1
    11   133   132    1
    12   134   135   ar
    13   129   132    1
    14   129   128    1
    15   155   156    1
    16   128   122   am
    17   137   138    1
    18   122   121    1
    19   122   123    2
    20   124   121    1
    21   124   126    1
    22   124   125    1
    23   127   125    1
    24   143   144    2
    25   143   142    1
    26   121   120    1
    27   138   139    1
    28   141   139   am
    29   141   142    1
    30   139   140    2
    31   142   145    1
    32   114   112   ar
    33   114   115   ar
    34   145   146    1
    35   112   111   ar
    36   109   108    2
    37   120   108   am
    38   163   161    1
    39   157   158    1
    40   108   107    1
    41   115   117   ar
    42   115   113   ar
    43   117   119   ar
    44    87    81    1
    45    87    86    1
    46   146   148   am
    47   146   147    2
    48   164   162    1
    49   162   161    1
    50    81    82    1
    51   111   113   ar
    52   111   110    1
    53   161   158    1
    54   158   159    1
    55   113   116   ar
    56   119   118   ar
    57   107   110    1
    58   107   106    1
    59    82    85    1
    60    82    83    1
    61    86    85    1
    62   104   103   ar
    63   165   159   am
    64   165   166    1
    65   106    99   am
    66   159   160    2
    67   116   118   ar
    68   100    99    2
    69     4     3    2
    70   103   105   ar
    71   103   102    1
    72   168   167    2
    73   101   102    1
    74   101    98    1
    75    99    98    1
    76    83    84    2
    77   169   166    1
    78   169   170    1
    79     5     6    1
    80     5     7    1
    81     5     2    1
    82   166   167    1
    83    98    97    1
    84     3     2    1
    85     3     8   am
    86    12     9    1
    87     2     1    1
    88    95    94    2
    89     9     8    1
    90     9    10    1
    91   170   172   ar
    92   170   171   ar
    93    97    90   am
    94    41    38    1
    95    94    93    1
    96    94    96   am
    97    13    10   am
    98    13    14    1
    99    37    38    1
   100    93    92    1
   101    91    90    2
   102    16    15    2
   103    90    89    1
   104    18    17    1
   105    10    11    2
   106    38    39    1
   107    92    89    1
   108    35    34    1
   109    15    14    1
   110    15    19   am
   111    17    14    1
   112    34    36    1
   113    34    31    1
   114    89    88    1
   115    33    32    2
   116    80    78   ar
   117    39    40    2
   118    32    31    1
   119    19    20    1
   120    31    30    1
   121    20    21    1
   122    20    23    1
   123    78    77    1
   124    78    79   ar
   125    21    24   am
   126    21    22    2
   127    77    76    1
   128    24    25    1
   129    50    49    1
   130    75    74    2
   131    28    25    1
   132    28    29    1
   133    25    26    1
   134    48    49    1
   135    48    47    1
   136    46    47    1
   137    46    43    1
   138    74    73    1
   139    42    43    1
   140    76    73    1
   141    73    72    1
   142    43    44    1
   143    26    27    2
   144    59    57   ar
   145    57    58   ar
   146    57    56    1
   147    44    45    2
   148    63    62    2
   149    71    70    1
   150    56    55    1
   151    68    70   ar
   152    68    66   ar
   153    70    69   ar
   154    66    65   ar
   155    69    67   ar
   156    65    67   ar
   157    65    64    1
   158    62    61    1
   159    64    61    1
   160    52    55    1
   161    52    51    1
   162    52    53    1
   163    61    60    1
   164    54    53    2
