@<TRIPOS>MOLECULE
tmp/5yk4B00.pdb
 138 133 0 0 0
SMALL
GASTEIGER

@<TRIPOS>ATOM
      1  N         10.0050  -35.2100  -44.5930 N.3   579  VAL579     -0.1245
      2  CA         9.6100  -33.8420  -44.9230 C.3   579  VAL579      0.1561
      3  C          8.1020  -33.6470  -44.7180 C.2   579  VAL579      0.2260
      4  O          7.6470  -32.5400  -44.4290 O.2   579  VAL579     -0.2867
      5  CB        10.0450  -33.4790  -46.3540 C.3   579  VAL579      0.0252
      6  CG1        9.6430  -32.0540  -46.7100 C.3   579  VAL579      0.0019
      7  CG2       11.5500  -33.6660  -46.5040 C.3   579  VAL579      0.0019
      8  N          7.4700  -31.9810  -41.5860 N.3   582  GLN582     -0.1231
      9  CA         8.1650  -30.7150  -41.3700 C.3   582  GLN582      0.1698
     10  C          7.4020  -29.4840  -41.8630 C.2   582  GLN582      0.2592
     11  O          7.7240  -28.3710  -41.4670 O.2   582  GLN582     -0.2718
     12  CB         9.5460  -30.7420  -42.0290 C.3   582  GLN582      0.0381
     13  CG        10.5230  -31.7310  -41.4120 C.3   582  GLN582      0.0905
     14  CD        11.8390  -31.8030  -42.1720 C.2   582  GLN582      0.2608
     15  OE1       12.8720  -32.1890  -41.6200 O.2   582  GLN582     -0.2717
     16  NE2       11.8090  -31.4260  -43.4470 N.am  582  GLN582     -0.0878
     17  N          6.3980  -29.6750  -42.7150 N.am  583  VAL583     -0.1980
     18  CA         5.7490  -28.5530  -43.3750 C.3   583  VAL583      0.1595
     19  C          4.2610  -28.4830  -43.0640 C.2   583  VAL583      0.2287
     20  O          3.6670  -27.3980  -43.0740 O.2   583  VAL583     -0.2864
     21  CB         5.9650  -28.6080  -44.9030 C.3   583  VAL583      0.0276
     22  CG1        7.4400  -28.4390  -45.2310 C.3   583  VAL583      0.0022
     23  CG2        5.4210  -29.9060  -45.4780 C.3   583  VAL583      0.0022
     24  N          2.0380  -29.2670  -44.9480 N.3   585  HIS585     -0.1226
     25  CA         1.3490  -29.0090  -46.2000 C.3   585  HIS585      0.1752
     26  C          2.2070  -29.4820  -47.3630 C.2   585  HIS585      0.2596
     27  O          2.7390  -28.6740  -48.1260 O.2   585  HIS585     -0.2718
     28  CB         0.9940  -27.5300  -46.3480 C.3   585  HIS585      0.0759
     29  CG        -0.1660  -27.2860  -47.2610 C.ar  585  HIS585      0.0818
     30  ND1       -1.0460  -28.2850  -47.6230 N.ar  585  HIS585     -0.2268
     31  CD2       -0.6060  -26.1580  -47.8670 C.ar  585  HIS585      0.1154
     32  CE1       -1.9700  -27.7840  -48.4230 C.ar  585  HIS585      0.1986
     33  NE2       -1.7280  -26.4950  -48.5850 N.ar  585  HIS585     -0.2212
     34  N          2.3370  -30.7990  -47.4840 N.am  586  PHE586     -0.1962
     35  CA         3.1920  -31.4060  -48.4940 C.3   586  PHE586      0.1771
     36  C          2.3940  -31.7270  -49.7510 C.2   586  PHE586      0.2620
     37  O          1.2100  -32.0560  -49.6800 O.2   586  PHE586     -0.2715
     38  CB         3.8490  -32.6710  -47.9330 C.3   586  PHE586      0.0574
     39  CG         4.9470  -33.2300  -48.7950 C.ar  586  PHE586     -0.0200
     40  CD1        4.6700  -34.1850  -49.7640 C.ar  586  PHE586     -0.0042
     41  CD2        6.2580  -32.8300  -48.6150 C.ar  586  PHE586     -0.0042
     42  CE1        5.6790  -34.7100  -50.5530 C.ar  586  PHE586     -0.0003
     43  CE2        7.2740  -33.3600  -49.4010 C.ar  586  PHE586     -0.0003
     44  CZ         6.9820  -34.2990  -50.3720 C.ar  586  PHE586     -0.0000
     45  N          3.0530  -31.6270  -50.9000 N.am  587  THR587     -0.1951
     46  CA         2.4230  -31.8900  -52.1900 C.3   587  THR587      0.1897
     47  C          2.8510  -33.2640  -52.6960 C.2   587  THR587      0.2313
     48  O          4.0300  -33.4860  -52.9920 O.2   587  THR587     -0.2863
     49  CB         2.8080  -30.8100  -53.2130 C.3   587  THR587      0.1794
     50  OG1        2.5270  -29.5180  -52.6640 O.3   587  THR587     -0.2208
     51  CG2        2.0330  -31.0010  -54.4950 C.3   587  THR587      0.0378
     52  N          3.4160  -36.3750  -55.1760 N.3   589  ASN589     -0.1240
     53  CA         3.8330  -36.4690  -56.5700 C.3   589  ASN589      0.1653
     54  C          3.9100  -37.9300  -56.9990 C.2   589  ASN589      0.2266
     55  O          3.6450  -38.8390  -56.2140 O.2   589  ASN589     -0.2867
     56  CB         5.1830  -35.7750  -56.7900 C.3   589  ASN589      0.1155
     57  CG         5.1120  -34.2760  -56.5740 C.2   589  ASN589      0.2627
     58  OD1        4.9920  -33.5130  -57.5270 O.2   589  ASN589     -0.2716
     59  ND2        5.1850  -33.8460  -55.3190 N.am  589  ASN589     -0.0877
     60  N         13.9390  -24.3510  -60.8510 N.3   605  PRO605     -0.2102
     61  CA        14.6260  -23.4290  -59.9550 C.3   605  PRO605      0.1504
     62  C         14.9010  -24.0500  -58.5840 C.2   605  PRO605      0.2576
     63  O         14.4600  -25.1690  -58.2940 O.2   605  PRO605     -0.2718
     64  CB        13.6540  -22.2500  -59.8440 C.3   605  PRO605      0.0282
     65  CG        12.3290  -22.8090  -60.1980 C.3   605  PRO605      0.0208
     66  CD        12.5800  -23.9010  -61.1940 C.3   605  PRO605      0.0893
     67  N         15.6350  -23.3070  -57.7580 N.am  606  ASN606     -0.1961
     68  CA        16.1210  -23.8030  -56.4860 C.3   606  ASN606      0.1819
     69  C         15.0210  -24.2910  -55.5420 C.2   606  ASN606      0.2621
     70  O         14.7160  -25.4820  -55.4960 O.2   606  ASN606     -0.2715
     71  CB        17.0000  -22.7650  -55.7870 C.3   606  ASN606      0.1195
     72  CG        18.4650  -23.1480  -55.7880 C.2   606  ASN606      0.2630
     73  OD1       18.8700  -24.1070  -56.4340 O.2   606  ASN606     -0.2716
     74  ND2       19.2630  -22.4000  -55.0520 N.am  606  ASN606     -0.0877
     75  N         14.4130  -23.3810  -54.7920 N.am  607  MET607     -0.1977
     76  CA        13.4670  -23.7780  -53.7510 C.3   607  MET607      0.1605
     77  C         12.2200  -24.4780  -54.2980 C.2   607  MET607      0.2287
     78  O         11.1830  -24.4990  -53.6340 O.2   607  MET607     -0.2864
     79  CB        13.0640  -22.5540  -52.9310 C.3   607  MET607      0.0413
     80  CG        14.2210  -21.8380  -52.2510 C.3   607  MET607      0.0598
     81  SD        14.7700  -22.7380  -50.8060 S.3   607  MET607     -0.1393
     82  CE        13.3550  -22.5520  -49.7080 C.3   607  MET607      0.0692
     83  N         12.0210  -27.8590  -55.3350 N.3   609  GLY609     -0.1210
     84  CA        11.9450  -29.0830  -54.5400 C.3   609  GLY609      0.1956
     85  C         12.2380  -30.3340  -55.3250 C.2   609  GLY609      0.2612
     86  O         11.4180  -31.2630  -55.3290 O.2   609  GLY609     -0.2717
     87  N         13.3920  -30.3860  -55.9920 N.am  610  LYS610     -0.1965
     88  CA        13.7540  -31.6050  -56.7200 C.3   610  LYS610      0.1728
     89  C         14.5600  -32.5880  -55.8740 C.2   610  LYS610      0.2617
     90  O         14.3660  -33.8000  -55.9710 O.2   610  LYS610     -0.2715
     91  CB        14.4560  -31.2930  -58.0390 C.3   610  LYS610      0.0311
     92  CG        15.4920  -30.2010  -57.9800 C.3   610  LYS610      0.0038
     93  CD        15.7860  -29.6520  -59.3840 C.3   610  LYS610      0.0206
     94  CE        16.9280  -28.6470  -59.3610 C.3   610  LYS610      0.1093
     95  NZ        16.5080  -27.4320  -58.6000 N.3   610  LYS610     -0.1314
     96  N         15.4440  -32.0750  -55.0280 N.am  611  SER611     -0.1936
     97  CA        16.1380  -32.9270  -54.0710 C.3   611  SER611      0.2055
     98  C         15.1600  -33.6730  -53.1690 C.2   611  SER611      0.2643
     99  O         15.3000  -34.8820  -52.9350 O.2   611  SER611     -0.2714
    100  CB        17.1460  -32.1260  -53.2420 C.3   611  SER611      0.2130
    101  OG        18.0500  -31.4080  -54.0800 O.3   611  SER611     -0.2179
    102  N         14.1630  -32.9560  -52.6670 N.am  612  THR612     -0.1950
    103  CA        13.1510  -33.5690  -51.8150 C.3   612  THR612      0.1897
    104  C         12.3810  -34.6760  -52.5360 C.2   612  THR612      0.2313
    105  O         12.0070  -35.6800  -51.9250 O.2   612  THR612     -0.2863
    106  CB        12.1990  -32.5140  -51.2610 C.3   612  THR612      0.1794
    107  OG1       12.9790  -31.4830  -50.6450 O.3   612  THR612     -0.2208
    108  CG2       11.2740  -33.1190  -50.2130 C.3   612  THR612      0.0378
    109  N         15.0740  -37.7890  -52.9590 N.3   615  ARG615     -0.1245
    110  CA        15.1130  -38.4800  -51.6790 C.3   615  ARG615      0.1563
    111  C         13.7600  -39.1290  -51.3570 C.2   615  ARG615      0.2260
    112  O         13.7050  -40.1670  -50.6900 O.2   615  ARG615     -0.2867
    113  CB        15.5150  -37.5270  -50.5540 C.3   615  ARG615      0.0307
    114  CG        16.7830  -36.7430  -50.8070 C.3   615  ARG615      0.0489
    115  CD        17.0380  -35.7620  -49.6770 C.3   615  ARG615      0.2205
    116  NE        17.9920  -34.7230  -50.0610 N.pl3 615  ARG615     -0.0865
    117  CZ        18.3900  -33.7430  -49.2580 C.cat 615  ARG615      0.5346
    118  NH1       17.9230  -33.6810  -48.0110 N.pl3 615  ARG615      0.1354
    119  NH2       19.2580  -32.8320  -49.6960 N.pl3 615  ARG615      0.1354
    120  N         22.6550  -32.4640  -58.9300 N.3   669  GLU669     -0.1245
    121  CA        23.4590  -31.3310  -59.4020 C.3   669  GLU669      0.1567
    122  C         24.9570  -31.6530  -59.4030 C.2   669  GLU669      0.2260
    123  O         25.7630  -31.0080  -58.7400 O.2   669  GLU669     -0.2867
    124  CB        23.1730  -30.0780  -58.5720 C.3   669  GLU669      0.0388
    125  CG        21.7220  -29.6370  -58.5860 C.3   669  GLU669      0.1160
    126  CD        21.4700  -28.3920  -57.7490 C.2   669  GLU669      0.3649
    127  OE1       22.4360  -27.6370  -57.4820 O.co2 669  GLU669     -0.2457
    128  OE2       20.2930  -28.1760  -57.3590 O.co2 669  GLU669     -0.2457
    129  N          5.2590  -26.9290  -55.4920 N.3   735  HIS735     -0.1241
    130  CA         6.0010  -28.1870  -55.5720 C.3   735  HIS735      0.1621
    131  C          5.2130  -29.2850  -56.2900 C.2   735  HIS735      0.2264
    132  O          4.9010  -30.3370  -55.7180 O.2   735  HIS735     -0.2867
    133  CB         6.4540  -28.6490  -54.1750 C.3   735  HIS735      0.0745
    134  CG         6.8680  -27.5310  -53.2650 C.ar  735  HIS735      0.0817
    135  ND1        8.1190  -26.9540  -53.3150 N.ar  735  HIS735     -0.2268
    136  CD2        6.1960  -26.8900  -52.2780 C.ar  735  HIS735      0.1154
    137  CE1        8.2020  -26.0080  -52.3960 C.ar  735  HIS735      0.1986
    138  NE2        7.0510  -25.9520  -51.7490 N.ar  735  HIS735     -0.2212
@<TRIPOS>BOND
     1    66    60    1
     2    66    65    1
     3    60    61    1
     4    65    64    1
     5    61    64    1
     6    61    62    1
     7   122   121    1
     8   122   123    2
     9   121   120    1
    10   121   124    1
    11    93    94    1
    12    93    92    1
    13    94    95    1
    14   125   124    1
    15   125   126    1
    16    62    63    2
    17    62    67   am
    18    91    92    1
    19    91    88    1
    20    67    68    1
    21   126   127   ar
    22   126   128   ar
    23    58    57    2
    24    54    53    1
    25    54    55    2
    26    56    57    1
    27    56    53    1
    28    88    87    1
    29    88    89    1
    30    57    59   am
    31    53    52    1
    32    68    71    1
    33    68    69    1
    34    73    72    2
    35   131   132    2
    36   131   130    1
    37    87    85   am
    38    90    89    2
    39    89    96   am
    40    72    71    1
    41    72    74   am
    42   130   129    1
    43   130   133    1
    44    69    70    2
    45    69    75   am
    46    83    84    1
    47    86    85    2
    48    85    84    1
    49    96    97    1
    50    75    76    1
    51    51    49    1
    52    77    76    1
    53    77    78    2
    54   133   134    1
    55   101   100    1
    56    97   100    1
    57    97    98    1
    58    76    79    1
    59   135   134   ar
    60   135   137   ar
    61   134   136   ar
    62    49    50    1
    63    49    46    1
    64    98    99    2
    65    98   102   am
    66    48    47    2
    67   109   110    1
    68    79    80    1
    69    47    46    1
    70   102   103    1
    71   104   105    2
    72   104   103    1
    73   137   138   ar
    74   136   138   ar
    75    80    81    1
    76    46    45    1
    77   103   106    1
    78   110   111    1
    79   110   113    1
    80   111   112    2
    81   106   107    1
    82   106   108    1
    83    45    36   am
    84   114   113    1
    85   114   115    1
    86    81    82    1
    87    42    44   ar
    88    42    40   ar
    89    44    43   ar
    90   116   115    1
    91   116   117    2
    92    40    39   ar
    93    36    37    2
    94    36    35    1
    95   119   117    1
    96    43    41   ar
    97   117   118    1
    98    39    41   ar
    99    39    38    1
   100    33    32   ar
   101    33    31   ar
   102    35    38    1
   103    35    34    1
   104    32    30   ar
   105    27    26    2
   106    31    29   ar
   107    30    29   ar
   108    34    26   am
   109    26    25    1
   110    29    28    1
   111     6     5    1
   112     7     5    1
   113     5     2    1
   114    28    25    1
   115    25    24    1
   116    23    21    1
   117    22    21    1
   118     2     3    1
   119     2     1    1
   120    21    18    1
   121     3     4    2
   122    16    14   am
   123    18    19    1
   124    18    17    1
   125    20    19    2
   126    17    10   am
   127    14    15    2
   128    14    13    1
   129    12    13    1
   130    12     9    1
   131    10    11    2
   132    10     9    1
   133     8     9    1
