@<TRIPOS>MOLECULE
tmp/5yk6A01.pdb
 96 99 0 0 0
SMALL
GASTEIGER

@<TRIPOS>ATOM
      1  N         35.5150    0.9510   64.6310 N.3    28  TRP28      -0.1241
      2  CA        36.5620    1.9380   64.3950 C.3    28  TRP28       0.1605
      3  C         37.9560    1.2940   64.3690 C.2    28  TRP28       0.2264
      4  O         38.8320    1.7070   63.6010 O.2    28  TRP28      -0.2867
      5  CB        36.5080    3.0240   65.4680 C.3    28  TRP28       0.0550
      6  CG        36.7150    2.4720   66.8420 C.ar   28  TRP28       0.0003
      7  CD1       35.7670    1.9080   67.6530 C.ar   28  TRP28       0.0946
      8  CD2       37.9500    2.4130   67.5660 C.ar   28  TRP28       0.0152
      9  NE1       36.3350    1.5060   68.8340 N.ar   28  TRP28      -0.2442
     10  CE2       37.6740    1.8020   68.8100 C.ar   28  TRP28       0.0810
     11  CE3       39.2630    2.8170   67.2850 C.ar   28  TRP28       0.0012
     12  CZ2       38.6660    1.5790   69.7750 C.ar   28  TRP28       0.0191
     13  CZ3       40.2510    2.5980   68.2480 C.ar   28  TRP28       0.0001
     14  CH2       39.9420    1.9820   69.4770 C.ar   28  TRP28       0.0015
     15  N         46.8710   -5.0670   79.0460 N.3   153  LEU153     -0.1245
     16  CA        48.1520   -4.3540   79.1320 C.3   153  LEU153      0.1561
     17  C         48.6970   -4.4510   80.5550 C.2   153  LEU153      0.2260
     18  O         48.2200   -3.7480   81.4490 O.2   153  LEU153     -0.2867
     19  CB        47.9900   -2.8930   78.7060 C.3   153  LEU153      0.0270
     20  CG        47.1070   -2.6510   77.4720 C.3   153  LEU153      0.0019
     21  CD1       46.8050   -1.1680   77.2420 C.3   153  LEU153      0.0001
     22  CD2       47.7500   -3.2570   76.2390 C.3   153  LEU153      0.0001
     23  N         59.1560   -3.1960   82.3240 N.3   167  GLY167     -0.1210
     24  CA        58.3350   -2.2770   81.5580 C.3   167  GLY167      0.1956
     25  C         56.8840   -2.7100   81.4980 C.2   167  GLY167      0.2611
     26  O         56.4110   -3.4510   82.3610 O.2   167  GLY167     -0.2717
     27  N         56.1740   -2.2460   80.4750 N.am  168  TYR168     -0.1976
     28  CA        54.7560   -2.5910   80.3000 C.3   168  TYR168      0.1639
     29  C         54.4560   -3.2190   78.9280 C.2   168  TYR168      0.2290
     30  O         54.9330   -2.7500   77.8940 O.2   168  TYR168     -0.2864
     31  CB        53.8840   -1.3450   80.5080 C.3   168  TYR168      0.0560
     32  CG        53.8690   -0.8820   81.9410 C.ar  168  TYR168     -0.0198
     33  CD1       54.9880   -0.2770   82.5040 C.ar  168  TYR168     -0.0009
     34  CD2       52.7450   -1.0610   82.7420 C.ar  168  TYR168     -0.0009
     35  CE1       54.9920    0.1370   83.8190 C.ar  168  TYR168      0.0417
     36  CE2       52.7370   -0.6430   84.0650 C.ar  168  TYR168      0.0417
     37  CZ        53.8680   -0.0460   84.5970 C.ar  168  TYR168      0.1957
     38  OH        53.8900    0.3840   85.9060 O.3   168  TYR168     -0.2866
     39  N         56.4920   -5.4780   74.2640 N.3   225  LYS225     -0.1231
     40  CA        56.8340   -4.2870   75.0550 C.3   225  LYS225      0.1693
     41  C         56.3480   -3.0060   74.4220 C.2   225  LYS225      0.2592
     42  O         56.6230   -2.7300   73.2580 O.2   225  LYS225     -0.2718
     43  CB        58.3430   -4.1820   75.2920 C.3   225  LYS225      0.0285
     44  CG        58.7020   -3.0940   76.2990 C.3   225  LYS225      0.0035
     45  CD        60.1150   -3.2560   76.8300 C.3   225  LYS225      0.0206
     46  CE        60.3490   -2.3250   78.0190 C.3   225  LYS225      0.1093
     47  NZ        61.7120   -2.4860   78.6090 N.3   225  LYS225     -0.1314
     48  N         55.6270   -2.2240   75.2160 N.am  226  LEU226     -0.1966
     49  CA        55.0210   -0.9850   74.7540 C.3   226  LEU226      0.1713
     50  C         55.9350    0.2080   75.0170 C.2   226  LEU226      0.2458
     51  O         56.7620    0.1810   75.9290 O.2   226  LEU226     -0.2730
     52  CB        53.6730   -0.7750   75.4450 C.3   226  LEU226      0.0310
     53  CG        52.6290   -1.8830   75.2670 C.3   226  LEU226      0.0022
     54  CD1       51.5150   -1.7520   76.3110 C.3   226  LEU226      0.0001
     55  CD2       52.0540   -1.8670   73.8460 C.3   226  LEU226      0.0001
     56  N         55.7870    1.2640   74.2110 N.am  227  PRO227     -0.2716
     57  CA        56.5200    2.5040   74.4430 C.3   227  PRO227      0.1536
     58  C         55.7040    3.4570   75.3150 C.2   227  PRO227      0.2599
     59  O         54.4860    3.2900   75.4130 O.2   227  PRO227     -0.2715
     60  CB        56.6740    3.0620   73.0310 C.3   227  PRO227      0.0310
     61  CG        55.3430    2.7060   72.4070 C.3   227  PRO227      0.0237
     62  CD        54.9930    1.3350   72.9680 C.3   227  PRO227      0.0939
     63  N         56.3420    4.4550   75.9200 N.am  228  SER228     -0.1936
     64  CA        55.5700    5.4860   76.5900 C.3   228  SER228      0.2055
     65  C         54.7510    6.3020   75.5840 C.2   228  SER228      0.2643
     66  O         55.2800    6.7480   74.5680 O.2   228  SER228     -0.2714
     67  CB        56.4790    6.4120   77.3860 C.3   228  SER228      0.2130
     68  OG        55.7110    7.4640   77.9550 O.3   228  SER228     -0.2179
     69  N         53.4650    6.4970   75.8620 N.am  229  VAL229     -0.1963
     70  CA        52.6840    7.4800   75.1170 C.3   229  VAL229      0.1727
     71  C         52.7170    8.8590   75.7920 C.2   229  VAL229      0.2616
     72  O         51.9290    9.7370   75.4580 O.2   229  VAL229     -0.2715
     73  CB        51.2240    7.0450   74.9490 C.3   229  VAL229      0.0290
     74  CG1       51.1640    5.7230   74.2280 C.3   229  VAL229      0.0023
     75  CG2       50.5320    6.9420   76.2980 C.3   229  VAL229      0.0023
     76  N         53.6250    9.0510   76.7420 N.am  230  TRP230     -0.1960
     77  CA        53.7450   10.3640   77.3550 C.3   230  TRP230      0.1756
     78  C         54.3580   11.3380   76.3520 C.2   230  TRP230      0.2461
     79  O         55.4180   11.0590   75.7760 O.2   230  TRP230     -0.2730
     80  CB        54.5880   10.3290   78.6400 C.3   230  TRP230      0.0590
     81  CG        54.5290   11.6380   79.3790 C.ar  230  TRP230      0.0006
     82  CD1       55.5370   12.5530   79.5300 C.ar  230  TRP230      0.0946
     83  CD2       53.3830   12.1940   80.0390 C.ar  230  TRP230      0.0152
     84  NE1       55.0880   13.6410   80.2580 N.ar  230  TRP230     -0.2442
     85  CE2       53.7700   13.4410   80.5790 C.ar  230  TRP230      0.0810
     86  CE3       52.0700   11.7520   80.2330 C.ar  230  TRP230      0.0012
     87  CZ2       52.8900   14.2450   81.3020 C.ar  230  TRP230      0.0191
     88  CZ3       51.1960   12.5550   80.9420 C.ar  230  TRP230      0.0001
     89  CH2       51.6090   13.7880   81.4700 C.ar  230  TRP230      0.0015
     90  N         53.6730   12.4700   76.1280 N.am  231  PRO231     -0.2727
     91  CA        54.0820   13.5560   75.2340 C.3   231  PRO231      0.1402
     92  C         55.4980   14.0450   75.4830 C.2   231  PRO231      0.2269
     93  O         55.7910   14.6540   76.5190 O.2   231  PRO231     -0.2865
     94  CB        53.0630   14.6510   75.5420 C.3   231  PRO231      0.0296
     95  CG        51.8090   13.8800   75.8950 C.3   231  PRO231      0.0237
     96  CD        52.3010   12.6670   76.6390 C.3   231  PRO231      0.0939
@<TRIPOS>BOND
     1     4     3    2
     2     3     2    1
     3     2     1    1
     4     2     5    1
     5     5     6    1
     6     6     8   ar
     7     6     7   ar
     8    11     8   ar
     9    11    13   ar
    10     8    10   ar
    11     7     9   ar
    12    13    14   ar
    13    10     9   ar
    14    10    12   ar
    15    14    12   ar
    16    61    62    1
    17    61    60    1
    18    62    56    1
    19    60    57    1
    20    42    41    2
    21    55    53    1
    22    56    57    1
    23    56    50   am
    24    74    73    1
    25    39    40    1
    26    41    40    1
    27    41    48   am
    28    57    58    1
    29    66    65    2
    30    49    50    1
    31    49    48    1
    32    49    52    1
    33    73    70    1
    34    73    75    1
    35    50    51    2
    36    40    43    1
    37    70    71    1
    38    70    69    1
    39    91    92    1
    40    91    94    1
    41    91    90    1
    42    53    52    1
    43    53    54    1
    44    43    44    1
    45    58    59    2
    46    58    63   am
    47    72    71    2
    48    92    93    2
    49    94    95    1
    50    65    69   am
    51    65    64    1
    52    79    78    2
    53    71    76   am
    54    95    96    1
    55    63    64    1
    56    90    78   am
    57    90    96    1
    58    22    20    1
    59    44    45    1
    60    78    77    1
    61    64    67    1
    62    76    77    1
    63    45    46    1
    64    21    20    1
    65    77    80    1
    66    67    68    1
    67    20    19    1
    68    30    29    2
    69    46    47    1
    70    80    81    1
    71    19    16    1
    72    29    28    1
    73    15    16    1
    74    16    17    1
    75    81    82   ar
    76    81    83   ar
    77    82    84   ar
    78    83    86   ar
    79    83    85   ar
    80    86    88   ar
    81    84    85   ar
    82    28    27    1
    83    28    31    1
    84    27    25   am
    85    31    32    1
    86    17    18    2
    87    85    87   ar
    88    88    89   ar
    89    87    89   ar
    90    25    24    1
    91    25    26    2
    92    24    23    1
    93    32    33   ar
    94    32    34   ar
    95    33    35   ar
    96    34    36   ar
    97    35    37   ar
    98    36    37   ar
    99    37    38    1
