@<TRIPOS>MOLECULE
tmp/5ykeB00.pdb
 215 204 0 0 0
SMALL
GASTEIGER

@<TRIPOS>ATOM
      1  N        190.2410  221.8530  189.2800 N.3   256  ARG256     -0.1245
      2  CA       191.5960  222.2250  189.6600 C.3   256  ARG256      0.1563
      3  C        191.6290  222.9440  191.0050 C.2   256  ARG256      0.2260
      4  O        192.4870  222.6580  191.8500 O.2   256  ARG256     -0.2867
      5  CB       192.1890  223.0900  188.5500 C.3   256  ARG256      0.0307
      6  CG       193.5710  223.6050  188.8000 C.3   256  ARG256      0.0489
      7  CD       194.5640  222.4960  189.0270 C.3   256  ARG256      0.2205
      8  NE       195.8870  223.0560  189.2680 N.pl3 256  ARG256     -0.0865
      9  CZ       196.2500  223.6360  190.4080 C.cat 256  ARG256      0.5346
     10  NH1      195.3870  223.7280  191.4110 N.pl3 256  ARG256      0.1354
     11  NH2      197.4740  224.1250  190.5450 N.pl3 256  ARG256      0.1354
     12  N        192.9380  216.5530  190.2350 N.3   299  LEU299     -0.1245
     13  CA       193.9840  217.2560  189.4960 C.3   299  LEU299      0.1561
     14  C        194.1510  216.6680  188.0970 C.2   299  LEU299      0.2260
     15  O        194.2290  217.4010  187.0980 O.2   299  LEU299     -0.2867
     16  CB       195.2980  217.1840  190.2800 C.3   299  LEU299      0.0270
     17  CG       196.5120  217.9920  189.8130 C.3   299  LEU299      0.0019
     18  CD1      196.2370  219.4690  189.9720 C.3   299  LEU299      0.0001
     19  CD2      197.7750  217.5970  190.5710 C.3   299  LEU299      0.0001
     20  N        193.5910  218.3340  184.3610 N.3   303  TYR303     -0.1241
     21  CA       194.5690  218.3660  183.2760 C.3   303  TYR303      0.1605
     22  C        193.9610  217.8520  181.9820 C.2   303  TYR303      0.2264
     23  O        194.0610  218.4980  180.9330 O.2   303  TYR303     -0.2867
     24  CB       195.7990  217.5280  183.6170 C.3   303  TYR303      0.0534
     25  CG       196.6630  218.0440  184.7330 C.ar  303  TYR303     -0.0201
     26  CD1      196.4580  219.2950  185.2900 C.ar  303  TYR303     -0.0009
     27  CD2      197.7010  217.2680  185.2230 C.ar  303  TYR303     -0.0009
     28  CE1      197.2590  219.7500  186.3160 C.ar  303  TYR303      0.0417
     29  CE2      198.5020  217.7080  186.2380 C.ar  303  TYR303      0.0417
     30  CZ       198.2820  218.9470  186.7830 C.ar  303  TYR303      0.1957
     31  OH       199.0950  219.3670  187.8050 O.3   303  TYR303     -0.2866
     32  N        191.2450  220.0800  180.3350 N.3   306  ALA306     -0.1231
     33  CA       191.8660  221.2510  179.7230 C.3   306  ALA306      0.1694
     34  C        192.5800  220.8890  178.4230 C.2   306  ALA306      0.2591
     35  O        192.4580  221.6040  177.4170 O.2   306  ALA306     -0.2718
     36  CB       192.8330  221.9060  180.7070 C.3   306  ALA306      0.0304
     37  N        193.3290  219.7820  178.4230 N.am  307  ILE307     -0.1980
     38  CA       194.0600  219.3820  177.2220 C.3   307  ILE307      0.1595
     39  C        193.0970  219.1130  176.0770 C.2   307  ILE307      0.2287
     40  O        193.3660  219.4590  174.9200 O.2   307  ILE307     -0.2864
     41  CB       194.9320  218.1490  177.5070 C.3   307  ILE307      0.0276
     42  CG1      195.9270  218.4420  178.6260 C.3   307  ILE307      0.0022
     43  CG2      195.6470  217.6940  176.2410 C.3   307  ILE307      0.0022
     44  CD1      196.6840  219.7270  178.4570 C.3   307  ILE307      0.0001
     45  N        192.8770  220.8630  172.4130 N.3   311  ILE311     -0.1245
     46  CA       192.9870  220.1570  171.1380 C.3   311  ILE311      0.1561
     47  C        191.8010  220.4900  170.2430 C.2   311  ILE311      0.2260
     48  O        191.9530  220.7040  169.0290 O.2   311  ILE311     -0.2867
     49  CB       193.1230  218.6430  171.3780 C.3   311  ILE311      0.0252
     50  CG1      194.5280  218.3240  171.8830 C.3   311  ILE311      0.0019
     51  CG2      192.8190  217.8600  170.1110 C.3   311  ILE311      0.0019
     52  CD1      194.8080  216.8530  172.0080 C.3   311  ILE311      0.0001
     53  N        192.5190  223.9030  168.7880 N.3   314  ARG314     -0.1245
     54  CA       193.5200  223.8720  167.7310 C.3   314  ARG314      0.1563
     55  C        192.9120  223.3870  166.4260 C.2   314  ARG314      0.2260
     56  O        193.0730  224.0280  165.3800 O.2   314  ARG314     -0.2867
     57  CB       194.7030  222.9890  168.1210 C.3   314  ARG314      0.0307
     58  CG       195.7140  222.8820  167.0000 C.3   314  ARG314      0.0489
     59  CD       196.9830  222.1880  167.4270 C.3   314  ARG314      0.2205
     60  NE       196.8710  220.7410  167.2990 N.pl3 314  ARG314     -0.0865
     61  CZ       197.9020  219.9050  167.3560 C.cat 314  ARG314      0.5346
     62  NH1      199.1290  220.3760  167.5360 N.pl3 314  ARG314      0.1354
     63  NH2      197.7050  218.6000  167.2280 N.pl3 314  ARG314      0.1354
     64  N        197.2500  226.9580  171.5900 N.3   351  MET351     -0.1230
     65  CA       196.7680  225.7320  172.2190 C.3   351  MET351      0.1702
     66  C        197.4560  225.4740  173.5530 C.2   351  MET351      0.2592
     67  O        196.8170  225.0120  174.5050 O.2   351  MET351     -0.2718
     68  CB       196.9690  224.5430  171.2840 C.3   351  MET351      0.0401
     69  CG       196.3850  223.2490  171.8190 C.3   351  MET351      0.0596
     70  SD       197.1340  221.8010  171.0530 S.3   351  MET351     -0.1393
     71  CE       198.8470  222.0260  171.5330 C.3   351  MET351      0.0692
     72  N        198.7560  225.7540  173.6520 N.am  352  TRP352     -0.1976
     73  CA       199.4360  225.5450  174.9250 C.3   352  TRP352      0.1640
     74  C        199.0020  226.5770  175.9610 C.2   352  TRP352      0.2290
     75  O        198.9190  226.2720  177.1600 O.2   352  TRP352     -0.2864
     76  CB       200.9480  225.5640  174.7160 C.3   352  TRP352      0.0576
     77  CG       201.5970  224.3210  175.2120 C.ar  352  TRP352      0.0006
     78  CD1      201.6890  223.1250  174.5640 C.ar  352  TRP352      0.0946
     79  CD2      202.2350  224.1450  176.4760 C.ar  352  TRP352      0.0152
     80  NE1      202.3530  222.2140  175.3490 N.ar  352  TRP352     -0.2442
     81  CE2      202.7000  222.8170  176.5280 C.ar  352  TRP352      0.0810
     82  CE3      202.4640  224.9850  177.5690 C.ar  352  TRP352      0.0012
     83  CZ2      203.3800  222.3090  177.6340 C.ar  352  TRP352      0.0191
     84  CZ3      203.1400  224.4810  178.6650 C.ar  352  TRP352      0.0001
     85  CH2      203.5900  223.1560  178.6890 C.ar  352  TRP352      0.0015
     86  N        195.9890  225.1480  177.2690 N.3   355  PHE355     -0.1227
     87  CA       196.3900  224.1840  178.2940 C.3   355  PHE355      0.1736
     88  C        196.5470  224.8760  179.6400 C.2   355  PHE355      0.2595
     89  O        195.9790  224.4450  180.6480 O.2   355  PHE355     -0.2718
     90  CB       197.7140  223.5040  177.9340 C.3   355  PHE355      0.0547
     91  CG       197.6490  222.5660  176.7670 C.ar  355  PHE355     -0.0202
     92  CD1      196.4420  222.2250  176.1840 C.ar  355  PHE355     -0.0042
     93  CD2      198.8180  222.0170  176.2560 C.ar  355  PHE355     -0.0042
     94  CE1      196.4060  221.3530  175.1090 C.ar  355  PHE355     -0.0003
     95  CE2      198.7890  221.1530  175.1850 C.ar  355  PHE355     -0.0003
     96  CZ       197.5820  220.8170  174.6090 C.ar  355  PHE355     -0.0000
     97  N        197.3330  225.9520  179.6690 N.am  356  LEU356     -0.1980
     98  CA       197.7040  226.6000  180.9230 C.3   356  LEU356      0.1596
     99  C        196.6600  227.5840  181.4470 C.2   356  LEU356      0.2287
    100  O        196.8740  228.1650  182.5170 O.2   356  LEU356     -0.2864
    101  CB       199.0470  227.3130  180.7600 C.3   356  LEU356      0.0297
    102  CG       200.2230  226.3750  180.4860 C.3   356  LEU356      0.0022
    103  CD1      201.5440  227.1240  180.5560 C.3   356  LEU356      0.0001
    104  CD2      200.2120  225.2100  181.4610 C.3   356  LEU356      0.0001
    105  N        195.3760  226.8550  185.0620 N.3   359  ASN359     -0.1240
    106  CA       196.4480  227.0780  186.0240 C.3   359  ASN359      0.1653
    107  C        196.5510  228.5480  186.4100 C.2   359  ASN359      0.2266
    108  O        196.8630  228.8660  187.5640 O.2   359  ASN359     -0.2867
    109  CB       197.7690  226.5780  185.4470 C.3   359  ASN359      0.1155
    110  CG       198.8830  226.5820  186.4650 C.2   359  ASN359      0.2627
    111  OD1      198.6380  226.6850  187.6650 O.2   359  ASN359     -0.2716
    112  ND2      200.1170  226.4660  185.9920 N.am  359  ASN359     -0.0877
    113  N        196.3690  229.3450  190.3880 N.3   363  MET363     -0.1245
    114  CA       197.6010  229.6970  191.0940 C.3   363  MET363      0.1570
    115  C        197.3770  230.7030  192.2200 C.2   363  MET363      0.2261
    116  O        197.8970  230.4790  193.3330 O.2   363  MET363     -0.2867
    117  CB       198.6410  230.2050  190.0910 C.3   363  MET363      0.0387
    118  CG       199.9780  230.5460  190.7100 C.3   363  MET363      0.0595
    119  SD       200.7650  229.0740  191.3730 S.3   363  MET363     -0.1393
    120  CE       200.6220  227.9870  189.9580 C.3   363  MET363      0.0692
    121  N        206.3320  223.8320  194.2990 N.3   510  THR510     -0.1204
    122  CA       205.9100  223.2070  193.0450 C.3   510  THR510      0.1979
    123  C        205.0910  224.1410  192.1540 C.2   510  THR510      0.2459
    124  O        205.4140  224.2510  190.9580 O.2   510  THR510     -0.2732
    125  CB       205.1610  221.9020  193.3360 C.3   510  THR510      0.1783
    126  OG1      206.0920  220.9060  193.7750 O.3   510  THR510     -0.2211
    127  CG2      204.4410  221.4060  192.0880 C.3   510  THR510      0.0376
    128  N        204.0560  224.8360  192.6390 N.am  511  PRO511     -0.2728
    129  CA       203.2980  225.7100  191.7310 C.3   511  PRO511      0.1401
    130  C        204.0400  226.9750  191.3210 C.2   511  PRO511      0.2269
    131  O        203.7420  227.5210  190.2520 O.2   511  PRO511     -0.2865
    132  CB       202.0320  226.0380  192.5380 C.3   511  PRO511      0.0296
    133  CG       201.9560  224.9930  193.5890 C.3   511  PRO511      0.0237
    134  CD       203.3770  224.7220  193.9380 C.3   511  PRO511      0.0939
    135  N        205.5420  227.4030  187.8240 N.3   514  LEU514     -0.1245
    136  CA       204.6220  227.3820  186.7000 C.3   514  LEU514      0.1561
    137  C        204.0470  228.7570  186.3890 C.2   514  LEU514      0.2260
    138  O        203.6400  228.9960  185.2490 O.2   514  LEU514     -0.2867
    139  CB       203.5110  226.3800  186.9900 C.3   514  LEU514      0.0270
    140  CG       204.1260  225.1040  187.5610 C.3   514  LEU514      0.0019
    141  CD1      203.0980  224.3130  188.3360 C.3   514  LEU514      0.0001
    142  CD2      204.7390  224.2660  186.4480 C.3   514  LEU514      0.0001
    143  N        202.8120  210.8470  166.3820 N.3   717  ASP717     -0.1239
    144  CA       202.5260  212.2810  166.4050 C.3   717  ASP717      0.1674
    145  C        203.3820  213.0140  165.3820 C.2   717  ASP717      0.2266
    146  O        202.8610  213.7260  164.5140 O.2   717  ASP717     -0.2867
    147  CB       202.7620  212.8450  167.8100 C.3   717  ASP717      0.1410
    148  CG       202.5340  214.3570  167.8930 C.2   717  ASP717      0.3668
    149  OD1      201.9450  214.9480  166.9610 O.co2 717  ASP717     -0.2456
    150  OD2      202.9500  214.9610  168.9060 O.co2 717  ASP717     -0.2456
    151  N        197.7530  213.0810  168.9310 N.3   762  SER762     -0.1217
    152  CA       198.0390  213.9880  170.0360 C.3   762  SER762      0.1889
    153  C        197.0740  213.8090  171.1980 C.2   762  SER762      0.2288
    154  O        197.3180  214.3570  172.2780 O.2   762  SER762     -0.2866
    155  CB       197.9920  215.4370  169.5470 C.3   762  SER762      0.2089
    156  OG       198.3790  215.5270  168.1850 O.3   762  SER762     -0.2183
    157  N        198.1800  210.2700  173.0080 N.3   765  LEU765     -0.1231
    158  CA       199.4070  210.5020  173.7690 C.3   765  LEU765      0.1693
    159  C        199.1010  211.0930  175.1440 C.2   765  LEU765      0.2592
    160  O        199.6460  210.6460  176.1670 O.2   765  LEU765     -0.2718
    161  CB       200.3490  211.4130  172.9780 C.3   765  LEU765      0.0284
    162  CG       201.7430  211.6420  173.5630 C.3   765  LEU765      0.0019
    163  CD1      202.3730  210.3260  173.9630 C.3   765  LEU765      0.0001
    164  CD2      202.6290  212.3690  172.5620 C.3   765  LEU765      0.0001
    165  N        198.2150  212.0950  175.1940 N.am  766  THR766     -0.1953
    166  CA       197.8630  212.6800  176.4820 C.3   766  THR766      0.1897
    167  C        197.0490  211.7080  177.3260 C.2   766  THR766      0.2313
    168  O        197.1840  211.6950  178.5560 O.2   766  THR766     -0.2863
    169  CB       197.1210  214.0130  176.2870 C.3   766  THR766      0.1794
    170  OG1      197.0510  214.7100  177.5350 O.3   766  THR766     -0.2208
    171  CG2      195.7090  213.8060  175.7640 C.3   766  THR766      0.0378
    172  N        199.6740  209.4120  178.8920 N.3   769  ASN769     -0.1225
    173  CA       200.3680  210.1190  179.9620 C.3   769  ASN769      0.1785
    174  C        199.5000  210.2200  181.2090 C.2   769  ASN769      0.2597
    175  O        199.9860  210.0150  182.3290 O.2   769  ASN769     -0.2718
    176  CB       200.7910  211.5040  179.4920 C.3   769  ASN769      0.1169
    177  CG       202.2190  211.5320  179.0220 C.2   769  ASN769      0.2627
    178  OD1      203.1440  211.4890  179.8300 O.2   769  ASN769     -0.2716
    179  ND2      202.4120  211.5970  177.7090 N.am  769  ASN769     -0.0877
    180  N        198.2110  210.5250  181.0340 N.am  770  ARG770     -0.1979
    181  CA       197.2970  210.5440  182.1740 C.3   770  ARG770      0.1597
    182  C        197.2050  209.1760  182.8370 C.2   770  ARG770      0.2287
    183  O        197.1490  209.0780  184.0680 O.2   770  ARG770     -0.2864
    184  CB       195.9160  211.0210  181.7300 C.3   770  ARG770      0.0334
    185  CG       195.8460  212.5090  181.4960 C.3   770  ARG770      0.0492
    186  CD       196.3600  213.2440  182.7140 C.3   770  ARG770      0.2205
    187  NE       197.1620  214.3970  182.3400 N.pl3 770  ARG770     -0.0865
    188  CZ       198.4550  214.3380  182.0400 C.cat 770  ARG770      0.5346
    189  NH1      199.0950  213.1790  182.0710 N.pl3 770  ARG770      0.1354
    190  NH2      199.1080  215.4410  181.7090 N.pl3 770  ARG770      0.1354
    191  N        208.2610  212.6940  188.2420 N.3   821  TRP821     -0.1241
    192  CA       209.3950  213.3510  187.5980 C.3   821  TRP821      0.1605
    193  C        210.3830  212.3180  187.0720 C.2   821  TRP821      0.2264
    194  O        210.8230  212.3850  185.9150 O.2   821  TRP821     -0.2867
    195  CB       210.0910  214.3020  188.5780 C.3   821  TRP821      0.0550
    196  CG       209.4380  215.6440  188.7250 C.ar  821  TRP821      0.0003
    197  CD1      208.2340  216.0260  188.2160 C.ar  821  TRP821      0.0946
    198  CD2      209.9580  216.7870  189.4250 C.ar  821  TRP821      0.0152
    199  NE1      207.9670  217.3290  188.5560 N.ar  821  TRP821     -0.2442
    200  CE2      209.0100  217.8200  189.2980 C.ar  821  TRP821      0.0810
    201  CE3      211.1300  217.0330  190.1470 C.ar  821  TRP821      0.0012
    202  CZ2      209.1970  219.0840  189.8650 C.ar  821  TRP821      0.0191
    203  CZ3      211.3130  218.2910  190.7110 C.ar  821  TRP821      0.0001
    204  CH2      210.3520  219.2970  190.5660 C.ar  821  TRP821      0.0015
    205  N        208.9200  210.2610  183.9010 N.3   824  ARG824     -0.1245
    206  CA       208.7640  211.0580  182.6870 C.3   824  ARG824      0.1563
    207  C        210.1200  211.4770  182.1250 C.2   824  ARG824      0.2260
    208  O        210.3700  211.3590  180.9120 O.2   824  ARG824     -0.2867
    209  CB       207.8890  212.2780  182.9710 C.3   824  ARG824      0.0307
    210  CG       207.2760  212.8940  181.7290 C.3   824  ARG824      0.0489
    211  CD       206.3570  214.0450  182.0900 C.3   824  ARG824      0.2205
    212  NE       205.2710  213.6220  182.9700 N.pl3 824  ARG824     -0.0865
    213  CZ       204.0710  213.2390  182.5470 C.cat 824  ARG824      0.5346
    214  NH1      203.1430  212.8740  183.4210 N.pl3 824  ARG824      0.1354
    215  NH2      203.7970  213.2220  181.2500 N.pl3 824  ARG824      0.1354
@<TRIPOS>BOND
     1   146   145    2
     2    56    55    2
     3   145   144    1
     4   143   144    1
     5   144   147    1
     6    55    54    1
     7   149   148   ar
     8    58    59    1
     9    58    57    1
    10    63    61    1
    11    60    61    2
    12    60    59    1
    13    61    62    1
    14    54    57    1
    15    54    53    1
    16   147   148    1
    17   148   150   ar
    18   156   155    1
    19   151   152    1
    20    48    47    2
    21   155   152    1
    22   152   153    1
    23    51    49    1
    24    47    46    1
    25    70    71    1
    26    70    69    1
    27    46    49    1
    28    46    45    1
    29   153   154    2
    30    68    69    1
    31    68    65    1
    32    49    50    1
    33    64    65    1
    34    50    52    1
    35    65    66    1
    36   164   162    1
    37   161   162    1
    38   161   158    1
    39   157   158    1
    40    66    72   am
    41    66    67    2
    42   162   163    1
    43    72    73    1
    44   158   159    1
    45    78    77   ar
    46    78    80   ar
    47    96    94   ar
    48    96    95   ar
    49    76    73    1
    50    76    77    1
    51    40    39    2
    52    73    74    1
    53    94    92   ar
    54   159   165   am
    55   159   160    2
    56    95    93   ar
    57   165   166    1
    58    77    79   ar
    59    80    81   ar
    60   171   169    1
    61    74    75    2
    62    39    38    1
    63    92    91   ar
    64    43    41    1
    65    93    91   ar
    66   169   166    1
    67   169   170    1
    68    79    81   ar
    69    79    82   ar
    70   166   167    1
    71    81    83   ar
    72    91    90    1
    73    38    41    1
    74    38    37    1
    75    86    87    1
    76   167   168    2
    77    35    34    2
    78    41    42    1
    79    82    84   ar
    80    83    85   ar
    81   179   177   am
    82    90    87    1
    83    87    88    1
    84    34    37   am
    85    34    33    1
    86    44    42    1
    87    84    85   ar
    88   172   173    1
    89   177   176    1
    90   177   178    2
    91   176   173    1
    92    88    97   am
    93    88    89    2
    94    97    98    1
    95    33    32    1
    96    33    36    1
    97   173   174    1
    98   102   103    1
    99   102   101    1
   100   102   104    1
   101   101    98    1
   102   208   207    2
   103    98    99    1
   104    23    22    2
   105   180   174   am
   106   180   181    1
   107   174   175    2
   108   215   213    1
   109    99   100    2
   110   185   184    1
   111   185   186    1
   112   190   188    1
   113   210   211    1
   114   210   209    1
   115   184   181    1
   116    22    21    1
   117   188   189    1
   118   188   187    2
   119   211   212    1
   120   207   206    1
   121   181   182    1
   122   187   186    1
   123   213   212    2
   124   213   214    1
   125   206   209    1
   126   206   205    1
   127   182   183    2
   128    21    24    1
   129    21    20    1
   130    24    25    1
   131    25    27   ar
   132    25    26   ar
   133   105   106    1
   134    27    29   ar
   135   138   137    2
   136    26    28   ar
   137   109   106    1
   138   109   110    1
   139   194   193    2
   140   112   110   am
   141   106   107    1
   142    29    30   ar
   143    28    30   ar
   144   137   136    1
   145   107   108    2
   146   142   140    1
   147   110   111    2
   148   136   139    1
   149   136   135    1
   150    30    31    1
   151   139   140    1
   152   193   192    1
   153    15    14    2
   154   140   141    1
   155   192   191    1
   156   192   195    1
   157    14    13    1
   158   197   199   ar
   159   197   196   ar
   160     5     6    1
   161     5     2    1
   162   199   200   ar
   163   195   196    1
   164   196   198   ar
   165     6     7    1
   166     7     8    1
   167     8     9    2
   168     1     2    1
   169   200   198   ar
   170   200   202   ar
   171   198   201   ar
   172    13    12    1
   173    13    16    1
   174     2     3    1
   175    17    18    1
   176    17    16    1
   177    17    19    1
   178   202   204   ar
   179   120   119    1
   180   117   118    1
   181   117   114    1
   182   201   203   ar
   183   131   130    2
   184   113   114    1
   185     9    11    1
   186     9    10    1
   187   204   203   ar
   188   118   119    1
   189   124   123    2
   190     3     4    2
   191   114   115    1
   192   130   129    1
   193   129   132    1
   194   129   128    1
   195   127   125    1
   196   123   128   am
   197   123   122    1
   198   115   116    2
   199   132   133    1
   200   128   134    1
   201   122   125    1
   202   122   121    1
   203   125   126    1
   204   133   134    1
