@<TRIPOS>MOLECULE
tmp/5ykoA00.pdb
 106 102 0 0 0
SMALL
GASTEIGER

@<TRIPOS>ATOM
      1  N         16.0850  -20.0960  -10.4940 N.3   135  TYR135     -0.1241
      2  CA        17.3690  -19.5020  -10.1310 C.3   135  TYR135      0.1605
      3  C         17.2320  -18.6530   -8.8770 C.2   135  TYR135      0.2264
      4  O         16.3220  -17.8310   -8.7700 O.2   135  TYR135     -0.2867
      5  CB        17.9420  -18.6590  -11.2810 C.3   135  TYR135      0.0534
      6  CG        19.4580  -18.5440  -11.2370 C.ar  135  TYR135     -0.0201
      7  CD1       20.2260  -19.5710  -10.7170 C.ar  135  TYR135     -0.0009
      8  CD2       20.1170  -17.4270  -11.7310 C.ar  135  TYR135     -0.0009
      9  CE1       21.6030  -19.4880  -10.6780 C.ar  135  TYR135      0.0417
     10  CE2       21.5060  -17.3360  -11.6920 C.ar  135  TYR135      0.0417
     11  CZ        22.2430  -18.3720  -11.1640 C.ar  135  TYR135      0.1957
     12  OH        23.6180  -18.3090  -11.1150 O.3   135  TYR135     -0.2866
     13  N         24.5850  -16.2260   -5.9670 N.3   197  TYR197     -0.1241
     14  CA        23.8640  -16.8450   -7.0730 C.3   197  TYR197      0.1605
     15  C         23.7870  -18.3580   -6.9100 C.2   197  TYR197      0.2264
     16  O         24.7210  -19.0760   -7.2660 O.2   197  TYR197     -0.2867
     17  CB        24.5300  -16.4960   -8.4060 C.3   197  TYR197      0.0534
     18  CG        24.4150  -15.0410   -8.7630 C.ar  197  TYR197     -0.0201
     19  CD1       25.4950  -14.1790   -8.6150 C.ar  197  TYR197     -0.0009
     20  CD2       23.2200  -14.5230   -9.2340 C.ar  197  TYR197     -0.0009
     21  CE1       25.3840  -12.8360   -8.9390 C.ar  197  TYR197      0.0417
     22  CE2       23.0990  -13.1920   -9.5580 C.ar  197  TYR197      0.0417
     23  CZ        24.1820  -12.3510   -9.4090 C.ar  197  TYR197      0.1957
     24  OH        24.0490  -11.0200   -9.7340 O.3   197  TYR197     -0.2866
     25  N         21.7640  -16.5210  -16.5780 N.3   205  PHE205     -0.1241
     26  CA        21.8550  -15.0740  -16.4360 C.3   205  PHE205      0.1605
     27  C         22.0220  -14.4780  -17.8320 C.2   205  PHE205      0.2264
     28  O         23.0760  -14.5980  -18.4540 O.2   205  PHE205     -0.2867
     29  CB        22.9990  -14.6550  -15.4970 C.3   205  PHE205      0.0534
     30  CG        24.3260  -15.3070  -15.7910 C.ar  205  PHE205     -0.0203
     31  CD1       24.6050  -16.5830  -15.3310 C.ar  205  PHE205     -0.0042
     32  CD2       25.3130  -14.6230  -16.4810 C.ar  205  PHE205     -0.0042
     33  CE1       25.8310  -17.1760  -15.5820 C.ar  205  PHE205     -0.0003
     34  CE2       26.5400  -15.2100  -16.7330 C.ar  205  PHE205     -0.0003
     35  CZ        26.7990  -16.4870  -16.2820 C.ar  205  PHE205     -0.0000
     36  N         23.8940   -9.0710  -20.3640 N.3   208  HIS208     -0.1241
     37  CA        23.8500   -7.8240  -19.6280 C.3   208  HIS208      0.1621
     38  C         25.2500   -7.2750  -19.4250 C.2   208  HIS208      0.2264
     39  O         26.2480   -7.9580  -19.6700 O.2   208  HIS208     -0.2867
     40  CB        23.1690   -8.0160  -18.2760 C.3   208  HIS208      0.0745
     41  CG        24.0060   -8.7560  -17.2810 C.ar  208  HIS208      0.0817
     42  ND1       24.2770  -10.1020  -17.3930 N.ar  208  HIS208     -0.2268
     43  CD2       24.6350   -8.3360  -16.1590 C.ar  208  HIS208      0.1154
     44  CE1       25.0360  -10.4810  -16.3800 C.ar  208  HIS208      0.1986
     45  NE2       25.2670   -9.4290  -15.6160 N.ar  208  HIS208     -0.2212
     46  N         27.5420   -4.8130  -16.5190 N.3   210  GLU210     -0.1245
     47  CA        27.5500   -4.3130  -15.1450 C.3   210  GLU210      0.1567
     48  C         27.0910   -2.8670  -15.0540 C.2   210  GLU210      0.2260
     49  O         27.2550   -2.0930  -15.9980 O.2   210  GLU210     -0.2867
     50  CB        28.9460   -4.4450  -14.5390 C.3   210  GLU210      0.0388
     51  CG        29.4350   -5.8730  -14.4530 C.3   210  GLU210      0.1160
     52  CD        28.4740   -6.7600  -13.6950 C.2   210  GLU210      0.3649
     53  OE1       28.0940   -7.8200  -14.2310 O.co2 210  GLU210     -0.2457
     54  OE2       28.0960   -6.3940  -12.5640 O.co2 210  GLU210     -0.2457
     55  N         33.5450   -6.8400  -12.9890 N.3   216  SER216     -0.1217
     56  CA        32.8250   -7.8350  -12.2020 C.3   216  SER216      0.1889
     57  C         33.7240   -9.0100  -11.8300 C.2   216  SER216      0.2288
     58  O         34.3530   -9.6110  -12.6880 O.2   216  SER216     -0.2866
     59  CB        31.6010   -8.3350  -12.9650 C.3   216  SER216      0.2089
     60  OG        30.7260   -9.0420  -12.1070 O.3   216  SER216     -0.2183
     61  N         33.6130  -12.7660  -10.1470 N.3   218  ASN218     -0.1240
     62  CA        32.7020  -13.8360   -9.7640 C.3   218  ASN218      0.1653
     63  C         33.4520  -15.0780   -9.2900 C.2   218  ASN218      0.2266
     64  O         34.1900  -15.6940  -10.0490 O.2   218  ASN218     -0.2867
     65  CB        31.7860  -14.1920  -10.9380 C.3   218  ASN218      0.1155
     66  CG        30.6430  -15.1050  -10.5350 C.2   218  ASN218      0.2627
     67  OD1       30.8360  -16.2990  -10.3010 O.2   218  ASN218     -0.2716
     68  ND2       29.4380  -14.5480  -10.4650 N.am  218  ASN218     -0.0877
     69  N         29.8830  -23.2780  -14.1810 N.3   226  LYS226     -0.1245
     70  CA        29.1100  -22.1950  -14.7680 C.3   226  LYS226      0.1561
     71  C         29.7260  -21.8320  -16.1080 C.2   226  LYS226      0.2260
     72  O         30.9030  -21.4860  -16.1800 O.2   226  LYS226     -0.2867
     73  CB        29.0820  -20.9760  -13.8480 C.3   226  LYS226      0.0271
     74  CG        28.3360  -19.7850  -14.4290 C.3   226  LYS226      0.0035
     75  CD        28.2090  -18.6520  -13.4160 C.3   226  LYS226      0.0206
     76  CE        27.5570  -19.1320  -12.1310 C.3   226  LYS226      0.1093
     77  NZ        26.8970  -18.0270  -11.3940 N.3   226  LYS226     -0.1314
     78  N         30.2000  -19.4340  -19.2580 N.3   228  TRP228     -0.1241
     79  CA        30.1670  -18.0140  -19.5820 C.3   228  TRP228      0.1605
     80  C         30.4170  -17.7500  -21.0650 C.2   228  TRP228      0.2264
     81  O         31.2370  -18.4190  -21.7030 O.2   228  TRP228     -0.2867
     82  CB        31.2230  -17.2510  -18.7820 C.3   228  TRP228      0.0550
     83  CG        31.0360  -17.2190  -17.3020 C.ar  228  TRP228      0.0003
     84  CD1       31.1960  -18.2550  -16.4290 C.ar  228  TRP228      0.0946
     85  CD2       30.7060  -16.0730  -16.5100 C.ar  228  TRP228      0.0152
     86  NE1       30.9630  -17.8300  -15.1430 N.ar  228  TRP228     -0.2442
     87  CE2       30.6630  -16.4930  -15.1650 C.ar  228  TRP228      0.0810
     88  CE3       30.4350  -14.7330  -16.8080 C.ar  228  TRP228      0.0012
     89  CZ2       30.3550  -15.6220  -14.1200 C.ar  228  TRP228      0.0191
     90  CZ3       30.1330  -13.8690  -15.7700 C.ar  228  TRP228      0.0001
     91  CH2       30.0940  -14.3170  -14.4430 C.ar  228  TRP228      0.0015
     92  N         28.1120   -9.9630  -21.0970 N.3   296  HIS296     -0.1241
     93  CA        28.3290  -11.3670  -20.7860 C.3   296  HIS296      0.1621
     94  C         27.0220  -12.0520  -20.4170 C.2   296  HIS296      0.2264
     95  O         26.0610  -11.4100  -19.9840 O.2   296  HIS296     -0.2867
     96  CB        29.3490  -11.5170  -19.6560 C.3   296  HIS296      0.0745
     97  CG        28.9830  -10.7790  -18.4070 C.ar  296  HIS296      0.0817
     98  ND1       28.9830   -9.4020  -18.3300 N.ar  296  HIS296     -0.2268
     99  CD2       28.6090  -11.2230  -17.1850 C.ar  296  HIS296      0.1154
    100  CE1       28.6200   -9.0310  -17.1160 C.ar  296  HIS296      0.1986
    101  NE2       28.3890  -10.1170  -16.4000 N.ar  296  HIS296     -0.2212
    102  N         29.3020  -12.7770   -6.6020 N.3   308  ALA308     -0.1245
    103  CA        29.8550  -11.7580   -7.4860 C.3   308  ALA308      0.1562
    104  C         29.9190  -10.4040   -6.7990 C.2   308  ALA308      0.2260
    105  O         29.1590  -10.1300   -5.8710 O.2   308  ALA308     -0.2867
    106  CB        29.0430  -11.6620   -8.7680 C.3   308  ALA308      0.0290
@<TRIPOS>BOND
     1    81    80    2
     2    92    93    1
     3    80    79    1
     4    93    94    1
     5    93    96    1
     6    94    95    2
     7    36    37    1
     8    39    38    2
     9    96    97    1
    10    37    38    1
    11    37    40    1
    12    79    78    1
    13    79    82    1
    14    82    83    1
    15    28    27    2
    16    97    98   ar
    17    97    99   ar
    18    98   100   ar
    19    40    41    1
    20    27    26    1
    21    42    41   ar
    22    42    44   ar
    23    83    85   ar
    24    83    84   ar
    25    41    43   ar
    26    99   101   ar
    27   100   101   ar
    28    88    85   ar
    29    88    90   ar
    30    34    32   ar
    31    34    35   ar
    32    25    26    1
    33    46    47    1
    34    85    87   ar
    35    32    30   ar
    36    26    29    1
    37    84    86   ar
    38    44    45   ar
    39    35    33   ar
    40    72    71    2
    41    43    45   ar
    42    71    70    1
    43    49    48    2
    44    30    29    1
    45    30    31   ar
    46    90    91   ar
    47    33    31   ar
    48    87    86   ar
    49    87    89   ar
    50    47    48    1
    51    47    50    1
    52    70    69    1
    53    70    73    1
    54    50    51    1
    55    51    52    1
    56    91    89   ar
    57    74    73    1
    58    74    75    1
    59    53    52   ar
    60    52    54   ar
    61    75    76    1
    62    55    56    1
    63    59    56    1
    64    59    60    1
    65    58    57    2
    66    56    57    1
    67    76    77    1
    68     8    10   ar
    69     8     6   ar
    70    10    11   ar
    71     5     6    1
    72     5     2    1
    73     6     7   ar
    74    11    12    1
    75    11     9   ar
    76    65    66    1
    77    65    62    1
    78     7     9   ar
    79    66    68   am
    80    66    67    2
    81     1     2    1
    82    61    62    1
    83     2     3    1
    84    64    63    2
    85    62    63    1
    86    24    23    1
    87    22    23   ar
    88    22    20   ar
    89    23    21   ar
    90    20    18   ar
    91    21    19   ar
    92     3     4    2
    93   106   103    1
    94    18    19   ar
    95    18    17    1
    96    17    14    1
    97   103   104    1
    98   103   102    1
    99    16    15    2
   100    14    15    1
   101    14    13    1
   102   104   105    2
