@<TRIPOS>MOLECULE
tmp/5ykpA00.pdb
 166 160 0 0 0
SMALL
GASTEIGER

@<TRIPOS>ATOM
      1  N          8.6860    7.6050   29.2760 N.3   104  PRO104     -0.2116
      2  CA         8.7800    8.6000   28.2170 C.3   104  PRO104      0.1372
      3  C          8.8070   10.0460   28.7190 C.2   104  PRO104      0.2244
      4  O          9.2490   10.9560   28.0100 O.2   104  PRO104     -0.2868
      5  CB         7.4960    8.3690   27.3820 C.3   104  PRO104      0.0268
      6  CG         7.1480    6.9510   27.7020 C.3   104  PRO104      0.0207
      7  CD         7.4220    6.8290   29.1940 C.3   104  PRO104      0.0892
      8  N         11.7860   12.2970   28.5650 N.3   107  TYR107     -0.1241
      9  CA        12.8960   11.6770   27.8250 C.3   107  TYR107      0.1605
     10  C         13.1860   12.5370   26.5940 C.2   107  TYR107      0.2264
     11  O         12.3490   12.6650   25.7120 O.2   107  TYR107     -0.2867
     12  CB        12.6110   10.2270   27.4590 C.3   107  TYR107      0.0534
     13  CG        13.8230    9.5690   26.8780 C.ar  107  TYR107     -0.0201
     14  CD1       14.8910    9.2250   27.6930 C.ar  107  TYR107     -0.0009
     15  CD2       13.9420    9.3580   25.5110 C.ar  107  TYR107     -0.0009
     16  CE1       16.0370    8.6320   27.1900 C.ar  107  TYR107      0.0417
     17  CE2       15.0850    8.7600   24.9900 C.ar  107  TYR107      0.0417
     18  CZ        16.1250    8.3850   25.8290 C.ar  107  TYR107      0.1957
     19  OH        17.2600    7.8180   25.3330 O.3   107  TYR107     -0.2866
     20  N         10.3900   14.7330   25.7040 N.3   110  PHE110     -0.1241
     21  CA         9.0870   14.1460   25.2610 C.3   110  PHE110      0.1605
     22  C          8.0420   14.5880   26.2740 C.2   110  PHE110      0.2264
     23  O          8.2800   14.5180   27.5000 O.2   110  PHE110     -0.2867
     24  CB         9.1270   12.6190   25.1780 C.3   110  PHE110      0.0534
     25  CG         7.8650   12.0170   24.6110 C.ar  110  PHE110     -0.0203
     26  CD1        7.6730   11.9540   23.2360 C.ar  110  PHE110     -0.0042
     27  CD2        6.9100   11.4400   25.4400 C.ar  110  PHE110     -0.0042
     28  CE1        6.5040   11.4100   22.7110 C.ar  110  PHE110     -0.0003
     29  CE2        5.7310   10.9270   24.9070 C.ar  110  PHE110     -0.0003
     30  CZ         5.5770   10.8380   23.5460 C.ar  110  PHE110     -0.0000
     31  N          3.3540    6.6750   24.3250 N.3   115  CYS115     -0.1235
     32  CA         3.2470    7.0310   22.8970 C.3   115  CYS115      0.1677
     33  C          1.9760    6.4130   22.3230 C.2   115  CYS115      0.2270
     34  O          1.7390    5.1700   22.4950 O.2   115  CYS115     -0.2867
     35  CB         4.4740    6.5810   22.1350 C.3   115  CYS115      0.0956
     36  SG         6.0050    7.3150   22.7560 S.3   115  CYS115     -0.0801
     37  N          5.4760    5.3750   14.9880 N.3   123  CYS123     -0.1221
     38  CA         5.7870    5.3080   16.4300 C.3   123  CYS123      0.1808
     39  C          5.9520    6.7090   16.9940 C.2   123  CYS123      0.2601
     40  O          6.0020    7.6840   16.2360 O.2   123  CYS123     -0.2717
     41  CB         7.0250    4.4600   16.6610 C.3   123  CYS123      0.0970
     42  SG         8.5260    5.2040   15.9550 S.3   123  CYS123     -0.0800
     43  N          5.9890    6.7860   18.3200 N.am  124  HIS124     -0.1975
     44  CA         6.2940    7.9990   19.1110 C.3   124  HIS124      0.1656
     45  C          5.2330    9.0720   18.9320 C.2   124  HIS124      0.2291
     46  O          5.5320   10.2290   19.1290 O.2   124  HIS124     -0.2864
     47  CB         7.6860    8.4900   18.7550 C.3   124  HIS124      0.0771
     48  CG         8.7170    7.4590   19.0520 C.ar  124  HIS124      0.0820
     49  ND1        9.9630    7.4810   18.4720 N.ar  124  HIS124     -0.2267
     50  CD2        8.7400    6.4550   19.9780 C.ar  124  HIS124      0.1154
     51  CE1       10.6620    6.4440   18.9050 C.ar  124  HIS124      0.1986
     52  NE2        9.9460    5.8080   19.8360 N.ar  124  HIS124     -0.2212
     53  N          2.1570    2.4060   23.3160 N.3   141  ASP141     -0.1239
     54  CA         3.5240    1.9450   23.7020 C.3   141  ASP141      0.1674
     55  C          3.7440    2.4620   25.1150 C.2   141  ASP141      0.2266
     56  O          3.6600    3.6860   25.3610 O.2   141  ASP141     -0.2867
     57  CB         4.5670    2.3230   22.6470 C.3   141  ASP141      0.1410
     58  CG         5.9280    1.6670   22.8910 C.2   141  ASP141      0.3668
     59  OD1        6.2100    1.3500   24.0290 O.co2 141  ASP141     -0.2456
     60  OD2        6.6490    1.4300   21.9540 O.co2 141  ASP141     -0.2456
     61  N          6.2110    2.3910   28.4290 N.3   143  THR143     -0.1218
     62  CA         7.5300    2.1310   29.0500 C.3   143  THR143      0.1862
     63  C          7.4860    2.6300   30.4930 C.2   143  THR143      0.2287
     64  O          7.0990    3.8050   30.7140 O.2   143  THR143     -0.2866
     65  CB         8.6940    2.7480   28.2660 C.3   143  THR143      0.1770
     66  OG1        8.4540    4.1330   28.0050 O.3   143  THR143     -0.2211
     67  CG2        8.9470    2.0160   26.9720 C.3   143  THR143      0.0375
     68  N          9.2860   -2.3650   28.5850 N.3   152  ASP152     -0.1239
     69  CA         8.7910   -1.7510   27.3150 C.3   152  ASP152      0.1674
     70  C          7.9040   -2.7070   26.5400 C.2   152  ASP152      0.2266
     71  O          8.3100   -3.8480   26.2600 O.2   152  ASP152     -0.2867
     72  CB        10.0250   -1.3220   26.5200 C.3   152  ASP152      0.1410
     73  CG         9.8140   -0.4940   25.2520 C.2   152  ASP152      0.3668
     74  OD1        8.6710   -0.1090   24.9670 O.co2 152  ASP152     -0.2456
     75  OD2       10.8440   -0.2160   24.5820 O.co2 152  ASP152     -0.2456
     76  N         14.0300    2.7390   10.0360 N.3   211  SER211     -0.1202
     77  CA        14.6240    3.8350   10.8270 C.3   211  SER211      0.2020
     78  C         14.5470    3.5590   12.3280 C.2   211  SER211      0.2619
     79  O         15.1930    4.2700   13.0870 O.2   211  SER211     -0.2717
     80  CB        13.9940    5.1430   10.4930 C.3   211  SER211      0.2103
     81  OG        14.3310    5.5040    9.1630 O.3   211  SER211     -0.2182
     82  N         13.7300    2.5960   12.7210 N.am  212  TYR212     -0.1961
     83  CA        13.5360    2.2660   14.1490 C.3   212  TYR212      0.1771
     84  C         13.7600    0.7680   14.3040 C.2   212  TYR212      0.2619
     85  O         13.4660    0.0220   13.3470 O.2   212  TYR212     -0.2715
     86  CB        12.1500    2.7230   14.5900 C.3   212  TYR212      0.0574
     87  CG        11.9700    4.2160   14.4930 C.ar  212  TYR212     -0.0198
     88  CD1       12.3900    5.0420   15.5160 C.ar  212  TYR212     -0.0009
     89  CD2       11.4300    4.7910   13.3580 C.ar  212  TYR212     -0.0009
     90  CE1       12.2490    6.4180   15.4270 C.ar  212  TYR212      0.0417
     91  CE2       11.2610    6.1610   13.2680 C.ar  212  TYR212      0.0417
     92  CZ        11.6870    6.9750   14.2920 C.ar  212  TYR212      0.1957
     93  OH        11.5440    8.3230   14.1700 O.3   212  TYR212     -0.2866
     94  N         14.1960    0.3580   15.4960 N.am  213  CYS213     -0.1968
     95  CA        14.6940   -1.0130   15.7650 C.3   213  CYS213      0.1712
     96  C         14.3080   -1.4510   17.1780 C.2   213  CYS213      0.2296
     97  O         14.0780   -0.5640   18.0200 O.2   213  CYS213     -0.2864
     98  CB        16.2120   -1.0110   15.5980 C.3   213  CYS213      0.0983
     99  SG        16.7000   -0.6450   13.8910 S.3   213  CYS213     -0.0798
    100  N         15.7490   -3.1210   20.6870 N.3   215  HIS215     -0.1241
    101  CA        16.8780   -2.5550   21.4540 C.3   215  HIS215      0.1621
    102  C         17.0480   -3.2950   22.7720 C.2   215  HIS215      0.2264
    103  O         16.0430   -3.6780   23.4310 O.2   215  HIS215     -0.2867
    104  CB        16.6300   -1.0630   21.7310 C.3   215  HIS215      0.0745
    105  CG        15.2810   -0.7750   22.3320 C.ar  215  HIS215      0.0817
    106  ND1       15.0760   -0.7160   23.7110 N.ar  215  HIS215     -0.2268
    107  CD2       14.0820   -0.5390   21.7450 C.ar  215  HIS215      0.1154
    108  CE1       13.7540   -0.5070   23.9130 C.ar  215  HIS215      0.1986
    109  NE2       13.1620   -0.3830   22.7340 N.ar  215  HIS215     -0.2212
    110  N         16.8820    2.9740   28.9040 N.3   221  MET221     -0.1230
    111  CA        15.7000    2.7250   28.0560 C.3   221  MET221      0.1702
    112  C         16.0960    2.0530   26.7450 C.2   221  MET221      0.2592
    113  O         15.3580    1.2020   26.2640 O.2   221  MET221     -0.2718
    114  CB        14.9460    4.0080   27.7380 C.3   221  MET221      0.0401
    115  CG        13.4700    3.7490   27.8730 C.3   221  MET221      0.0596
    116  SD        12.5290    5.0810   27.2200 S.3   221  MET221     -0.1393
    117  CE        13.2200    6.3390   28.2760 C.3   221  MET221      0.0692
    118  N         17.2540    2.3960   26.1890 N.am  222  HIS222     -0.1976
    119  CA        17.7500    1.7070   24.9880 C.3   222  HIS222      0.1656
    120  C         19.2670    1.5960   25.0720 C.2   222  HIS222      0.2291
    121  O         19.9270    2.5720   25.4470 O.2   222  HIS222     -0.2864
    122  CB        17.2440    2.3520   23.7090 C.3   222  HIS222      0.0771
    123  CG        17.7420    3.7390   23.5000 C.ar  222  HIS222      0.0820
    124  ND1       18.7490    4.0150   22.5900 N.ar  222  HIS222     -0.2267
    125  CD2       17.3540    4.9310   24.0170 C.ar  222  HIS222      0.1154
    126  CE1       19.0100    5.3130   22.6100 C.ar  222  HIS222      0.1986
    127  NE2       18.1430    5.9000   23.4540 N.ar  222  HIS222     -0.2212
    128  N         21.1930   -3.4540   19.0700 N.3   226  ASN226     -0.1240
    129  CA        20.3050   -2.8360   18.0700 C.3   226  ASN226      0.1653
    130  C         19.7240   -4.0020   17.2810 C.2   226  ASN226      0.2266
    131  O         20.4900   -4.8870   16.8560 O.2   226  ASN226     -0.2867
    132  CB        21.0760   -1.8230   17.2220 C.3   226  ASN226      0.1155
    133  CG        20.1580   -1.0060   16.3500 C.2   226  ASN226      0.2627
    134  OD1       19.3770   -0.2090   16.8590 O.2   226  ASN226     -0.2716
    135  ND2       20.2370   -1.2120   15.0480 N.am  226  ASN226     -0.0877
    136  N         10.1700   -5.3200   18.0980 N.3   248  GLU248     -0.1245
    137  CA         9.0330   -4.3550   17.9900 C.3   248  GLU248      0.1567
    138  C          8.7870   -3.9580   16.5470 C.2   248  GLU248      0.2260
    139  O          8.8020   -2.7800   16.1740 O.2   248  GLU248     -0.2867
    140  CB         9.2960   -3.1700   18.9150 C.3   248  GLU248      0.0388
    141  CG        10.5770   -2.3870   18.6710 C.3   248  GLU248      0.1160
    142  CD        10.6500   -1.2390   19.6420 C.2   248  GLU248      0.3649
    143  OE1       11.4290   -1.3130   20.6310 O.co2 248  GLU248     -0.2457
    144  OE2        9.8020   -0.3060   19.4790 O.co2 248  GLU248     -0.2457
    145  N          7.6430   -2.7050   13.1340 N.3   250  MET250     -0.1245
    146  CA         6.7380   -1.6850   12.5510 C.3   250  MET250      0.1570
    147  C          6.5430   -2.0200   11.0670 C.2   250  MET250      0.2261
    148  O          7.5330   -2.0080   10.3140 O.2   250  MET250     -0.2867
    149  CB         7.3370   -0.2860   12.7120 C.3   250  MET250      0.0387
    150  CG         7.7110    0.0590   14.1570 C.3   250  MET250      0.0595
    151  SD         8.7440    1.5310   14.2610 S.3   250  MET250     -0.1393
    152  CE         8.9500    1.7220   16.0300 C.3   250  MET250      0.0692
    153  N          9.1200   14.1970   17.1380 N.3   265  TRP265     -0.1241
    154  CA         8.8460   12.8470   17.6850 C.3   265  TRP265      0.1605
    155  C          7.9860   12.0060   16.7540 C.2   265  TRP265      0.2264
    156  O          8.3430   10.8150   16.5520 O.2   265  TRP265     -0.2867
    157  CB         8.1410   12.9640   19.0330 C.3   265  TRP265      0.0550
    158  CG         9.0850   13.3620   20.1000 C.ar  265  TRP265      0.0003
    159  CD1        9.1220   14.5430   20.7830 C.ar  265  TRP265      0.0946
    160  CD2       10.1760   12.5680   20.6020 C.ar  265  TRP265      0.0152
    161  NE1       10.1250   14.5110   21.7200 N.ar  265  TRP265     -0.2442
    162  CE2       10.7760   13.3190   21.6360 C.ar  265  TRP265      0.0810
    163  CE3       10.6410   11.2800   20.3440 C.ar  265  TRP265      0.0012
    164  CZ2       11.8490   12.8310   22.3720 C.ar  265  TRP265      0.0191
    165  CZ3       11.7150   10.8070   21.0590 C.ar  265  TRP265      0.0001
    166  CH2       12.3090   11.5810   22.0460 C.ar  265  TRP265      0.0015
@<TRIPOS>BOND
     1    81    80    1
     2    76    77    1
     3   148   147    2
     4    80    77    1
     5    77    78    1
     6   147   146    1
     7    78    82   am
     8    78    79    2
     9   146   149    1
    10   146   145    1
    11   149   150    1
    12    82    83    1
    13    91    89   ar
    14    91    92   ar
    15    85    84    2
    16    89    87   ar
    17    99    98    1
    18    83    84    1
    19    83    86    1
    20   150   151    1
    21    93    92    1
    22   151   152    1
    23    92    90   ar
    24    84    94   am
    25    87    86    1
    26    87    88   ar
    27    37    38    1
    28   135   133   am
    29    90    88   ar
    30    94    95    1
    31    98    95    1
    32    95    96    1
    33    42    41    1
    34   139   138    2
    35    40    39    2
    36   133   134    2
    37   133   132    1
    38    38    41    1
    39    38    39    1
    40   138   137    1
    41   156   155    2
    42   155   154    1
    43   131   130    2
    44    39    43   am
    45   153   154    1
    46    96    97    2
    47   132   129    1
    48   130   129    1
    49   154   157    1
    50   137   136    1
    51   137   140    1
    52   129   128    1
    53    43    44    1
    54    49    51   ar
    55    49    48   ar
    56   141   140    1
    57   141   142    1
    58    47    48    1
    59    47    44    1
    60    51    52   ar
    61    45    44    1
    62    45    46    2
    63   157   158    1
    64    48    50   ar
    65   144   142   ar
    66   142   143   ar
    67    52    50   ar
    68   158   160   ar
    69   158   159   ar
    70   163   160   ar
    71   163   165   ar
    72   160   162   ar
    73   100   101    1
    74   159   161   ar
    75   165   166   ar
    76   101   104    1
    77   101   102    1
    78   162   161   ar
    79   162   164   ar
    80   104   105    1
    81   107   105   ar
    82   107   109   ar
    83    60    58   ar
    84   166   164   ar
    85    35    36    1
    86    35    32    1
    87    33    34    2
    88    33    32    1
    89   105   106   ar
    90   124   126   ar
    91   124   123   ar
    92   126   127   ar
    93    57    58    1
    94    57    54    1
    95    28    26   ar
    96    28    30   ar
    97   109   108   ar
    98   102   103    2
    99    58    59   ar
   100    32    31    1
   101    26    25   ar
   102    53    54    1
   103   127   125   ar
   104   123   122    1
   105   123   125   ar
   106    30    29   ar
   107    54    55    1
   108   122   119    1
   109   106   108   ar
   110    75    73   ar
   111    25    24    1
   112    25    27   ar
   113    29    27   ar
   114    74    73   ar
   115   119   120    1
   116   119   118    1
   117    17    15   ar
   118    17    18   ar
   119   120   121    2
   120    55    56    2
   121    24    21    1
   122    73    72    1
   123    21    20    1
   124    21    22    1
   125    19    18    1
   126    15    13   ar
   127    11    10    2
   128    18    16   ar
   129   118   112   am
   130    71    70    2
   131   113   112    2
   132    22    23    2
   133    72    69    1
   134    70    69    1
   135    10     9    1
   136   112   111    1
   137    13    12    1
   138    13    14   ar
   139    67    65    1
   140    16    14   ar
   141   116   115    1
   142   116   117    1
   143    69    68    1
   144     5     6    1
   145     5     2    1
   146    12     9    1
   147     6     7    1
   148   114   115    1
   149   114   111    1
   150     9     8    1
   151    66    65    1
   152     4     3    2
   153   111   110    1
   154     2     3    1
   155     2     1    1
   156    65    62    1
   157    61    62    1
   158    62    63    1
   159     7     1    1
   160    63    64    2
