@<TRIPOS>MOLECULE
tmp/5yktB00.pdb
 121 116 0 0 0
SMALL
GASTEIGER

@<TRIPOS>ATOM
      1  N        131.2860  101.4300   28.4330 N.3    45  TRP45      -0.1241
      2  CA       132.5340  102.2180   28.5480 C.3    45  TRP45       0.1605
      3  C        133.1000  102.1300   29.9650 C.2    45  TRP45       0.2264
      4  O        134.3110  102.2580   30.1580 O.2    45  TRP45      -0.2867
      5  CB       132.3020  103.6820   28.2480 C.3    45  TRP45       0.0550
      6  CG       131.6970  104.0300   26.9260 C.ar   45  TRP45       0.0003
      7  CD1      131.3600  103.2020   25.8980 C.ar   45  TRP45       0.0946
      8  CD2      131.3840  105.3520   26.5030 C.ar   45  TRP45       0.0152
      9  NE1      130.8110  103.9330   24.8660 N.ar   45  TRP45      -0.2442
     10  CE2      130.8190  105.2540   25.2150 C.ar   45  TRP45       0.0810
     11  CE3      131.5170  106.6130   27.0950 C.ar   45  TRP45       0.0012
     12  CZ2      130.3930  106.3750   24.5110 C.ar   45  TRP45       0.0191
     13  CZ3      131.1080  107.7320   26.3820 C.ar   45  TRP45       0.0001
     14  CH2      130.5520  107.5970   25.1000 C.ar   45  TRP45       0.0015
     15  N        133.9950  112.0760   32.8460 N.3    80  ASP80      -0.1239
     16  CA       134.4980  112.2130   31.4840 C.3    80  ASP80       0.1674
     17  C        133.9550  113.4700   30.8150 C.2    80  ASP80       0.2266
     18  O        133.4760  113.4400   29.6860 O.2    80  ASP80      -0.2867
     19  CB       134.2150  110.9510   30.6470 C.3    80  ASP80       0.1410
     20  CG       134.9980  110.9340   29.3460 C.2    80  ASP80       0.3668
     21  OD1      136.1870  111.3510   29.3520 O.co2  80  ASP80      -0.2456
     22  OD2      134.4120  110.4910   28.3270 O.co2  80  ASP80      -0.2456
     23  N        121.0640  114.6750   24.0400 N.3   134  SER134     -0.1202
     24  CA       122.5000  114.4000   23.9630 C.3   134  SER134      0.2020
     25  C        123.1770  115.1810   22.8640 C.2   134  SER134      0.2619
     26  O        122.5480  115.5750   21.8770 O.2   134  SER134     -0.2717
     27  CB       122.7550  112.9060   23.7060 C.3   134  SER134      0.2103
     28  OG       122.3790  112.5510   22.3850 O.3   134  SER134     -0.2182
     29  N        124.4900  115.3780   23.0130 N.am  135  ALA135     -0.1965
     30  CA       125.2610  116.0180   21.9600 C.3   135  ALA135      0.1728
     31  C        125.2240  115.2030   20.6750 C.2   135  ALA135      0.2616
     32  O        125.1620  115.7640   19.5740 O.2   135  ALA135     -0.2715
     33  CB       126.6880  116.2580   22.3960 C.3   135  ALA135      0.0334
     34  N        125.2520  113.8730   20.7910 N.am  136  THR136     -0.1951
     35  CA       125.0940  113.0140   19.6110 C.3   136  THR136      0.1897
     36  C        123.8300  113.3870   18.8430 C.2   136  THR136      0.2313
     37  O        123.8650  113.5840   17.6240 O.2   136  THR136     -0.2863
     38  CB       125.0120  111.5190   19.9750 C.3   136  THR136      0.1794
     39  OG1      126.2730  111.0500   20.4760 O.3   136  THR136     -0.2208
     40  CG2      124.6330  110.6920   18.7610 C.3   136  THR136      0.0378
     41  N        124.0100  116.6920   17.0080 N.3   139  ASN139     -0.1240
     42  CA       124.7510  116.5140   15.7640 C.3   139  ASN139      0.1653
     43  C        123.9070  115.7860   14.6980 C.2   139  ASN139      0.2266
     44  O        123.8410  116.2300   13.5470 O.2   139  ASN139     -0.2867
     45  CB       126.0660  115.7680   16.0250 C.3   139  ASN139      0.1155
     46  CG       127.1270  116.6480   16.6620 C.2   139  ASN139      0.2627
     47  OD1      127.1710  117.8570   16.4150 O.2   139  ASN139     -0.2716
     48  ND2      128.0130  116.0470   17.4530 N.am  139  ASN139     -0.0877
     49  N        135.7190  112.7520   17.1620 N.3   162  TYR162     -0.1227
     50  CA       134.5830  112.0850   17.8170 C.3   162  TYR162      0.1736
     51  C        133.4680  113.0700   17.9820 C.2   162  TYR162      0.2595
     52  O        133.6790  114.1740   18.4890 O.2   162  TYR162     -0.2718
     53  CB       134.9380  111.4850   19.1820 C.3   162  TYR162      0.0548
     54  CG       133.8250  110.5900   19.7190 C.ar  162  TYR162     -0.0200
     55  CD1      133.4790  109.4240   19.0530 C.ar  162  TYR162     -0.0009
     56  CD2      133.0880  110.9370   20.8540 C.ar  162  TYR162     -0.0009
     57  CE1      132.4520  108.6170   19.5110 C.ar  162  TYR162      0.0417
     58  CE2      132.0660  110.1260   21.3250 C.ar  162  TYR162      0.0417
     59  CZ       131.7440  108.9650   20.6530 C.ar  162  TYR162      0.1957
     60  OH       130.7190  108.1680   21.1160 O.3   162  TYR162     -0.2866
     61  N        132.2740  112.6740   17.5520 N.am  163  HIS163     -0.1961
     62  CA       131.0720  113.4960   17.6610 C.3   163  HIS163      0.1787
     63  C        129.8950  112.7360   18.2630 C.2   163  HIS163      0.2620
     64  O        128.7630  113.2030   18.1730 O.2   163  HIS163     -0.2715
     65  CB       130.6900  114.0020   16.2700 C.3   163  HIS163      0.0785
     66  CG       131.7200  114.8980   15.6980 C.ar  163  HIS163      0.0821
     67  ND1      131.9540  116.1520   16.2180 N.ar  163  HIS163     -0.2267
     68  CD2      132.6690  114.6780   14.7600 C.ar  163  HIS163      0.1154
     69  CE1      132.9980  116.6770   15.5920 C.ar  163  HIS163      0.1986
     70  NE2      133.4410  115.8080   14.6990 N.ar  163  HIS163     -0.2212
     71  N        130.1710  111.6090   18.9210 N.am  164  GLY164     -0.1954
     72  CA       129.1190  110.7450   19.4440 C.3   164  GLY164      0.1869
     73  C        128.8150  109.5830   18.5360 C.2   164  GLY164      0.2309
     74  O        129.5960  109.2670   17.5910 O.2   164  GLY164     -0.2863
     75  N        134.9540  119.7190   15.7460 N.3   222  GLU222     -0.1245
     76  CA       135.3530  120.5170   16.8880 C.3   222  GLU222      0.1567
     77  C        136.2510  121.6290   16.3620 C.2   222  GLU222      0.2260
     78  O        136.9340  121.4610   15.3520 O.2   222  GLU222     -0.2867
     79  CB       136.1510  119.7090   17.8880 C.3   222  GLU222      0.0388
     80  CG       135.4320  118.5730   18.5690 C.3   222  GLU222      0.1160
     81  CD       136.3410  117.9510   19.6190 C.2   222  GLU222      0.3649
     82  OE1      137.1450  117.0510   19.2470 O.co2 222  GLU222     -0.2457
     83  OE2      136.2760  118.4190   20.7810 O.co2 222  GLU222     -0.2457
     84  N        139.5880  114.5540   21.0070 N.3   227  ASN227     -0.1240
     85  CA       139.2750  113.1400   21.1880 C.3   227  ASN227      0.1653
     86  C        140.3280  112.2100   20.5590 C.2   227  ASN227      0.2266
     87  O        140.0530  111.0470   20.2940 O.2   227  ASN227     -0.2867
     88  CB       137.8830  112.8840   20.6340 C.3   227  ASN227      0.1155
     89  CG       136.7990  113.4220   21.5510 C.2   227  ASN227      0.2627
     90  OD1      136.0140  114.3170   21.1810 O.2   227  ASN227     -0.2716
     91  ND2      136.7320  112.8730   22.7470 N.am  227  ASN227     -0.0877
     92  N        131.1870  121.8850   16.9020 N.3   255  ASP255     -0.1239
     93  CA       130.8220  121.0760   18.0630 C.3   255  ASP255      0.1674
     94  C        131.7320  121.4330   19.2410 C.2   255  ASP255      0.2266
     95  O        132.9300  121.1110   19.2220 O.2   255  ASP255     -0.2867
     96  CB       130.9620  119.6050   17.6590 C.3   255  ASP255      0.1410
     97  CG       130.6030  118.6280   18.7710 C.2   255  ASP255      0.3668
     98  OD1      130.3610  119.0340   19.9370 O.co2 255  ASP255     -0.2456
     99  OD2      130.5710  117.4210   18.4390 O.co2 255  ASP255     -0.2456
    100  N        131.2430  120.5590   22.5090 N.3   257  THR257     -0.1203
    101  CA       130.9820  119.6870   23.6420 C.3   257  THR257      0.1994
    102  C        132.1550  119.6240   24.6300 C.2   257  THR257      0.2617
    103  O        131.9230  119.6190   25.8520 O.2   257  THR257     -0.2717
    104  CB       130.5670  118.3070   23.1230 C.3   257  THR257      0.1784
    105  OG1      129.3250  118.4660   22.4100 O.3   257  THR257     -0.2211
    106  CG2      130.3690  117.2900   24.2640 C.3   257  THR257      0.0376
    107  N        133.3770  119.5710   24.1070 N.am  258  HIS258     -0.1975
    108  CA       134.5880  119.6920   24.9480 C.3   258  HIS258      0.1656
    109  C        135.2160  121.0870   24.9580 C.2   258  HIS258      0.2291
    110  O        135.7440  121.5260   26.0020 O.2   258  HIS258     -0.2864
    111  CB       135.6570  118.6870   24.5520 C.3   258  HIS258      0.0771
    112  CG       135.3710  117.2860   24.9850 C.ar  258  HIS258      0.0820
    113  ND1      136.0780  116.2090   24.4910 N.ar  258  HIS258     -0.2267
    114  CD2      134.4920  116.7890   25.8860 C.ar  258  HIS258      0.1154
    115  CE1      135.6260  115.1030   25.0590 C.ar  258  HIS258      0.1986
    116  NE2      134.6630  115.4240   25.9000 N.ar  258  HIS258     -0.2212
    117  N        126.1940  118.0020   27.4250 N.3   282  ALA282     -0.1245
    118  CA       125.4650  117.9270   28.7020 C.3   282  ALA282      0.1562
    119  C        126.1120  118.5940   29.9110 C.2   282  ALA282      0.2260
    120  O        125.4590  118.6770   30.9520 O.2   282  ALA282     -0.2867
    121  CB       125.1250  116.4820   29.0330 C.3   282  ALA282      0.0290
@<TRIPOS>BOND
     1    44    43    2
     2    43    42    1
     3    70    68   ar
     4    70    69   ar
     5    68    66   ar
     6    78    77    2
     7    69    67   ar
     8    66    67   ar
     9    66    65    1
    10    75    76    1
    11    42    45    1
    12    42    41    1
    13    45    46    1
    14    65    62    1
    15    77    76    1
    16    47    46    2
    17    46    48   am
    18    76    79    1
    19    92    93    1
    20    49    50    1
    21    61    62    1
    22    61    51   am
    23    74    73    2
    24    37    36    2
    25    96    93    1
    26    96    97    1
    27    62    63    1
    28    50    51    1
    29    50    53    1
    30    79    80    1
    31    51    52    2
    32    93    94    1
    33    64    63    2
    34    63    71   am
    35    99    97   ar
    36    73    72    1
    37    80    81    1
    38    40    38    1
    39    97    98   ar
    40    36    35    1
    41    71    72    1
    42    55    57   ar
    43    55    54   ar
    44    53    54    1
    45    95    94    2
    46    82    81   ar
    47    57    59   ar
    48    32    31    2
    49    35    38    1
    50    35    34    1
    51    81    83   ar
    52    54    56   ar
    53    38    39    1
    54    87    86    2
    55    86    85    1
    56    88    85    1
    57    88    89    1
    58    59    60    1
    59    59    58   ar
    60    31    34   am
    61    31    30    1
    62    56    58   ar
    63    84    85    1
    64    90    89    2
    65    89    91   am
    66    26    25    2
    67    30    33    1
    68    30    29    1
    69    28    27    1
    70   105   104    1
    71   100   101    1
    72    25    29   am
    73    25    24    1
    74   104   101    1
    75   104   106    1
    76   101   102    1
    77    27    24    1
    78    24    23    1
    79   107   102   am
    80   107   108    1
    81   113   112   ar
    82   113   115   ar
    83    12    14   ar
    84    12    10   ar
    85   111   108    1
    86   111   112    1
    87   102   103    2
    88     9    10   ar
    89     9     7   ar
    90   108   109    1
    91   109   110    2
    92   112   114   ar
    93   115   116   ar
    94    14    13   ar
    95    10     8   ar
    96   114   116   ar
    97     7     6   ar
    98    13    11   ar
    99     8     6   ar
   100     8    11   ar
   101     6     5    1
   102   117   118    1
   103     5     2    1
   104    22    20   ar
   105     1     2    1
   106     2     3    1
   107   118   121    1
   108   118   119    1
   109    20    21   ar
   110    20    19    1
   111    18    17    2
   112   119   120    2
   113     3     4    2
   114    19    16    1
   115    17    16    1
   116    16    15    1
