@<TRIPOS>MOLECULE
tmp/5yl2B02.pdb
 187 177 0 0 0
SMALL
GASTEIGER

@<TRIPOS>ATOM
      1  N         17.7010  214.5340   32.7010 N.3   200  TYR200     -0.1241
      2  CA        16.2590  214.3800   32.7650 C.3   200  TYR200      0.1605
      3  C         15.8520  213.0910   32.0270 C.2   200  TYR200      0.2264
      4  O         15.9840  212.9960   30.8060 O.2   200  TYR200     -0.2867
      5  CB        15.5660  215.6000   32.1640 C.3   200  TYR200      0.0534
      6  CG        15.8460  216.8950   32.8950 C.ar  200  TYR200     -0.0201
      7  CD1       15.2170  217.1840   34.1150 C.ar  200  TYR200     -0.0009
      8  CD2       16.7350  217.8390   32.3690 C.ar  200  TYR200     -0.0009
      9  CE1       15.4680  218.3740   34.7870 C.ar  200  TYR200      0.0417
     10  CE2       16.9830  219.0390   33.0290 C.ar  200  TYR200      0.0417
     11  CZ        16.3520  219.2990   34.2350 C.ar  200  TYR200      0.1957
     12  OH        16.6020  220.4840   34.9020 O.3   200  TYR200     -0.2866
     13  N         11.1950  222.9800   33.0270 N.3   236  VAL236     -0.1245
     14  CA        12.4990  222.7240   33.6680 C.3   236  VAL236      0.1561
     15  C         13.5670  223.7810   33.3280 C.2   236  VAL236      0.2260
     16  O         14.5940  223.8650   34.0030 O.2   236  VAL236     -0.2867
     17  CB        13.0520  221.2890   33.4190 C.3   236  VAL236      0.0252
     18  CG1       12.0960  220.2310   33.9380 C.3   236  VAL236      0.0019
     19  CG2       13.3670  221.0570   31.9530 C.3   236  VAL236      0.0019
     20  N         13.4030  228.8030   35.1640 N.3   239  CYS239     -0.1221
     21  CA        14.2110  229.5860   36.0990 C.3   239  CYS239      0.1808
     22  C         15.5880  229.9360   35.5500 C.2   239  CYS239      0.2601
     23  O         16.2540  230.8250   36.0750 O.2   239  CYS239     -0.2717
     24  CB        14.3190  228.8720   37.4370 C.3   239  CYS239      0.0970
     25  SG        12.7230  228.6930   38.2520 S.3   239  CYS239     -0.0800
     26  N         16.0010  229.2510   34.4840 N.am  240  LEU240     -0.1979
     27  CA        17.2050  229.6370   33.7500 C.3   240  LEU240      0.1596
     28  C         16.8980  230.7860   32.8080 C.2   240  LEU240      0.2287
     29  O         17.7770  231.5990   32.5020 O.2   240  LEU240     -0.2864
     30  CB        17.7870  228.4540   32.9570 C.3   240  LEU240      0.0297
     31  CG        18.0150  227.0920   33.6270 C.3   240  LEU240      0.0022
     32  CD1       18.3520  226.0660   32.5530 C.3   240  LEU240      0.0001
     33  CD2       19.0900  227.1160   34.7010 C.3   240  LEU240      0.0001
     34  N         15.9640  233.2470   43.0050 N.3   246  LEU246     -0.1245
     35  CA        17.1830  232.4850   43.2590 C.3   246  LEU246      0.1561
     36  C         18.3790  232.7190   42.3050 C.2   246  LEU246      0.2260
     37  O         19.5120  232.4290   42.6860 O.2   246  LEU246     -0.2867
     38  CB        16.8410  230.9900   43.3930 C.3   246  LEU246      0.0270
     39  CG        17.8350  230.0540   44.0900 C.3   246  LEU246      0.0019
     40  CD1       17.1260  229.0200   44.9470 C.3   246  LEU246      0.0001
     41  CD2       18.7320  229.3690   43.0680 C.3   246  LEU246      0.0001
     42  N         18.8550  231.1160   39.2300 N.3   248  ALA248     -0.1231
     43  CA        19.0820  229.6990   39.0130 C.3   248  ALA248      0.1694
     44  C         20.0600  229.4590   37.8680 C.2   248  ALA248      0.2592
     45  O         20.0160  230.1700   36.8650 O.2   248  ALA248     -0.2718
     46  CB        17.7560  229.0250   38.7360 C.3   248  ALA248      0.0304
     47  N         20.9570  228.4840   38.0390 N.am  249  ASP249     -0.1960
     48  CA        21.8160  228.0120   36.9410 C.3   249  ASP249      0.1840
     49  C         22.0670  226.4890   36.9780 C.2   249  ASP249      0.2621
     50  O         21.7020  225.8150   37.9560 O.2   249  ASP249     -0.2715
     51  CB        23.1200  228.8330   36.8460 C.3   249  ASP249      0.1450
     52  CG        24.2010  228.3830   37.8330 C.2   249  ASP249      0.3671
     53  OD1       23.9030  227.7010   38.8260 O.co2 249  ASP249     -0.2456
     54  OD2       25.3780  228.7230   37.6030 O.co2 249  ASP249     -0.2456
     55  N         22.7020  225.9560   35.9320 N.am  250  LEU250     -0.1977
     56  CA        22.9370  224.5110   35.8460 C.3   250  LEU250      0.1596
     57  C         23.8360  223.9480   36.9630 C.2   250  LEU250      0.2287
     58  O         23.5600  222.8630   37.4730 O.2   250  LEU250     -0.2864
     59  CB        23.4140  224.0950   34.4440 C.3   250  LEU250      0.0297
     60  CG        22.4030  224.1960   33.2860 C.3   250  LEU250      0.0022
     61  CD1       23.0800  223.9040   31.9580 C.3   250  LEU250      0.0001
     62  CD2       21.2020  223.2710   33.4640 C.3   250  LEU250      0.0001
     63  N         24.3960  225.1710   40.2010 N.3   252  LYS252     -0.1231
     64  CA        23.6590  225.1960   41.4640 C.3   252  LYS252      0.1693
     65  C         22.6190  224.0740   41.5340 C.2   252  LYS252      0.2591
     66  O         22.4470  223.4500   42.5920 O.2   252  LYS252     -0.2718
     67  CB        23.0120  226.5700   41.7060 C.3   252  LYS252      0.0285
     68  CG        23.9530  227.6230   42.2700 C.3   252  LYS252      0.0035
     69  CD        23.2290  228.9270   42.6160 C.3   252  LYS252      0.0206
     70  CE        23.3470  229.9600   41.5040 C.3   252  LYS252      0.1093
     71  NZ        23.0490  231.3430   41.9800 N.3   252  LYS252     -0.1314
     72  N         21.9530  223.7950   40.4100 N.am  253  LEU253     -0.1980
     73  CA        21.0540  222.6280   40.3230 C.3   253  LEU253      0.1596
     74  C         21.7850  221.3270   40.6750 C.2   253  LEU253      0.2287
     75  O         21.2760  220.5220   41.4480 O.2   253  LEU253     -0.2864
     76  CB        20.3710  222.5230   38.9480 C.3   253  LEU253      0.0297
     77  CG        19.2850  221.4420   38.8090 C.3   253  LEU253      0.0022
     78  CD1       18.0160  221.7830   39.5780 C.3   253  LEU253      0.0001
     79  CD2       18.9720  221.1990   37.3390 C.3   253  LEU253      0.0001
     80  N         22.9370  221.1670   44.5050 N.3   256  ASN256     -0.1225
     81  CA        21.7910  221.0330   45.4030 C.3   256  ASN256      0.1785
     82  C         20.9050  219.8040   45.2230 C.2   256  ASN256      0.2597
     83  O         20.2720  219.3760   46.1840 O.2   256  ASN256     -0.2718
     84  CB        20.9420  222.2980   45.3320 C.3   256  ASN256      0.1169
     85  CG        21.6100  223.4900   45.9990 C.2   256  ASN256      0.2627
     86  OD1       21.8700  223.4730   47.2010 O.2   256  ASN256     -0.2716
     87  ND2       21.8920  224.5260   45.2180 N.am  256  ASN256     -0.0877
     88  N         20.8630  219.2440   44.0110 N.am  257  MET257     -0.1979
     89  CA        19.9990  218.0950   43.7000 C.3   257  MET257      0.1605
     90  C         20.6840  216.7320   43.8430 C.2   257  MET257      0.2287
     91  O         20.0120  215.7230   44.0930 O.2   257  MET257     -0.2864
     92  CB        19.4100  218.2100   42.2860 C.3   257  MET257      0.0413
     93  CG        18.3480  219.2900   42.1100 C.3   257  MET257      0.0598
     94  SD        16.8300  219.0020   43.0370 S.3   257  MET257     -0.1393
     95  CE        16.1150  217.6260   42.1200 C.3   257  MET257      0.0692
     96  N         15.9960  214.6030   46.8050 N.3   312  THR312     -0.1203
     97  CA        15.8350  216.0470   46.6230 C.3   312  THR312      0.1994
     98  C         14.7000  216.2840   45.6280 C.2   312  THR312      0.2618
     99  O         14.4620  215.4470   44.7350 O.2   312  THR312     -0.2717
    100  CB        17.1070  216.7150   46.0430 C.3   312  THR312      0.1784
    101  OG1       17.5160  216.0210   44.8540 O.3   312  THR312     -0.2211
    102  CG2       18.2590  216.7320   47.0490 C.3   312  THR312      0.0376
    103  N         14.0080  217.4140   45.7800 N.am  313  VAL313     -0.1965
    104  CA        12.9670  217.8550   44.8440 C.3   313  VAL313      0.1727
    105  C         13.1490  219.3390   44.5280 C.2   313  VAL313      0.2616
    106  O         13.4030  220.1550   45.4280 O.2   313  VAL313     -0.2715
    107  CB        11.5250  217.6210   45.3850 C.3   313  VAL313      0.0290
    108  CG1       10.4750  218.1340   44.4060 C.3   313  VAL313      0.0023
    109  CG2       11.2580  216.1530   45.6930 C.3   313  VAL313      0.0023
    110  N         13.0370  219.6810   43.2490 N.am  314  ALA314     -0.1963
    111  CA        12.8540  221.0640   42.8450 C.3   314  ALA314      0.1728
    112  C         11.5300  221.1700   42.1050 C.2   314  ALA314      0.2616
    113  O         11.1710  220.2800   41.3140 O.2   314  ALA314     -0.2715
    114  CB        14.0050  221.5450   41.9810 C.3   314  ALA314      0.0334
    115  N         10.8060  222.2520   42.3900 N.am  315  ALA315     -0.1963
    116  CA         9.4770  222.5010   41.8380 C.3   315  ALA315      0.1728
    117  C          9.3520  223.9500   41.4060 C.2   315  ALA315      0.2616
    118  O          9.7590  224.8640   42.1260 O.2   315  ALA315     -0.2715
    119  CB         8.4020  222.1460   42.8560 C.3   315  ALA315      0.0334
    120  N          8.8020  224.1490   40.2160 N.am  316  ILE316     -0.1977
    121  CA         8.6510  225.4780   39.6440 C.3   316  ILE316      0.1596
    122  C          7.1920  225.7150   39.2320 C.2   316  ILE316      0.2287
    123  O          6.6530  225.0290   38.3540 O.2   316  ILE316     -0.2864
    124  CB         9.7280  225.7940   38.5470 C.3   316  ILE316      0.0276
    125  CG1        9.2480  226.8270   37.5160 C.3   316  ILE316      0.0022
    126  CG2       10.2000  224.5420   37.8300 C.3   316  ILE316      0.0022
    127  CD1        9.2400  228.2590   38.0160 C.3   316  ILE316      0.0001
    128  N         18.4870  214.2440   54.5160 N.3   345  ILE345     -0.1245
    129  CA        18.7000  215.5070   53.8000 C.3   345  ILE345      0.1561
    130  C         17.6000  216.4720   54.2760 C.2   345  ILE345      0.2260
    131  O         16.4550  216.3880   53.8140 O.2   345  ILE345     -0.2867
    132  CB        18.7200  215.3550   52.2530 C.3   345  ILE345      0.0252
    133  CG1       19.7900  214.3520   51.8020 C.3   345  ILE345      0.0019
    134  CG2       18.9810  216.7050   51.5870 C.3   345  ILE345      0.0019
    135  CD1       19.6750  213.9140   50.3510 C.3   345  ILE345      0.0001
    136  N         15.2020  219.6340   54.7310 N.3   347  ASN347     -0.1225
    137  CA        14.6100  220.6740   53.8720 C.3   347  ASN347      0.1785
    138  C         14.8690  220.4030   52.3790 C.2   347  ASN347      0.2597
    139  O         15.2060  221.3020   51.6200 O.2   347  ASN347     -0.2718
    140  CB        15.0790  222.0890   54.3070 C.3   347  ASN347      0.1169
    141  CG        15.3080  222.2020   55.8210 C.2   347  ASN347      0.2627
    142  OD1       16.4180  222.5310   56.2700 O.2   347  ASN347     -0.2716
    143  ND2       14.2700  221.9050   56.6140 N.am  347  ASN347     -0.0877
    144  N         14.7010  219.1410   51.9760 N.am  348  ASN348     -0.1960
    145  CA        15.0900  218.6760   50.6360 C.3   348  ASN348      0.1819
    146  C         14.1570  219.0650   49.4780 C.2   348  ASN348      0.2621
    147  O         14.3090  218.5470   48.3610 O.2   348  ASN348     -0.2715
    148  CB        15.3830  217.1600   50.6450 C.3   348  ASN348      0.1195
    149  CG        14.1650  216.3060   50.9810 C.2   348  ASN348      0.2630
    150  OD1       13.1250  216.8010   51.4180 O.2   348  ASN348     -0.2716
    151  ND2       14.3010  215.0000   50.7830 N.am  348  ASN348     -0.0877
    152  N         13.1970  219.9520   49.7410 N.am  349  VAL349     -0.1963
    153  CA        12.2920  220.4430   48.7030 C.3   349  VAL349      0.1727
    154  C         12.4150  221.9510   48.5580 C.2   349  VAL349      0.2616
    155  O         12.1990  222.6890   49.5200 O.2   349  VAL349     -0.2715
    156  CB        10.8150  220.0680   48.9690 C.3   349  VAL349      0.0290
    157  CG1        9.9290  220.5550   47.8290 C.3   349  VAL349      0.0023
    158  CG2       10.6460  218.5650   49.1550 C.3   349  VAL349      0.0023
    159  N         12.7690  222.3960   47.3550 N.am  350  LYS350     -0.1963
    160  CA        12.8540  223.8180   47.0520 C.3   350  LYS350      0.1728
    161  C         11.8540  224.1940   45.9600 C.2   350  LYS350      0.2617
    162  O         11.6880  223.4660   44.9680 O.2   350  LYS350     -0.2715
    163  CB        14.2850  224.2090   46.6560 C.3   350  LYS350      0.0311
    164  CG        14.5140  225.6970   46.4170 C.3   350  LYS350      0.0038
    165  CD        14.6600  226.4890   47.7070 C.3   350  LYS350      0.0206
    166  CE        14.6440  227.9790   47.4170 C.3   350  LYS350      0.1093
    167  NZ        13.2770  228.5690   47.3230 N.3   350  LYS350     -0.1314
    168  N         11.2030  225.3360   46.1530 N.am  351  THR351     -0.1937
    169  CA        10.1560  225.7940   45.2510 C.3   351  THR351      0.2028
    170  C         10.4320  227.2090   44.7540 C.2   351  THR351      0.2642
    171  O         10.9240  228.0560   45.4980 O.2   351  THR351     -0.2714
    172  CB         8.7710  225.7250   45.9280 C.3   351  THR351      0.1808
    173  OG1        8.6010  224.4380   46.5340 O.3   351  THR351     -0.2208
    174  CG2        7.6670  225.9270   44.9190 C.3   351  THR351      0.0379
    175  N         10.1310  227.4320   43.4820 N.am  352  ALA352     -0.1977
    176  CA        10.1400  228.7540   42.8840 C.3   352  ALA352      0.1597
    177  C          8.7850  229.0320   42.2550 C.2   352  ALA352      0.2287
    178  O          8.0170  228.1110   41.9580 O.2   352  ALA352     -0.2864
    179  CB        11.2370  228.8640   41.8380 C.3   352  ALA352      0.0319
    180  N         10.7310  218.3880   39.3860 N.3   368  ILE368     -0.1245
    181  CA        12.0500  217.7730   39.1720 C.3   368  ILE368      0.1561
    182  C         12.4190  216.9950   40.4290 C.2   368  ILE368      0.2260
    183  O         12.7890  217.5790   41.4590 O.2   368  ILE368     -0.2867
    184  CB        13.1650  218.7900   38.8200 C.3   368  ILE368      0.0252
    185  CG1       12.7330  219.6890   37.6690 C.3   368  ILE368      0.0019
    186  CG2       14.4650  218.0590   38.4900 C.3   368  ILE368      0.0019
    187  CD1       13.5490  220.9430   37.4960 C.3   368  ILE368      0.0001
@<TRIPOS>BOND
     1     4     3    2
     2    19    17    1
     3    61    60    1
     4     3     2    1
     5     5     2    1
     6     5     6    1
     7     8     6   ar
     8     8    10   ar
     9    29    28    2
    10    32    31    1
    11     1     2    1
    12    28    27    1
    13     6     7   ar
    14    30    31    1
    15    30    27    1
    16    13    14    1
    17    10    11   ar
    18    60    62    1
    19    60    59    1
    20    15    14    1
    21    15    16    2
    22    17    14    1
    23    17    18    1
    24    31    33    1
    25    27    26    1
    26     7     9   ar
    27    11     9   ar
    28    11    12    1
    29    59    56    1
    30    26    22   am
    31    20    21    1
    32    22    23    2
    33    22    21    1
    34    56    55    1
    35    56    57    1
    36    55    49   am
    37    21    24    1
    38    51    48    1
    39    51    52    1
    40    45    44    2
    41    48    49    1
    42    48    47    1
    43    57    58    2
    44    49    50    2
    45    79    77    1
    46    24    25    1
    47   187   185    1
    48   125   127    1
    49   125   124    1
    50    54    52   ar
    51   185   184    1
    52   126   124    1
    53    52    53   ar
    54    44    47   am
    55    44    43    1
    56   123   122    2
    57   186   184    1
    58   124   121    1
    59    46    43    1
    60    77    76    1
    61    77    78    1
    62   184   181    1
    63    76    73    1
    64    43    42    1
    65   181   180    1
    66   181   182    1
    67   122   121    1
    68   121   120    1
    69    63    64    1
    70   120   117   am
    71    73    72    1
    72    73    74    1
    73    72    65   am
    74   182   183    2
    75    74    75    2
    76   113   112    2
    77   117   116    1
    78   117   118    2
    79    64    65    1
    80    64    67    1
    81    70    71    1
    82    70    69    1
    83    65    66    2
    84    67    68    1
    85   116   115    1
    86   116   119    1
    87   179   176    1
    88   178   177    2
    89   114   111    1
    90   112   115   am
    91   112   111    1
    92    93    92    1
    93    93    94    1
    94    95    94    1
    95   177   176    1
    96    68    69    1
    97    92    89    1
    98    36    37    2
    99    36    35    1
   100   111   110    1
   101   176   175    1
   102    34    35    1
   103    41    39    1
   104   110   105   am
   105    35    38    1
   106    38    39    1
   107   175   170   am
   108    89    90    1
   109    89    88    1
   110    90    91    2
   111    88    82   am
   112    39    40    1
   113   108   107    1
   114    80    81    1
   115   105   104    1
   116   105   106    2
   117    99    98    2
   118   170   169    1
   119   170   171    2
   120   104   107    1
   121   104   103    1
   122   101   100    1
   123   174   172    1
   124   162   161    2
   125    87    85   am
   126    82    81    1
   127    82    83    2
   128   169   172    1
   129   169   168    1
   130    84    81    1
   131    84    85    1
   132   107   109    1
   133    98   103   am
   134    98    97    1
   135   172   173    1
   136   161   168   am
   137   161   160    1
   138    85    86    2
   139   100    97    1
   140   100   102    1
   141   164   163    1
   142   164   165    1
   143    97    96    1
   144   163   160    1
   145   160   159    1
   146   167   166    1
   147   159   154   am
   148   166   165    1
   149   157   156    1
   150   147   146    2
   151   154   153    1
   152   154   155    2
   153   153   156    1
   154   153   152    1
   155   156   158    1
   156   146   152   am
   157   146   145    1
   158   135   133    1
   159   145   148    1
   160   145   144    1
   161   148   149    1
   162   151   149   am
   163   149   150    2
   164   134   132    1
   165   139   138    2
   166   133   132    1
   167   144   138   am
   168   132   129    1
   169   138   137    1
   170   129   130    1
   171   129   128    1
   172   131   130    2
   173   137   140    1
   174   137   136    1
   175   140   141    1
   176   141   142    2
   177   141   143   am
