@<TRIPOS>MOLECULE
tmp/5yl3A00.pdb
 194 187 0 0 0
SMALL
GASTEIGER

@<TRIPOS>ATOM
      1  N          4.9820   -8.4150   10.3280 N.3    32  LEU32      -0.1245
      2  CA         4.3680   -7.7670   11.4880 C.3    32  LEU32       0.1561
      3  C          2.9290   -7.3160   11.2670 C.2    32  LEU32       0.2260
      4  O          2.0200   -7.6260   12.0680 O.2    32  LEU32      -0.2867
      5  CB         5.2430   -6.5960   11.8860 C.3    32  LEU32       0.0270
      6  CG         4.8300   -5.7590   13.0890 C.3    32  LEU32       0.0019
      7  CD1        4.8860   -6.5880   14.3810 C.3    32  LEU32       0.0001
      8  CD2        5.7080   -4.5490   13.1720 C.3    32  LEU32       0.0001
      9  N         -0.8990   -3.4760   14.8020 N.3    39  THR39      -0.1218
     10  CA         0.3190   -2.7220   14.7000 C.3    39  THR39       0.1862
     11  C          0.2390   -1.6790   13.6050 C.2    39  THR39       0.2287
     12  O          0.7470   -0.5490   13.7540 O.2    39  THR39      -0.2866
     13  CB         1.5340   -3.6660   14.5370 C.3    39  THR39       0.1770
     14  OG1        1.4340   -4.3590   13.2950 O.3    39  THR39      -0.2211
     15  CG2        1.6160   -4.6400   15.7740 C.3    39  THR39       0.0375
     16  N         -1.0770    1.9630   14.3310 N.3    42  LYS42      -0.1231
     17  CA        -0.1560    2.9630   14.9120 C.3    42  LYS42       0.1693
     18  C          0.7050    3.7710   13.9360 C.2    42  LYS42       0.2592
     19  O          1.5270    4.6050   14.3530 O.2    42  LYS42      -0.2718
     20  CB         0.8040    2.2610   15.8960 C.3    42  LYS42       0.0285
     21  CG         0.1120    1.5670   17.0360 C.3    42  LYS42       0.0035
     22  CD        -0.4190    2.5270   18.0830 C.3    42  LYS42       0.0206
     23  CE        -1.1820    1.7730   19.1500 C.3    42  LYS42       0.1093
     24  NZ        -1.4140    2.6410   20.3410 N.3    42  LYS42      -0.1314
     25  N          0.6050    3.4860   12.6500 N.am   43  PHE43      -0.1962
     26  CA         1.3080    4.2330   11.6480 C.3    43  PHE43       0.1771
     27  C          0.2730    4.9360   10.8150 C.2    43  PHE43       0.2620
     28  O         -0.3930    4.2930   10.0190 O.2    43  PHE43      -0.2715
     29  CB         2.0510    3.2960   10.7120 C.3    43  PHE43       0.0574
     30  CG         3.2050    2.5870   11.3210 C.ar   43  PHE43      -0.0200
     31  CD1        3.0140    1.3960   11.9890 C.ar   43  PHE43      -0.0042
     32  CD2        4.4820    3.0620   11.1380 C.ar   43  PHE43      -0.0042
     33  CE1        4.0800    0.7120   12.5250 C.ar   43  PHE43      -0.0003
     34  CE2        5.5610    2.3810   11.6460 C.ar   43  PHE43      -0.0003
     35  CZ         5.3650    1.2070   12.3540 C.ar   43  PHE43      -0.0000
     36  N          0.1700    6.2550   10.9450 N.am   44  ASP44      -0.1957
     37  CA        -0.6470    7.0450   10.0170 C.3    44  ASP44       0.1840
     38  C         -0.2400    6.8260    8.5800 C.2    44  ASP44       0.2621
     39  O         -1.0750    6.7160    7.7130 O.2    44  ASP44      -0.2715
     40  CB        -0.5330    8.5370   10.3280 C.3    44  ASP44       0.1450
     41  CG        -1.2220    8.9130   11.6250 C.2    44  ASP44       0.3671
     42  OD1       -2.0650    8.1180   12.1220 O.co2  44  ASP44      -0.2456
     43  OD2       -0.9260   10.0270   12.1300 O.co2  44  ASP44      -0.2456
     44  N          1.0470    6.7250    8.3200 N.am   45  LYS45      -0.1977
     45  CA         1.4720    6.5130    6.9450 C.3    45  LYS45       0.1596
     46  C          1.2870    5.0770    6.3920 C.2    45  LYS45       0.2287
     47  O          1.6650    4.8120    5.2390 O.2    45  LYS45      -0.2864
     48  CB         2.9030    6.9750    6.7720 C.3    45  LYS45       0.0298
     49  CG         3.9530    6.1350    7.4720 C.3    45  LYS45       0.0038
     50  CD         5.1790    7.0090    7.6870 C.3    45  LYS45       0.0206
     51  CE         6.4040    6.1850    8.0420 C.3    45  LYS45       0.1093
     52  NZ         7.6030    6.8470    7.4720 N.3    45  LYS45      -0.1314
     53  N         10.6690    2.7960    5.1540 N.3    64  HIS64      -0.1241
     54  CA        10.5870    2.6920    6.6000 C.3    64  HIS64       0.1621
     55  C         11.2380    1.4250    7.1290 C.2    64  HIS64       0.2264
     56  O         11.9170    1.4510    8.1900 O.2    64  HIS64      -0.2867
     57  CB         9.1630    2.8300    7.1040 C.3    64  HIS64       0.0745
     58  CG         9.0970    2.9040    8.5850 C.ar   64  HIS64       0.0817
     59  ND1        9.6000    3.9790    9.3040 N.ar   64  HIS64      -0.2268
     60  CD2        8.6700    1.9950    9.4920 C.ar   64  HIS64       0.1154
     61  CE1        9.4540    3.7220   10.5970 C.ar   64  HIS64       0.1986
     62  NE2        8.8860    2.5360   10.7340 N.ar   64  HIS64      -0.2212
     63  N         14.7370    2.2660    7.5460 N.3    67  VAL67      -0.1231
     64  CA        14.9560    3.1190    8.7380 C.3    67  VAL67       0.1692
     65  C         14.9630    2.2670   10.0310 C.2    67  VAL67       0.2591
     66  O         15.8700    2.3940   10.8870 O.2    67  VAL67      -0.2718
     67  CB        13.8850    4.2240    8.7960 C.3    67  VAL67       0.0266
     68  CG1       13.8580    4.9890   10.1390 C.3    67  VAL67       0.0020
     69  CG2       14.0920    5.2020    7.6470 C.3    67  VAL67       0.0020
     70  N         13.9800    1.3790   10.1270 N.am   68  VAL68      -0.1980
     71  CA        13.8330    0.5660   11.3580 C.3    68  VAL68       0.1595
     72  C         15.0280   -0.3710   11.5130 C.2    68  VAL68       0.2287
     73  O         15.7090   -0.4380   12.5720 O.2    68  VAL68      -0.2864
     74  CB        12.5210   -0.2530   11.2860 C.3    68  VAL68       0.0276
     75  CG1       12.4970   -1.3550   12.3330 C.3    68  VAL68       0.0022
     76  CG2       11.3210    0.6580   11.4320 C.3    68  VAL68       0.0022
     77  N         18.2950    1.4530   12.3580 N.3    71  ALA71      -0.1231
     78  CA        18.3060    1.7920   13.7850 C.3    71  ALA71       0.1694
     79  C         18.6650    0.5590   14.6540 C.2    71  ALA71       0.2591
     80  O         19.5430    0.6220   15.5310 O.2    71  ALA71      -0.2718
     81  CB        16.9750    2.3700   14.2450 C.3    71  ALA71       0.0304
     82  N         17.9880   -0.5590   14.3850 N.am   72  LEU72      -0.1980
     83  CA        18.2950   -1.7580   15.1660 C.3    72  LEU72       0.1596
     84  C         19.7310   -2.2180   14.9270 C.2    72  LEU72       0.2287
     85  O         20.4120   -2.6220   15.9170 O.2    72  LEU72      -0.2864
     86  CB        17.3080   -2.8520   14.7690 C.3    72  LEU72       0.0297
     87  CG        17.4230   -4.1720   15.5750 C.3    72  LEU72       0.0022
     88  CD1       17.3020   -3.9640   17.0620 C.3    72  LEU72       0.0001
     89  CD2       16.4030   -5.1650   15.0830 C.3    72  LEU72       0.0001
     90  N         22.0680   -0.2470   17.0730 N.3    75  ILE75      -0.1245
     91  CA        21.9580   -0.7450   18.4210 C.3    75  ILE75       0.1561
     92  C         22.7290   -2.0520   18.6280 C.2    75  ILE75       0.2260
     93  O         23.5070   -2.1820   19.5760 O.2    75  ILE75      -0.2867
     94  CB        20.4740   -0.8770   18.8540 C.3    75  ILE75       0.0252
     95  CG1       19.8700    0.5310   19.0430 C.3    75  ILE75       0.0019
     96  CG2       20.3000   -1.7530   20.0710 C.3    75  ILE75       0.0019
     97  CD1       18.3780    0.5260   18.8620 C.3    75  ILE75       0.0001
     98  N         16.2440    7.5480   23.2120 N.3    88  PRO88      -0.2102
     99  CA        15.3120    8.3620   22.4450 C.3    88  PRO88       0.1504
    100  C         14.2280    7.5390   21.7970 C.2    88  PRO88       0.2575
    101  O         13.1300    7.9960   21.6460 O.2    88  PRO88      -0.2718
    102  CB        16.1950    9.0190   21.3600 C.3    88  PRO88       0.0282
    103  CG        17.3510    8.0950   21.2540 C.3    88  PRO88       0.0208
    104  CD        17.5940    7.5790   22.6120 C.3    88  PRO88       0.0893
    105  N         14.5450    6.3050   21.4560 N.am   89  LEU89      -0.1980
    106  CA        13.5380    5.4330   20.8000 C.3    89  LEU89       0.1596
    107  C         12.5000    5.0160   21.8110 C.2    89  LEU89       0.2287
    108  O         11.2810    5.0360   21.5810 O.2    89  LEU89      -0.2864
    109  CB        14.2230    4.2170   20.1550 C.3    89  LEU89       0.0297
    110  CG        14.9320    4.4810   18.8260 C.3    89  LEU89       0.0022
    111  CD1       15.6800    3.2350   18.3720 C.3    89  LEU89       0.0001
    112  CD2       14.0270    4.9390   17.7020 C.3    89  LEU89       0.0001
    113  N         10.3130    8.1350   22.3240 N.3    92  SER92      -0.1202
    114  CA         9.3520    8.4940   21.2590 C.3    92  SER92       0.2020
    115  C          8.2990    7.4030   21.1000 C.2    92  SER92       0.2618
    116  O          7.1310    7.7050   20.8490 O.2    92  SER92      -0.2717
    117  CB        10.0240    8.7100   19.9260 C.3    92  SER92       0.2103
    118  OG        10.6470    7.5430   19.4340 O.3    92  SER92      -0.2182
    119  N          8.6810    6.1470   21.3330 N.am   93  HIS93      -0.1975
    120  CA         7.7250    5.0830   21.1120 C.3    93  HIS93       0.1656
    121  C          6.7020    4.9500   22.2280 C.2    93  HIS93       0.2291
    122  O          5.5220    4.6420   21.9670 O.2    93  HIS93      -0.2864
    123  CB         8.4690    3.7820   20.8290 C.3    93  HIS93       0.0771
    124  CG         9.0540    3.7530   19.4400 C.ar   93  HIS93       0.0820
    125  ND1        9.9080    4.7330   18.9400 N.ar   93  HIS93      -0.2267
    126  CD2        8.8240    2.9150   18.4140 C.ar   93  HIS93       0.1154
    127  CE1       10.1990    4.4620   17.6900 C.ar   93  HIS93       0.1986
    128  NE2        9.5620    3.3700   17.3520 N.ar   93  HIS93      -0.2212
    129  N          5.0760    9.2960   22.1810 N.3    96  LYS96      -0.1231
    130  CA         4.4920    9.8850   20.9690 C.3    96  LYS96       0.1693
    131  C          3.7140    8.8340   20.2310 C.2    96  LYS96       0.2592
    132  O          2.5430    8.9890   19.9760 O.2    96  LYS96      -0.2718
    133  CB         5.5660   10.4660   20.0610 C.3    96  LYS96       0.0285
    134  CG         5.0110   11.0320   18.7850 C.3    96  LYS96       0.0035
    135  CD         6.1000   11.6970   17.9670 C.3    96  LYS96       0.0206
    136  CE         5.4860   12.4940   16.8420 C.3    96  LYS96       0.1093
    137  NZ         4.4840   11.7250   16.0720 N.3    96  LYS96      -0.1314
    138  N          4.3650    7.7140   19.9200 N.am   97  HIS97      -0.1976
    139  CA         3.7320    6.7020   19.0510 C.3    97  HIS97       0.1656
    140  C          2.7990    5.7750   19.8220 C.2    97  HIS97       0.2291
    141  O          1.9410    5.1180   19.2000 O.2    97  HIS97      -0.2864
    142  CB         4.7380    5.9000   18.2490 C.3    97  HIS97       0.0771
    143  CG         5.7560    6.7250   17.5370 C.ar   97  HIS97       0.0820
    144  ND1        5.4190    7.8200   16.7580 N.ar   97  HIS97      -0.2267
    145  CD2        7.1130    6.6310   17.4880 C.ar   97  HIS97       0.1154
    146  CE1        6.5190    8.3440   16.2520 C.ar   97  HIS97       0.1986
    147  NE2        7.5620    7.6730   16.7210 N.ar   97  HIS97      -0.2212
    148  N          3.3070    2.8800   21.5040 N.3    99  ILE99      -0.1245
    149  CA         3.5220    1.4670   21.0760 C.3    99  ILE99       0.1561
    150  C          3.6500    0.5870   22.3040 C.2    99  ILE99       0.2260
    151  O          4.6020    0.7110   23.0930 O.2    99  ILE99      -0.2867
    152  CB         4.8230    1.3780   20.2560 C.3    99  ILE99       0.0252
    153  CG1        4.7850    2.2860   19.0490 C.3    99  ILE99       0.0019
    154  CG2        5.0800   -0.0400   19.8340 C.3    99  ILE99       0.0019
    155  CD1        3.5440    2.1990   18.2160 C.3    99  ILE99       0.0001
    156  N          4.4020   -5.0780   21.1080 N.3   103  TYR103     -0.1227
    157  CA         4.7300   -4.9610   19.7050 C.3   103  TYR103      0.1736
    158  C          6.1870   -5.1760   19.4260 C.2   103  TYR103      0.2595
    159  O          6.5220   -5.5990   18.3010 O.2   103  TYR103     -0.2718
    160  CB         4.3250   -3.6080   19.1350 C.3   103  TYR103      0.0548
    161  CG         2.8160   -3.2860   19.0580 C.ar  103  TYR103     -0.0200
    162  CD1        1.8300   -4.0240   19.7250 C.ar  103  TYR103     -0.0009
    163  CD2        2.3720   -2.1750   18.3320 C.ar  103  TYR103     -0.0009
    164  CE1        0.4730   -3.6510   19.6670 C.ar  103  TYR103      0.0417
    165  CE2        1.0300   -1.8370   18.2560 C.ar  103  TYR103      0.0417
    166  CZ         0.0870   -2.5410   18.9420 C.ar  103  TYR103      0.1957
    167  OH        -1.2590   -2.1210   18.8330 O.3   103  TYR103     -0.2866
    168  N          7.0670   -4.8750   20.3940 N.am  104  LEU104     -0.1980
    169  CA         8.4930   -5.1920   20.1930 C.3   104  LEU104      0.1596
    170  C          8.7070   -6.7090   20.2240 C.2   104  LEU104      0.2287
    171  O          9.5480   -7.1820   19.5120 O.2   104  LEU104     -0.2864
    172  CB         9.3670   -4.5130   21.2480 C.3   104  LEU104      0.0297
    173  CG         9.7550   -3.0730   21.0030 C.3   104  LEU104      0.0022
    174  CD1        8.5020   -2.2280   20.9970 C.3   104  LEU104      0.0001
    175  CD2       10.7480   -2.5860   22.0500 C.3   104  LEU104      0.0001
    176  N          7.7080   -7.8470   16.6700 N.3   107  ILE107     -0.1245
    177  CA         8.7090   -7.5810   15.6360 C.3   107  ILE107      0.1561
    178  C          9.9160   -8.4850   15.8120 C.2   107  ILE107      0.2260
    179  O         10.5490   -8.8400   14.8360 O.2   107  ILE107     -0.2867
    180  CB         9.1010   -6.0990   15.5060 C.3   107  ILE107      0.0252
    181  CG1        9.6410   -5.8550   14.0730 C.3   107  ILE107      0.0019
    182  CG2       10.1020   -5.7260   16.5690 C.3   107  ILE107      0.0019
    183  CD1        9.8320   -4.4180   13.7230 C.3   107  ILE107      0.0001
    184  N         17.4790   -6.0740   24.0070 N.3   138  PHE138     -0.1241
    185  CA        16.9250   -4.8310   23.4770 C.3   138  PHE138      0.1605
    186  C         15.5440   -4.5940   24.1300 C.2   138  PHE138      0.2264
    187  O         15.2960   -3.4760   24.6270 O.2   138  PHE138     -0.2867
    188  CB        16.8150   -4.9620   21.9550 C.3   138  PHE138      0.0534
    189  CG        15.9030   -3.9690   21.2930 C.ar  138  PHE138     -0.0203
    190  CD1       16.2360   -2.6410   21.1990 C.ar  138  PHE138     -0.0042
    191  CD2       14.7000   -4.4010   20.7420 C.ar  138  PHE138     -0.0042
    192  CE1       15.3890   -1.7520   20.5830 C.ar  138  PHE138     -0.0003
    193  CE2       13.8580   -3.5270   20.1290 C.ar  138  PHE138     -0.0003
    194  CZ        14.1890   -2.2030   20.0580 C.ar  138  PHE138     -0.0000
@<TRIPOS>BOND
     1    53    54    1
     2    47    46    2
     3    46    45    1
     4    54    57    1
     5    54    55    1
     6    48    45    1
     7    48    49    1
     8    45    44    1
     9    57    58    1
    10    55    56    2
    11    49    50    1
    12    52    51    1
    13    63    64    1
    14    69    67    1
    15    50    51    1
    16    39    38    2
    17    44    38   am
    18    38    37    1
    19    58    59   ar
    20    58    60   ar
    21    64    67    1
    22    64    65    1
    23    67    68    1
    24    59    61   ar
    25    60    62   ar
    26    37    40    1
    27    37    36    1
    28    28    27    2
    29    65    70   am
    30    65    66    2
    31    70    71    1
    32    40    41    1
    33     1     2    1
    34    61    62   ar
    35    29    30    1
    36    29    26    1
    37    27    36   am
    38    27    26    1
    39    32    30   ar
    40    32    34   ar
    41     3     2    1
    42     3     4    2
    43    74    71    1
    44    74    76    1
    45    74    75    1
    46    30    31   ar
    47    71    72    1
    48     2     5    1
    49    72    73    2
    50    41    42   ar
    51    41    43   ar
    52    34    35   ar
    53    26    25    1
    54     5     6    1
    55    31    33   ar
    56    35    33   ar
    57    77    78    1
    58    25    18   am
    59     6     8    1
    60     6     7    1
    61    14    13    1
    62    11    12    2
    63    11    10    1
    64   183   181    1
    65    78    81    1
    66    78    79    1
    67    18    19    2
    68    18    17    1
    69   181   180    1
    70    16    17    1
    71    82    79   am
    72    82    83    1
    73    13    10    1
    74    13    15    1
    75    79    80    2
    76    10     9    1
    77    86    83    1
    78    86    87    1
    79   179   178    2
    80    17    20    1
    81    84    83    1
    82    84    85    2
    83    89    87    1
    84   180   177    1
    85   180   182    1
    86    87    88    1
    87   177   178    1
    88   177   176    1
    89    20    21    1
    90   137   136    1
    91   146   147   ar
    92   146   144   ar
    93   147   145   ar
    94   144   143   ar
    95   136   135    1
    96    21    22    1
    97    90    91    1
    98   128   127   ar
    99   128   126   ar
   100   145   143   ar
   101   143   142    1
   102   127   125   ar
   103   112   110    1
   104   135   134    1
   105    22    23    1
   106   155   153    1
   107   142   139    1
   108   165   163   ar
   109   165   166   ar
   110   159   158    2
   111   163   161   ar
   112   111   110    1
   113   126   124   ar
   114    91    92    1
   115    91    94    1
   116    92    93    2
   117   134   133    1
   118   110   109    1
   119   167   166    1
   120    94    95    1
   121    94    96    1
   122    97    95    1
   123   125   124   ar
   124   166   164   ar
   125   153   152    1
   126   139   140    1
   127   139   138    1
   128   161   160    1
   129   161   162   ar
   130   160   157    1
   131    23    24    1
   132   141   140    2
   133   158   157    1
   134   158   168   am
   135   118   117    1
   136   124   123    1
   137   171   170    2
   138   164   162   ar
   139   157   156    1
   140   154   152    1
   141   138   131   am
   142   117   114    1
   143   132   131    2
   144   194   193   ar
   145   194   192   ar
   146   133   130    1
   147   193   191   ar
   148   109   106    1
   149   169   170    1
   150   169   168    1
   151   169   172    1
   152   131   130    1
   153   152   149    1
   154   192   190   ar
   155   191   189   ar
   156   106   105    1
   157   106   107    1
   158   123   120    1
   159   116   115    2
   160   130   129    1
   161   174   173    1
   162   173   172    1
   163   173   175    1
   164   149   148    1
   165   149   150    1
   166   115   114    1
   167   115   119   am
   168   120   119    1
   169   120   121    1
   170   190   189   ar
   171   103   102    1
   172   103   104    1
   173   114   113    1
   174   189   188    1
   175   102    99    1
   176   105   100   am
   177   108   107    2
   178   101   100    2
   179   100    99    1
   180   188   185    1
   181   122   121    2
   182   150   151    2
   183    99    98    1
   184   104    98    1
   185   185   184    1
   186   185   186    1
   187   186   187    2
