@<TRIPOS>MOLECULE
tmp/5yl4B01.pdb
 108 106 0 0 0
SMALL
GASTEIGER

@<TRIPOS>ATOM
      1  N        -33.2930  -58.5680   27.4720 N.3   156  ARG156     -0.1245
      2  CA       -33.8910  -58.5000   28.7900 C.3   156  ARG156      0.1563
      3  C        -35.4280  -58.5800   28.7670 C.2   156  ARG156      0.2260
      4  O        -36.0180  -59.0900   29.7090 O.2   156  ARG156     -0.2867
      5  CB       -33.4440  -57.2390   29.5180 C.3   156  ARG156      0.0307
      6  CG       -33.5570  -57.3890   31.0170 C.3   156  ARG156      0.0489
      7  CD       -33.3140  -56.0890   31.7530 C.3   156  ARG156      0.2205
      8  NE       -33.6740  -56.2210   33.1640 N.pl3 156  ARG156     -0.0865
      9  CZ       -33.5660  -55.2560   34.0740 C.cat 156  ARG156      0.5346
     10  NH1      -33.0960  -54.0550   33.7390 N.pl3 156  ARG156      0.1354
     11  NH2      -33.9330  -55.4980   35.3350 N.pl3 156  ARG156      0.1354
     12  N        -36.0430  -62.4310   27.7780 N.3   159  TYR159     -0.1228
     13  CA       -35.3910  -63.3270   28.7490 C.3   159  TYR159      0.1721
     14  C        -35.0710  -62.5560   30.0430 C.2   159  TYR159      0.2437
     15  O        -33.9120  -62.4140   30.4140 O.2   159  TYR159     -0.2733
     16  CB       -34.0920  -63.8980   28.1650 C.3   159  TYR159      0.0547
     17  CG       -34.1890  -64.4940   26.7730 C.ar  159  TYR159     -0.0200
     18  CD1      -33.9830  -63.7080   25.6440 C.ar  159  TYR159     -0.0009
     19  CD2      -34.4420  -65.8460   26.5850 C.ar  159  TYR159     -0.0009
     20  CE1      -34.0510  -64.2450   24.3680 C.ar  159  TYR159      0.0417
     21  CE2      -34.5120  -66.3920   25.3110 C.ar  159  TYR159      0.0417
     22  CZ       -34.3150  -65.5850   24.2080 C.ar  159  TYR159      0.1957
     23  OH       -34.3840  -66.1050   22.9450 O.3   159  TYR159     -0.2866
     24  N        -36.1030  -62.0640   30.7510 N.am  160  PRO160     -0.2718
     25  CA       -35.8870  -61.2100   31.9390 C.3   160  PRO160      0.1535
     26  C        -35.2710  -61.8610   33.1810 C.2   160  PRO160      0.2599
     27  O        -34.8800  -61.1370   34.1080 O.2   160  PRO160     -0.2715
     28  CB       -37.2990  -60.7050   32.2600 C.3   160  PRO160      0.0310
     29  CG       -38.2060  -61.7450   31.7130 C.3   160  PRO160      0.0237
     30  CD       -37.5380  -62.2860   30.4880 C.3   160  PRO160      0.0939
     31  N        -35.2120  -63.1960   33.1930 N.am  161  ASP161     -0.1958
     32  CA       -34.6710  -63.9930   34.3050 C.3   161  ASP161      0.1840
     33  C        -33.2380  -64.5260   34.0650 C.2   161  ASP161      0.2622
     34  O        -32.5990  -65.0210   35.0030 O.2   161  ASP161     -0.2715
     35  CB       -35.6290  -65.1490   34.6560 C.3   161  ASP161      0.1450
     36  CG       -35.9650  -66.0620   33.4490 C.2   161  ASP161      0.3671
     37  OD1      -35.9760  -65.5870   32.2790 O.co2 161  ASP161     -0.2456
     38  OD2      -36.2390  -67.2660   33.6850 O.co2 161  ASP161     -0.2456
     39  N        -32.7300  -64.4090   32.8350 N.am  162  ARG162     -0.1963
     40  CA       -31.3610  -64.8310   32.5000 C.3   162  ARG162      0.1729
     41  C        -30.3150  -63.7460   32.8390 C.2   162  ARG162      0.2616
     42  O        -30.5970  -62.5490   32.7990 O.2   162  ARG162     -0.2715
     43  CB       -31.2500  -65.1730   31.0090 C.3   162  ARG162      0.0348
     44  CG       -32.2240  -66.2150   30.4650 C.3   162  ARG162      0.0492
     45  CD       -32.0580  -67.5850   31.1030 C.3   162  ARG162      0.2205
     46  NE       -32.8620  -67.7220   32.3200 N.pl3 162  ARG162     -0.0865
     47  CZ       -32.7630  -68.7130   33.2140 C.cat 162  ARG162      0.5346
     48  NH1      -31.8780  -69.6970   33.0670 N.pl3 162  ARG162      0.1354
     49  NH2      -33.5620  -68.7140   34.2830 N.pl3 162  ARG162      0.1354
     50  N        -29.0960  -64.1840   33.1350 N.am  163  ILE163     -0.1963
     51  CA       -27.9800  -63.2840   33.4660 C.3   163  ILE163      0.1727
     52  C        -27.3940  -62.6620   32.1910 C.2   163  ILE163      0.2616
     53  O        -27.1330  -63.3650   31.2180 O.2   163  ILE163     -0.2715
     54  CB       -26.8600  -64.0370   34.2510 C.3   163  ILE163      0.0290
     55  CG1      -27.3710  -64.5290   35.6130 C.3   163  ILE163      0.0022
     56  CG2      -25.6140  -63.1780   34.4350 C.3   163  ILE163      0.0023
     57  CD1      -27.6560  -63.4490   36.6350 C.3   163  ILE163      0.0001
     58  N        -27.1830  -61.3460   32.2210 N.am  164  MET164     -0.1977
     59  CA       -26.5600  -60.5980   31.1250 C.3   164  MET164      0.1605
     60  C        -25.2380  -59.9850   31.6170 C.2   164  MET164      0.2287
     61  O        -25.2500  -59.0690   32.4510 O.2   164  MET164     -0.2864
     62  CB       -27.5140  -59.4890   30.6450 C.3   164  MET164      0.0413
     63  CG       -26.9630  -58.5390   29.5820 C.3   164  MET164      0.0598
     64  SD       -26.6390  -59.3140   27.9830 S.3   164  MET164     -0.1393
     65  CE       -28.3420  -59.4880   27.4600 C.3   164  MET164      0.0692
     66  N        -28.7510  -50.0630   34.0550 N.3   194  GLU194     -0.1231
     67  CA       -30.1080  -50.6220   34.1410 C.3   194  GLU194      0.1699
     68  C        -30.1810  -52.1110   33.7980 C.2   194  GLU194      0.2592
     69  O        -30.8440  -52.8630   34.4980 O.2   194  GLU194     -0.2718
     70  CB       -31.0830  -49.8620   33.2140 C.3   194  GLU194      0.0402
     71  CG       -31.6140  -48.5300   33.7520 C.3   194  GLU194      0.1161
     72  CD       -32.9040  -48.0620   33.0630 C.2   194  GLU194      0.3649
     73  OE1      -33.2590  -48.5550   31.9560 O.co2 194  GLU194     -0.2457
     74  OE2      -33.5800  -47.1800   33.6380 O.co2 194  GLU194     -0.2457
     75  N        -29.5050  -52.5250   32.7250 N.am  195  ASN195     -0.1960
     76  CA       -29.8000  -53.8120   32.0390 C.3   195  ASN195      0.1819
     77  C        -28.7350  -54.9300   32.0590 C.2   195  ASN195      0.2622
     78  O        -28.9420  -55.9550   31.4150 O.2   195  ASN195     -0.2715
     79  CB       -30.1920  -53.5330   30.5620 C.3   195  ASN195      0.1195
     80  CG       -31.4610  -52.7100   30.4260 C.2   195  ASN195      0.2630
     81  OD1      -32.3290  -52.7290   31.2960 O.2   195  ASN195     -0.2716
     82  ND2      -31.5790  -51.9840   29.3160 N.am  195  ASN195     -0.0877
     83  N        -27.6090  -54.7500   32.7560 N.am  196  THR196     -0.1937
     84  CA       -26.6200  -55.8470   32.8950 C.3   196  THR196      0.2028
     85  C        -26.3820  -56.2060   34.3560 C.2   196  THR196      0.2642
     86  O        -26.5420  -55.3700   35.2440 O.2   196  THR196     -0.2714
     87  CB       -25.2510  -55.5440   32.2450 C.3   196  THR196      0.1808
     88  OG1      -24.5050  -54.6530   33.0770 O.3   196  THR196     -0.2208
     89  CG2      -25.4210  -54.9490   30.8720 C.3   196  THR196      0.0379
     90  N        -25.9910  -57.4570   34.5710 N.am  197  ASP197     -0.1971
     91  CA       -25.6410  -57.9680   35.8920 C.3   197  ASP197      0.1709
     92  C        -24.1780  -57.7640   36.2080 C.2   197  ASP197      0.2293
     93  O        -23.8400  -57.5430   37.3680 O.2   197  ASP197     -0.2864
     94  CB       -25.9430  -59.4610   35.9780 C.3   197  ASP197      0.1436
     95  CG       -27.4060  -59.7490   35.8870 C.2   197  ASP197      0.3671
     96  OD1      -28.1520  -59.2770   36.7740 O.co2 197  ASP197     -0.2456
     97  OD2      -27.8000  -60.4340   34.9260 O.co2 197  ASP197     -0.2456
     98  N        -25.2450  -66.7960   37.7410 N.3   251  ARG251     -0.1245
     99  CA       -26.0910  -66.2020   38.7970 C.3   251  ARG251      0.1563
    100  C        -25.4150  -66.2740   40.1600 C.2   251  ARG251      0.2260
    101  O        -25.3980  -65.2980   40.9010 O.2   251  ARG251     -0.2867
    102  CB       -27.4760  -66.8610   38.8700 C.3   251  ARG251      0.0307
    103  CG       -28.5120  -66.0410   39.6550 C.3   251  ARG251      0.0489
    104  CD       -29.9200  -66.6410   39.7200 C.3   251  ARG251      0.2205
    105  NE       -30.2090  -67.5130   38.5840 N.pl3 251  ARG251     -0.0865
    106  CZ       -30.6390  -67.1220   37.3860 C.cat 251  ARG251      0.5346
    107  NH1      -30.8950  -65.8420   37.1160 N.pl3 251  ARG251      0.1354
    108  NH2      -30.8280  -68.0400   36.4360 N.pl3 251  ARG251      0.1354
@<TRIPOS>BOND
     1    23    22    1
     2    22    20   ar
     3    22    21   ar
     4    20    18   ar
     5    21    19   ar
     6    18    17   ar
     7    19    17   ar
     8    17    16    1
     9    65    64    1
    10     1     2    1
    11    12    13    1
    12    64    63    1
    13    16    13    1
    14    13    14    1
    15     3     2    1
    16     3     4    2
    17     2     5    1
    18    82    80   am
    19     5     6    1
    20    63    62    1
    21    14    15    2
    22    14    24   am
    23    80    79    1
    24    80    81    2
    25    44    43    1
    26    44    45    1
    27    30    24    1
    28    30    29    1
    29    79    76    1
    30    62    59    1
    31    24    25    1
    32    89    87    1
    33    43    40    1
    34     6     7    1
    35    45    46    1
    36    59    60    1
    37    59    58    1
    38    53    52    2
    39    78    77    2
    40    60    61    2
    41    29    28    1
    42     7     8    1
    43    25    28    1
    44    25    26    1
    45    73    72   ar
    46    76    77    1
    47    76    75    1
    48    77    83   am
    49    52    58   am
    50    52    51    1
    51    87    84    1
    52    87    88    1
    53    37    36   ar
    54    46    47    2
    55    40    39    1
    56    40    41    1
    57    75    68   am
    58    83    84    1
    59    42    41    2
    60    39    33   am
    61    41    50   am
    62    84    85    1
    63    72    74   ar
    64    72    71    1
    65    48    47    1
    66    50    51    1
    67     8     9    2
    68    26    31   am
    69    26    27    2
    70    31    32    1
    71    70    71    1
    72    70    67    1
    73    47    49    1
    74    36    38   ar
    75    36    35    1
    76    51    54    1
    77    10     9    1
    78    68    67    1
    79    68    69    2
    80    66    67    1
    81    33    32    1
    82    33    34    2
    83     9    11    1
    84    54    56    1
    85    54    55    1
    86    32    35    1
    87    85    90   am
    88    85    86    2
    89    90    91    1
    90    97    95   ar
    91    55    57    1
    92    95    94    1
    93    95    96   ar
    94    91    94    1
    95    91    92    1
    96    92    93    2
    97   108   106    1
    98   107   106    1
    99   106   105    2
   100    98    99    1
   101   105   104    1
   102    99   102    1
   103    99   100    1
   104   102   103    1
   105   103   104    1
   106   100   101    2
