@<TRIPOS>MOLECULE
tmp/5yl4B02.pdb
 101 100 0 0 0
SMALL
GASTEIGER

@<TRIPOS>ATOM
      1  N         -2.9010  -57.4580   42.0390 N.3   290  PHE290     -0.1227
      2  CA        -3.3810  -56.3550   42.8930 C.3   290  PHE290      0.1736
      3  C         -2.6950  -55.0140   42.6310 C.2   290  PHE290      0.2595
      4  O         -3.0700  -54.0160   43.2400 O.2   290  PHE290     -0.2718
      5  CB        -3.2230  -56.7020   44.3840 C.3   290  PHE290      0.0547
      6  CG        -4.3750  -57.4820   44.9570 C.ar  290  PHE290     -0.0202
      7  CD1       -4.3510  -58.8790   44.9900 C.ar  290  PHE290     -0.0042
      8  CD2       -5.4870  -56.8210   45.4740 C.ar  290  PHE290     -0.0042
      9  CE1       -5.4130  -59.5940   45.5220 C.ar  290  PHE290     -0.0003
     10  CE2       -6.5490  -57.5340   46.0050 C.ar  290  PHE290     -0.0003
     11  CZ        -6.5110  -58.9200   46.0320 C.ar  290  PHE290     -0.0000
     12  N         -1.6950  -54.9810   41.7500 N.am  291  ASP291     -0.1960
     13  CA        -0.9520  -53.7470   41.4410 C.3   291  ASP291      0.1840
     14  C         -1.7710  -52.8870   40.4760 C.2   291  ASP291      0.2622
     15  O         -2.3630  -53.4220   39.5380 O.2   291  ASP291     -0.2715
     16  CB         0.4040  -54.1040   40.8040 C.3   291  ASP291      0.1450
     17  CG         1.4140  -52.9480   40.8090 C.2   291  ASP291      0.3671
     18  OD1        1.1450  -51.8500   41.3420 O.co2 291  ASP291     -0.2456
     19  OD2        2.5110  -53.1610   40.2590 O.co2 291  ASP291     -0.2456
     20  N         -1.7990  -51.5710   40.6950 N.am  292  SER292     -0.1950
     21  CA        -2.5120  -50.6370   39.7980 C.3   292  SER292      0.1924
     22  C         -2.0620  -50.7640   38.3400 C.2   292  SER292      0.2314
     23  O         -2.8870  -50.8240   37.4330 O.2   292  SER292     -0.2863
     24  CB        -2.3520  -49.2000   40.2710 C.3   292  SER292      0.2116
     25  OG        -2.9360  -48.2940   39.4780 O.3   292  SER292     -0.2180
     26  N         -7.1070  -46.0610   40.2100 N.3   300  ASP300     -0.1225
     27  CA        -6.1630  -46.3370   41.2610 C.3   300  ASP300      0.1790
     28  C         -6.9840  -46.9420   42.4040 C.2   300  ASP300      0.2440
     29  O         -7.7950  -46.2310   43.0120 O.2   300  ASP300     -0.2733
     30  CB        -5.4940  -45.0260   41.6720 C.3   300  ASP300      0.1423
     31  CG        -4.2620  -45.2220   42.5450 C.2   300  ASP300      0.3668
     32  OD1       -3.9850  -46.3520   43.0180 O.co2 300  ASP300     -0.2456
     33  OD2       -3.5610  -44.2100   42.7570 O.co2 300  ASP300     -0.2456
     34  N         -6.8020  -48.2490   42.6990 N.am  301  PRO301     -0.2718
     35  CA        -7.6290  -48.8650   43.7490 C.3   301  PRO301      0.1535
     36  C         -7.4320  -48.2920   45.1470 C.2   301  PRO301      0.2598
     37  O         -8.3200  -48.4400   45.9820 O.2   301  PRO301     -0.2715
     38  CB        -7.2400  -50.3450   43.7040 C.3   301  PRO301      0.0310
     39  CG        -5.9430  -50.3940   42.9840 C.3   301  PRO301      0.0237
     40  CD        -5.9260  -49.2320   42.0410 C.3   301  PRO301      0.0939
     41  N         -6.3000  -47.6260   45.3860 N.am  302  ARG302     -0.1978
     42  CA        -6.0740  -46.8580   46.6270 C.3   302  ARG302      0.1597
     43  C         -6.9480  -45.6060   46.7640 C.2   302  ARG302      0.2287
     44  O         -7.0150  -45.0270   47.8500 O.2   302  ARG302     -0.2864
     45  CB        -4.6020  -46.4330   46.7470 C.3   302  ARG302      0.0334
     46  CG        -3.6270  -47.5840   46.9280 C.3   302  ARG302      0.0492
     47  CD        -2.1820  -47.0970   46.9440 C.3   302  ARG302      0.2205
     48  NE        -1.2780  -48.1060   47.5040 N.pl3 302  ARG302     -0.0865
     49  CZ        -1.1290  -48.3700   48.8060 C.cat 302  ARG302      0.5346
     50  NH1       -1.8130  -47.6980   49.7340 N.pl3 302  ARG302      0.1354
     51  NH2       -0.2820  -49.3250   49.1880 N.pl3 302  ARG302      0.1354
     52  N        -12.5470  -51.7950   47.9870 N.3   306  TYR306     -0.1241
     53  CA       -13.0680  -53.0070   47.3720 C.3   306  TYR306      0.1605
     54  C        -14.3580  -53.4790   48.0510 C.2   306  TYR306      0.2264
     55  O        -14.3930  -53.6580   49.2570 O.2   306  TYR306     -0.2867
     56  CB       -12.0120  -54.1160   47.4230 C.3   306  TYR306      0.0534
     57  CG       -10.9070  -53.9470   46.4050 C.ar  306  TYR306     -0.0201
     58  CD1      -11.1690  -54.1030   45.0460 C.ar  306  TYR306     -0.0009
     59  CD2       -9.6030  -53.6440   46.7910 C.ar  306  TYR306     -0.0009
     60  CE1      -10.1760  -53.9510   44.1030 C.ar  306  TYR306      0.0417
     61  CE2       -8.5990  -53.4910   45.8470 C.ar  306  TYR306      0.0417
     62  CZ        -8.8950  -53.6440   44.5060 C.ar  306  TYR306      0.1957
     63  OH        -7.9160  -53.5060   43.5500 O.3   306  TYR306     -0.2866
     64  N         -2.1280  -60.0920   51.4510 N.3   329  VAL329     -0.1245
     65  CA        -2.5340  -58.7560   50.9330 C.3   329  VAL329      0.1561
     66  C         -3.7470  -58.1700   51.6690 C.2   329  VAL329      0.2260
     67  O         -3.7580  -56.9750   51.9480 O.2   329  VAL329     -0.2867
     68  CB        -2.7710  -58.6980   49.3940 C.3   329  VAL329      0.0252
     69  CG1       -1.4680  -58.9030   48.6340 C.3   329  VAL329      0.0019
     70  CG2       -3.8360  -59.6810   48.9230 C.3   329  VAL329      0.0019
     71  N         -3.2650  -54.9030   53.8930 N.3   333  ASN333     -0.1240
     72  CA        -3.8870  -53.7130   53.2640 C.3   333  ASN333      0.1653
     73  C         -5.3870  -53.6210   53.5430 C.2   333  ASN333      0.2266
     74  O         -6.1620  -53.2010   52.6810 O.2   333  ASN333     -0.2867
     75  CB        -3.6490  -53.7110   51.7510 C.3   333  ASN333      0.1155
     76  CG        -2.1900  -53.8410   51.3970 C.2   333  ASN333      0.2627
     77  OD1       -1.3860  -52.9740   51.7270 O.2   333  ASN333     -0.2716
     78  ND2       -1.8350  -54.9340   50.7360 N.am  333  ASN333     -0.0877
     79  N         -8.4310  -50.9120   52.5520 N.3   336  TYR336     -0.1227
     80  CA        -9.0150  -50.8520   51.2080 C.3   336  TYR336      0.1736
     81  C        -10.0500  -51.9490   50.8840 C.2   336  TYR336      0.2595
     82  O        -10.5250  -52.0130   49.7470 O.2   336  TYR336     -0.2718
     83  CB        -7.8970  -50.8800   50.1580 C.3   336  TYR336      0.0548
     84  CG        -6.8950  -49.7630   50.3150 C.ar  336  TYR336     -0.0200
     85  CD1       -7.2990  -48.4300   50.2480 C.ar  336  TYR336     -0.0009
     86  CD2       -5.5380  -50.0320   50.5290 C.ar  336  TYR336     -0.0009
     87  CE1       -6.3870  -47.3960   50.3990 C.ar  336  TYR336      0.0417
     88  CE2       -4.6150  -49.0030   50.6740 C.ar  336  TYR336      0.0417
     89  CZ        -5.0430  -47.6860   50.6100 C.ar  336  TYR336      0.1957
     90  OH        -4.1460  -46.6510   50.7560 O.3   336  TYR336     -0.2866
     91  N        -10.3780  -52.8080   51.8530 N.am  337  PHE337     -0.1976
     92  CA       -11.4310  -53.8190   51.7120 C.3   337  PHE337      0.1639
     93  C        -12.5170  -53.5020   52.7180 C.2   337  PHE337      0.2290
     94  O        -12.2380  -53.4570   53.9140 O.2   337  PHE337     -0.2864
     95  CB       -10.8990  -55.2150   52.0150 C.3   337  PHE337      0.0560
     96  CG        -9.8590  -55.6840   51.0570 C.ar  337  PHE337     -0.0200
     97  CD1       -8.5290  -55.3330   51.2400 C.ar  337  PHE337     -0.0042
     98  CD2      -10.2020  -56.4860   49.9740 C.ar  337  PHE337     -0.0042
     99  CE1       -7.5540  -55.7660   50.3540 C.ar  337  PHE337     -0.0003
    100  CE2       -9.2350  -56.9230   49.0840 C.ar  337  PHE337     -0.0003
    101  CZ        -7.9080  -56.5650   49.2760 C.ar  337  PHE337     -0.0000
@<TRIPOS>BOND
     1    23    22    2
     2    22    21    1
     3    25    24    1
     4    15    14    2
     5    21    24    1
     6    21    20    1
     7    26    27    1
     8    19    17   ar
     9    14    20   am
    10    14    13    1
    11    16    17    1
    12    16    13    1
    13    17    18   ar
    14    27    30    1
    15    27    28    1
    16    13    12    1
    17    30    31    1
    18    12     3   am
    19     1     2    1
    20    40    34    1
    21    40    39    1
    22    28    34   am
    23    28    29    2
    24    31    33   ar
    25    31    32   ar
    26     3     2    1
    27     3     4    2
    28    34    35    1
    29     2     5    1
    30    39    38    1
    31    63    62    1
    32    38    35    1
    33    35    36    1
    34    60    62   ar
    35    60    58   ar
    36     5     6    1
    37    62    61   ar
    38     6     7   ar
    39     6     8   ar
    40     7     9   ar
    41    58    57   ar
    42    36    41   am
    43    36    37    2
    44    41    42    1
    45     8    10   ar
    46     9    11   ar
    47    61    59   ar
    48    10    11   ar
    49    57    59   ar
    50    57    56    1
    51    42    45    1
    52    42    43    1
    53    45    46    1
    54    43    44    2
    55    46    47    1
    56    47    48    1
    57    53    56    1
    58    53    52    1
    59    53    54    1
    60    48    49    2
    61    54    55    2
    62    69    68    1
    63    49    51    1
    64    49    50    1
    65    70    68    1
    66   100   101   ar
    67   100    98   ar
    68   101    99   ar
    69    68    65    1
    70    82    81    2
    71    98    96   ar
    72    83    84    1
    73    83    80    1
    74    85    84   ar
    75    85    87   ar
    76    84    86   ar
    77    99    97   ar
    78    87    89   ar
    79    86    88   ar
    80    89    88   ar
    81    89    90    1
    82    78    76   am
    83    81    80    1
    84    81    91   am
    85    65    64    1
    86    65    66    1
    87    96    97   ar
    88    96    95    1
    89    80    79    1
    90    76    77    2
    91    76    75    1
    92    66    67    2
    93    92    91    1
    94    92    95    1
    95    92    93    1
    96    75    72    1
    97    74    73    2
    98    93    94    2
    99    72    73    1
   100    72    71    1
