@<TRIPOS>MOLECULE
tmp/5ylkA02.pdb
 94 93 0 0 0
SMALL
GASTEIGER

@<TRIPOS>ATOM
      1  N         18.0070   66.1890  199.4100 N.3    15  LYS15      -0.1245
      2  CA        19.0600   66.6860  200.2870 C.3    15  LYS15       0.1561
      3  C         20.4070   66.6900  199.5770 C.2    15  LYS15       0.2260
      4  O         20.8310   65.6780  199.0200 O.2    15  LYS15      -0.2867
      5  CB        19.1390   65.8340  201.5550 C.3    15  LYS15       0.0271
      6  CG        20.0250   66.4620  202.6250 C.3    15  LYS15       0.0035
      7  CD        20.3140   65.5100  203.7860 C.3    15  LYS15       0.0206
      8  CE        21.3110   66.1510  204.7530 C.3    15  LYS15       0.1093
      9  NZ        21.2770   65.5100  206.1020 N.3    15  LYS15      -0.1314
     10  N          9.0080   66.4060  206.9560 N.3    57  PHE57      -0.1227
     11  CA         9.9320   67.2440  206.2060 C.3    57  PHE57       0.1736
     12  C         11.3720   67.0940  206.6870 C.2    57  PHE57       0.2595
     13  O         12.2380   67.8640  206.2630 O.2    57  PHE57      -0.2718
     14  CB         9.4850   68.7090  206.2640 C.3    57  PHE57       0.0547
     15  CG         9.5890   69.3300  207.6280 C.ar   57  PHE57      -0.0202
     16  CD1        8.5690   69.1650  208.5610 C.ar   57  PHE57      -0.0042
     17  CD2       10.6950   70.0990  207.9740 C.ar   57  PHE57      -0.0042
     18  CE1        8.6560   69.7420  209.8180 C.ar   57  PHE57      -0.0003
     19  CE2       10.7880   70.6820  209.2290 C.ar   57  PHE57      -0.0003
     20  CZ         9.7720   70.4980  210.1530 C.ar   57  PHE57      -0.0000
     21  N         11.6590   66.1160  207.5470 N.am   58  GLN58      -0.1965
     22  CA        13.0050   65.9660  208.0830 C.3    58  GLN58       0.1733
     23  C         13.8290   64.9030  207.3640 C.2    58  GLN58       0.2616
     24  O         15.0510   64.8860  207.5200 O.2    58  GLN58      -0.2715
     25  CB        12.9560   65.6620  209.5860 C.3    58  GLN58       0.0408
     26  CG        12.0590   66.6220  210.3710 C.3    58  GLN58       0.0908
     27  CD        12.7940   67.3360  211.4940 C.2    58  GLN58       0.2608
     28  OE1       13.8660   66.9040  211.9240 O.2    58  GLN58      -0.2717
     29  NE2       12.2230   68.4410  211.9730 N.am   58  GLN58      -0.0878
     30  N         13.2110   64.0410  206.5690 N.am   59  GLY59      -0.1955
     31  CA        13.9750   63.0410  205.8500 C.3    59  GLY59       0.1869
     32  C         14.7470   63.6330  204.6810 C.2    59  GLY59       0.2309
     33  O         14.5280   64.7680  204.2530 O.2    59  GLY59      -0.2863
     34  N         14.0620   66.0180  201.5530 N.3    62  MET62      -0.1230
     35  CA        14.0330   67.4670  201.6480 C.3    62  MET62       0.1702
     36  C         15.4500   68.0330  201.6660 C.2    62  MET62       0.2592
     37  O         16.3310   67.4950  202.3440 O.2    62  MET62      -0.2718
     38  CB        13.2890   67.8970  202.9110 C.3    62  MET62       0.0401
     39  CG        13.0650   69.4080  203.0020 C.3    62  MET62       0.0596
     40  SD        11.6800   69.9730  201.9770 S.3    62  MET62      -0.1393
     41  CE        10.4320   68.8180  202.5230 C.3    62  MET62       0.0692
     42  N         15.6670   69.1170  200.9090 N.am   63  VAL63      -0.1966
     43  CA        16.9010   69.8830  201.0580 C.3    63  VAL63       0.1727
     44  C         16.9900   70.3650  202.5000 C.2    63  VAL63       0.2616
     45  O         15.9720   70.6580  203.1390 O.2    63  VAL63      -0.2715
     46  CB        16.9630   71.0820  200.0920 C.3    63  VAL63       0.0290
     47  CG1       17.1460   70.6190  198.6590 C.3    63  VAL63       0.0023
     48  CG2       15.7020   71.9460  200.2280 C.3    63  VAL63       0.0023
     49  N         18.2100   70.4500  203.0270 N.am   64  ASP64      -0.1957
     50  CA        18.2830   70.9660  204.3830 C.3    64  ASP64       0.1840
     51  C         18.2310   72.4950  204.3760 C.2    64  ASP64       0.2622
     52  O         18.3560   73.1510  203.3330 O.2    64  ASP64      -0.2715
     53  CB        19.5150   70.4230  205.1260 C.3    64  ASP64       0.1450
     54  CG        20.8510   70.9660  204.6180 C.2    64  ASP64       0.3671
     55  OD1       21.8630   70.2550  204.8450 O.co2  64  ASP64      -0.2456
     56  OD2       20.9300   72.0730  204.0330 O.co2  64  ASP64      -0.2456
     57  N         18.0380   73.0580  205.5740 N.am   65  ASP65      -0.1957
     58  CA        17.8580   74.5000  205.7100 C.3    65  ASP65       0.1840
     59  C         19.0670   75.2720  205.1850 C.2    65  ASP65       0.2622
     60  O         18.9090   76.2830  204.4950 O.2    65  ASP65      -0.2715
     61  CB        17.6020   74.8690  207.1720 C.3    65  ASP65       0.1450
     62  CG        16.3210   74.2570  207.7280 C.2    65  ASP65       0.3671
     63  OD1       15.4270   73.8360  206.9460 O.co2  65  ASP65      -0.2456
     64  OD2       16.2130   74.2080  208.9730 O.co2  65  ASP65      -0.2456
     65  N         20.2790   74.8280  205.5220 N.am   66  ASP66      -0.1971
     66  CA        21.4760   75.5530  205.1050 C.3    66  ASP66       0.1709
     67  C         21.5260   75.7190  203.5920 C.2    66  ASP66       0.2293
     68  O         21.7870   76.8150  203.0820 O.2    66  ASP66      -0.2864
     69  CB        22.7300   74.8300  205.5970 C.3    66  ASP66       0.1436
     70  CG        23.1020   75.2230  207.0100 C.2    66  ASP66       0.3671
     71  OD1       22.4200   76.1140  207.5740 O.co2  66  ASP66      -0.2456
     72  OD2       24.0740   74.6470  207.5550 O.co2  66  ASP66      -0.2456
     73  N          7.8390   76.2400  210.0220 N.3   125  HIS125     -0.1226
     74  CA         9.2740   76.0500  209.8530 C.3   125  HIS125      0.1752
     75  C          9.7770   76.7810  208.6110 C.2   125  HIS125      0.2596
     76  O         10.7870   77.4930  208.6590 O.2   125  HIS125     -0.2718
     77  CB         9.5940   74.5540  209.7840 C.3   125  HIS125      0.0759
     78  CG        11.0460   74.2450  209.5610 C.ar  125  HIS125      0.0818
     79  ND1       11.9450   74.1000  210.5950 N.ar  125  HIS125     -0.2268
     80  CD2       11.7450   74.0140  208.4230 C.ar  125  HIS125      0.1154
     81  CE1       13.1400   73.8190  210.1030 C.ar  125  HIS125      0.1986
     82  NE2       13.0450   73.7540  208.7870 N.ar  125  HIS125     -0.2212
     83  N          9.0720   76.6320  207.4860 N.am  126  TYR126     -0.1976
     84  CA         9.5260   77.2750  206.2600 C.3   126  TYR126      0.1639
     85  C          9.1470   78.7490  206.2210 C.2   126  TYR126      0.2290
     86  O          9.8440   79.5470  205.5800 O.2   126  TYR126     -0.2864
     87  CB         9.0170   76.4770  205.0480 C.3   126  TYR126      0.0560
     88  CG         9.8070   75.1960  204.9940 C.ar  126  TYR126     -0.0198
     89  CD1        9.3470   74.0360  205.6150 C.ar  126  TYR126     -0.0009
     90  CD2       11.0860   75.1800  204.4460 C.ar  126  TYR126     -0.0009
     91  CE1       10.1170   72.8830  205.6230 C.ar  126  TYR126      0.0417
     92  CE2       11.8590   74.0330  204.4470 C.ar  126  TYR126      0.0417
     93  CZ        11.3770   72.8920  205.0440 C.ar  126  TYR126      0.1957
     94  OH        12.1600   71.7610  205.0400 O.3   126  TYR126     -0.2866
@<TRIPOS>BOND
     1    47    46    1
     2     4     3    2
     3     1     2    1
     4     3     2    1
     5    46    48    1
     6    46    43    1
     7     2     5    1
     8    42    43    1
     9    42    36   am
    10    43    44    1
    11    34    35    1
    12     5     6    1
    13    35    36    1
    14    35    38    1
    15    36    37    2
    16    40    41    1
    17    40    39    1
    18    44    49   am
    19    44    45    2
    20     6     7    1
    21    38    39    1
    22    49    50    1
    23    68    67    2
    24    52    51    2
    25    67    66    1
    26     7     8    1
    27    56    54   ar
    28    33    32    2
    29    51    50    1
    30    51    57   am
    31    50    53    1
    32    90    92   ar
    33    90    88   ar
    34    92    93   ar
    35    60    59    2
    36    54    55   ar
    37    54    53    1
    38    32    31    1
    39     8     9    1
    40    88    87    1
    41    88    89   ar
    42    94    93    1
    43    93    91   ar
    44    87    84    1
    45    66    65    1
    46    66    69    1
    47    59    65   am
    48    59    58    1
    49    57    58    1
    50    86    85    2
    51    69    70    1
    52    89    91   ar
    53    58    61    1
    54    31    30    1
    55    11    14    1
    56    11    12    1
    57    11    10    1
    58    85    84    1
    59    84    83    1
    60    13    12    2
    61    14    15    1
    62    30    23   am
    63    12    21   am
    64    63    62   ar
    65    70    72   ar
    66    70    71   ar
    67    61    62    1
    68    23    24    2
    69    23    22    1
    70    83    75   am
    71    21    22    1
    72    15    17   ar
    73    15    16   ar
    74    62    64   ar
    75    17    19   ar
    76    22    25    1
    77    80    82   ar
    78    80    78   ar
    79    16    18   ar
    80    75    76    2
    81    75    74    1
    82    82    81   ar
    83    19    20   ar
    84    78    77    1
    85    78    79   ar
    86    25    26    1
    87    77    74    1
    88    18    20   ar
    89    74    73    1
    90    81    79   ar
    91    26    27    1
    92    27    28    2
    93    27    29   am
