@<TRIPOS>MOLECULE
tmp/5ylkA00.pdb
 134 133 0 0 0
SMALL
GASTEIGER

@<TRIPOS>ATOM
      1  N         11.7710   71.3270  192.0250 N.3    11  TRP11      -0.1241
      2  CA        10.7930   70.2960  192.3690 C.3    11  TRP11       0.1605
      3  C         11.4370   68.9220  192.4710 C.2    11  TRP11       0.2264
      4  O         10.9550   68.0590  193.2200 O.2    11  TRP11      -0.2867
      5  CB         9.6750   70.2620  191.3340 C.3    11  TRP11       0.0550
      6  CG         8.4830   69.3970  191.6870 C.ar   11  TRP11       0.0003
      7  CD1        7.9450   68.3980  190.9210 C.ar   11  TRP11       0.0946
      8  CD2        7.6660   69.4750  192.8670 C.ar   11  TRP11       0.0152
      9  NE1        6.8530   67.8500  191.5470 N.ar   11  TRP11      -0.2442
     10  CE2        6.6560   68.4920  192.7420 C.ar   11  TRP11       0.0810
     11  CE3        7.6840   70.2840  194.0120 C.ar   11  TRP11       0.0012
     12  CZ2        5.6740   68.2870  193.7260 C.ar   11  TRP11       0.0191
     13  CZ3        6.7090   70.0920  194.9830 C.ar   11  TRP11       0.0001
     14  CH2        5.7140   69.0960  194.8360 C.ar   11  TRP11       0.0015
     15  N          7.4260   77.9200  198.1870 N.3    85  LYS85      -0.1245
     16  CA         6.1930   77.1480  198.0540 C.3    85  LYS85       0.1561
     17  C          6.3900   75.7530  198.6420 C.2    85  LYS85       0.2260
     18  O          6.7290   74.7970  197.9280 O.2    85  LYS85      -0.2867
     19  CB         5.7590   77.0800  196.5890 C.3    85  LYS85       0.0271
     20  CG         4.5090   76.2480  196.3460 C.3    85  LYS85       0.0035
     21  CD         4.0630   76.3570  194.8840 C.3    85  LYS85       0.0206
     22  CE         3.5390   75.0300  194.3740 C.3    85  LYS85       0.1093
     23  NZ         3.0410   75.1440  192.9560 N.3    85  LYS85      -0.1314
     24  N         -2.4270   62.0850  194.5770 N.3    95  TRP95      -0.1227
     25  CA        -2.4340   63.5330  194.4430 C.3    95  TRP95       0.1737
     26  C         -2.9080   64.1880  195.7450 C.2    95  TRP95       0.2595
     27  O         -3.9110   63.7750  196.3380 O.2    95  TRP95      -0.2718
     28  CB        -3.3430   63.9120  193.2720 C.3    95  TRP95       0.0564
     29  CG        -3.3900   65.3560  192.9310 C.ar   95  TRP95       0.0003
     30  CD1       -2.4160   66.2860  193.1430 C.ar   95  TRP95       0.0946
     31  CD2       -4.4690   66.0410  192.2940 C.ar   95  TRP95       0.0152
     32  NE1       -2.8290   67.5080  192.6890 N.ar   95  TRP95      -0.2442
     33  CE2       -4.0870   67.3880  192.1640 C.ar   95  TRP95       0.0810
     34  CE3       -5.7350   65.6490  191.8400 C.ar   95  TRP95       0.0012
     35  CZ2       -4.9160   68.3490  191.5880 C.ar   95  TRP95       0.0191
     36  CZ3       -6.5570   66.6010  191.2720 C.ar   95  TRP95       0.0001
     37  CH2       -6.1450   67.9390  191.1520 C.ar   95  TRP95       0.0015
     38  N         -2.1850   65.2290  196.1770 N.am   96  ARG96      -0.1980
     39  CA        -2.4650   65.8620  197.4640 C.3    96  ARG96       0.1597
     40  C         -3.8580   66.4740  197.5210 C.2    96  ARG96       0.2287
     41  O         -4.3680   66.7130  198.6180 O.2    96  ARG96      -0.2864
     42  CB        -1.4250   66.9460  197.7610 C.3    96  ARG96       0.0334
     43  CG        -1.6210   68.2120  196.9230 C.3    96  ARG96       0.0492
     44  CD        -0.4260   69.1520  197.0230 C.3    96  ARG96       0.2205
     45  NE         0.7700   68.5950  196.4060 N.pl3  96  ARG96      -0.0865
     46  CZ         1.0410   68.6630  195.1070 C.cat  96  ARG96       0.5346
     47  NH1        0.1920   69.2660  194.2870 N.pl3  96  ARG96       0.1354
     48  NH2        2.1580   68.1220  194.6260 N.pl3  96  ARG96       0.1354
     49  N         -1.0270   74.1230  198.3530 N.3   142  CYS142     -0.1221
     50  CA        -1.0660   73.8850  196.9130 C.3   142  CYS142      0.1808
     51  C         -2.1320   72.8500  196.5910 C.2   142  CYS142      0.2601
     52  O         -2.0250   71.6950  197.0200 O.2   142  CYS142     -0.2717
     53  CB         0.3020   73.4090  196.4130 C.3   142  CYS142      0.0970
     54  SG         0.3570   73.0420  194.6470 S.3   142  CYS142     -0.0800
     55  N         -3.1570   73.2680  195.8450 N.am  143  GLU143     -0.1979
     56  CA        -4.1340   72.3620  195.2380 C.3   143  GLU143      0.1602
     57  C         -4.7680   71.4260  196.2610 C.2   143  GLU143      0.2287
     58  O         -5.0370   70.2650  195.9730 O.2   143  GLU143     -0.2864
     59  CB        -3.5020   71.5460  194.1020 C.3   143  GLU143      0.0415
     60  CG        -2.9250   72.3660  192.9630 C.3   143  GLU143      0.1163
     61  CD        -2.0130   71.5420  192.0460 C.2   143  GLU143      0.3649
     62  OE1       -1.7500   70.3610  192.3670 O.co2 143  GLU143     -0.2457
     63  OE2       -1.5610   72.0720  191.0030 O.co2 143  GLU143     -0.2457
     64  N         -3.5620   77.1720  190.2100 N.3   193  SER193     -0.1217
     65  CA        -2.8670   76.3540  189.2200 C.3   193  SER193      0.1889
     66  C         -3.6650   76.4700  187.9290 C.2   193  SER193      0.2288
     67  O         -4.7240   75.8530  187.7840 O.2   193  SER193     -0.2866
     68  CB        -2.7530   74.9060  189.6840 C.3   193  SER193      0.2089
     69  OG        -1.8890   74.8010  190.8010 O.3   193  SER193     -0.2183
     70  N         -3.9800   75.3310  184.9480 N.3   195  TYR195     -0.1241
     71  CA        -3.9030   74.2710  183.9330 C.3   195  TYR195      0.1605
     72  C         -5.2480   74.1620  183.2120 C.2   195  TYR195      0.2264
     73  O         -6.0030   73.2000  183.3710 O.2   195  TYR195     -0.2867
     74  CB        -3.5320   72.9290  184.5600 C.3   195  TYR195      0.0534
     75  CG        -2.1900   72.8880  185.2360 C.ar  195  TYR195     -0.0201
     76  CD1       -1.0160   73.0880  184.5130 C.ar  195  TYR195     -0.0009
     77  CD2       -2.0890   72.6390  186.6020 C.ar  195  TYR195     -0.0009
     78  CE1        0.2370   73.0520  185.1410 C.ar  195  TYR195      0.0417
     79  CE2       -0.8530   72.6000  187.2350 C.ar  195  TYR195      0.0417
     80  CZ         0.3040   72.8100  186.5030 C.ar  195  TYR195      0.1957
     81  OH         1.5210   72.7700  187.1460 O.3   195  TYR195     -0.2866
     82  N          1.1520   78.2950  189.4670 N.3   223  ALA223     -0.1245
     83  CA         1.6100   77.1830  188.6480 C.3   223  ALA223      0.1562
     84  C          0.8370   77.1980  187.3380 C.2   223  ALA223      0.2260
     85  O         -0.3570   77.5290  187.3080 O.2   223  ALA223     -0.2867
     86  CB         1.4440   75.8160  189.3500 C.3   223  ALA223      0.0290
     87  N         -2.5310   69.6520  183.3220 N.3   237  ASN237     -0.1240
     88  CA        -2.2010   69.2560  184.6860 C.3   237  ASN237      0.1653
     89  C         -1.8320   67.7840  184.8000 C.2   237  ASN237      0.2266
     90  O         -1.2020   67.3930  185.7880 O.2   237  ASN237     -0.2867
     91  CB        -3.4050   69.4960  185.5810 C.3   237  ASN237      0.1155
     92  CG        -4.5950   68.6910  185.1160 C.2   237  ASN237      0.2627
     93  OD1       -5.0870   68.9000  184.0030 O.2   237  ASN237     -0.2716
     94  ND2       -5.0070   67.7090  185.9130 N.am  237  ASN237     -0.0877
     95  N          0.0910   65.0540  184.7960 N.3   239  TRP239     -0.1241
     96  CA         1.4930   64.7240  184.5940 C.3   239  TRP239      0.1605
     97  C          1.6980   63.2820  184.1300 C.2   239  TRP239      0.2264
     98  O          2.7230   62.9840  183.5070 O.2   239  TRP239     -0.2867
     99  CB         2.2900   64.9970  185.8690 C.3   239  TRP239      0.0550
    100  CG         1.8470   64.2280  187.0850 C.ar  239  TRP239      0.0003
    101  CD1        1.0270   64.6710  188.0880 C.ar  239  TRP239      0.0946
    102  CD2        2.2390   62.8990  187.4440 C.ar  239  TRP239      0.0152
    103  NE1        0.8810   63.6900  189.0430 N.ar  239  TRP239     -0.2442
    104  CE2        1.6130   62.5940  188.6670 C.ar  239  TRP239      0.0810
    105  CE3        3.0540   61.9340  186.8430 C.ar  239  TRP239      0.0012
    106  CZ2        1.7720   61.3650  189.2970 C.ar  239  TRP239      0.0191
    107  CZ3        3.2100   60.7110  187.4710 C.ar  239  TRP239      0.0001
    108  CH2        2.5730   60.4390  188.6890 C.ar  239  TRP239      0.0015
    109  N          5.6450   75.7660  185.2780 N.3   273  TRP273     -0.1241
    110  CA         5.9910   74.4550  185.8150 C.3   273  TRP273      0.1605
    111  C          6.5850   73.6110  184.6950 C.2   273  TRP273      0.2264
    112  O          5.9000   73.3600  183.7000 O.2   273  TRP273     -0.2867
    113  CB         4.7510   73.7670  186.3960 C.3   273  TRP273      0.0550
    114  CG         5.1040   72.6020  187.2580 C.ar  273  TRP273      0.0003
    115  CD1        5.4510   71.3440  186.8430 C.ar  273  TRP273      0.0946
    116  CD2        5.1850   72.5910  188.6850 C.ar  273  TRP273      0.0152
    117  NE1        5.7390   70.5540  187.9280 N.ar  273  TRP273     -0.2442
    118  CE2        5.5820   71.2940  189.0710 C.ar  273  TRP273      0.0810
    119  CE3        4.9640   73.5480  189.6710 C.ar  273  TRP273      0.0012
    120  CZ2        5.7570   70.9330  190.4070 C.ar  273  TRP273      0.0191
    121  CZ3        5.1360   73.1870  190.9950 C.ar  273  TRP273      0.0001
    122  CH2        5.5340   71.8950  191.3480 C.ar  273  TRP273      0.0015
    123  N          7.4260   68.3210  181.6320 N.3   291  TYR291     -0.1241
    124  CA         7.0260   69.7180  181.6880 C.3   291  TYR291      0.1605
    125  C          8.1250   70.6680  181.2510 C.2   291  TYR291      0.2264
    126  O          7.8210   71.7930  180.8380 O.2   291  TYR291     -0.2867
    127  CB         6.5900   70.0750  183.1050 C.3   291  TYR291      0.0534
    128  CG         5.1940   69.6280  183.3920 C.ar  291  TYR291     -0.0201
    129  CD1        4.1230   70.4670  183.1350 C.ar  291  TYR291     -0.0009
    130  CD2        4.9370   68.3550  183.8950 C.ar  291  TYR291     -0.0009
    131  CE1        2.8350   70.0720  183.3890 C.ar  291  TYR291      0.0417
    132  CE2        3.6300   67.9420  184.1510 C.ar  291  TYR291      0.0417
    133  CZ         2.5900   68.8120  183.8900 C.ar  291  TYR291      0.1957
    134  OH         1.2870   68.4460  184.1250 O.3   291  TYR291     -0.2866
@<TRIPOS>BOND
     1   126   125    2
     2   125   124    1
     3   123   124    1
     4   124   127    1
     5   127   128    1
     6   129   131   ar
     7   129   128   ar
     8    72    73    2
     9    72    71    1
    10    87    88    1
    11   131   133   ar
    12   128   130   ar
    13    98    97    2
    14   112   111    2
    15   133   134    1
    16   133   132   ar
    17   130   132   ar
    18    71    74    1
    19    71    70    1
    20    93    92    2
    21    97    96    1
    22    76    78   ar
    23    76    75   ar
    24    74    75    1
    25    96    95    1
    26    96    99    1
    27    88    89    1
    28    88    91    1
    29   111   110    1
    30    89    90    2
    31    92    91    1
    32    92    94   am
    33    78    80   ar
    34    75    77   ar
    35   109   110    1
    36   110   113    1
    37    99   100    1
    38   113   114    1
    39    80    81    1
    40    80    79   ar
    41    77    79   ar
    42   105   102   ar
    43   105   107   ar
    44   115   114   ar
    45   115   117   ar
    46   100   102   ar
    47   100   101   ar
    48   114   116   ar
    49    85    84    2
    50    84    83    1
    51   102   104   ar
    52   107   108   ar
    53    67    66    2
    54   117   118   ar
    55    66    65    1
    56   101   103   ar
    57    83    86    1
    58    83    82    1
    59   104   103   ar
    60   104   106   ar
    61   116   118   ar
    62   116   119   ar
    63   108   106   ar
    64   118   120   ar
    65    65    68    1
    66    65    64    1
    67   119   121   ar
    68    68    69    1
    69   120   122   ar
    70     7     9   ar
    71     7     6   ar
    72   121   122   ar
    73    63    61   ar
    74    37    36   ar
    75    37    35   ar
    76    36    34   ar
    77     5     6    1
    78     5     2    1
    79     9    10   ar
    80    35    33   ar
    81     6     8   ar
    82    34    31   ar
    83     1     2    1
    84    61    62   ar
    85    61    60    1
    86    33    31   ar
    87    33    32   ar
    88    31    29   ar
    89     2     3    1
    90     3     4    2
    91    32    30   ar
    92    10     8   ar
    93    10    12   ar
    94     8    11   ar
    95    29    30   ar
    96    29    28    1
    97    23    22    1
    98    60    59    1
    99    28    25    1
   100    12    14   ar
   101    11    13   ar
   102    59    56    1
   103    47    46    1
   104    22    21    1
   105    25    24    1
   106    25    26    1
   107    48    46    1
   108    54    53    1
   109    14    13   ar
   110    21    20    1
   111    46    45    2
   112    56    55    1
   113    56    57    1
   114    26    38   am
   115    26    27    2
   116    55    51   am
   117    58    57    2
   118    38    39    1
   119    20    19    1
   120    45    44    1
   121    53    50    1
   122    19    16    1
   123    51    50    1
   124    51    52    2
   125    50    49    1
   126    43    44    1
   127    43    42    1
   128    39    40    1
   129    39    42    1
   130    40    41    2
   131    18    17    2
   132    16    15    1
   133    16    17    1
