@<TRIPOS>MOLECULE
tmp/5ylnA00.pdb
 78 72 0 0 0
SMALL
GASTEIGER

@<TRIPOS>ATOM
      1  N        -13.0300   25.3890   -7.2150 N.3    41  CYS41      -0.1235
      2  CA       -11.7670   24.7990   -6.8100 C.3    41  CYS41       0.1677
      3  C        -10.7590   25.9070   -6.5360 C.2    41  CYS41       0.2270
      4  O        -10.8580   27.0030   -7.0930 O.2    41  CYS41      -0.2867
      5  CB       -11.2440   23.8710   -7.9060 C.3    41  CYS41       0.0956
      6  SG        -9.6090   23.2210   -7.5720 S.3    41  CYS41      -0.0801
      7  N         -7.8910   26.1200   -7.6940 N.3    43  THR43      -0.1218
      8  CA        -7.2850   26.4540   -8.9830 C.3    43  THR43       0.1862
      9  C         -8.0660   27.5510   -9.7070 C.2    43  THR43       0.2287
     10  O         -7.4720   28.3550  -10.4260 O.2    43  THR43      -0.2866
     11  CB        -7.1790   25.1910   -9.8600 C.3    43  THR43       0.1770
     12  OG1       -6.2990   24.2270   -9.2580 O.3    43  THR43      -0.2211
     13  CG2       -6.6670   25.5260  -11.2490 C.3    43  THR43       0.0375
     14  N        -14.3440   23.2070  -13.2300 N.3    63  HIS63      -0.1241
     15  CA       -14.1880   21.8660  -13.7570 C.3    63  HIS63       0.1621
     16  C        -14.7550   20.8170  -12.8070 C.2    63  HIS63       0.2264
     17  O        -14.2170   19.7190  -12.7270 O.2    63  HIS63      -0.2867
     18  CB       -12.7070   21.5680  -14.0500 C.3    63  HIS63       0.0745
     19  CG       -11.7940   21.9230  -12.9250 C.ar   63  HIS63       0.0817
     20  ND1      -11.2900   23.1940  -12.7530 N.ar   63  HIS63      -0.2268
     21  CD2      -11.3160   21.1840  -11.8950 C.ar   63  HIS63       0.1154
     22  CE1      -10.5270   23.2190  -11.6750 C.ar   63  HIS63       0.1986
     23  NE2      -10.5220   22.0140  -11.1380 N.ar   63  HIS63      -0.2212
     24  N        -13.5020   15.9420  -13.8450 N.3    89  CYS89      -0.1235
     25  CA       -12.7320   17.1170  -14.2400 C.3    89  CYS89       0.1677
     26  C        -11.7760   16.8320  -15.3910 C.2    89  CYS89       0.2270
     27  O        -11.2610   17.7770  -15.9990 O.2    89  CYS89      -0.2867
     28  CB       -11.9600   17.6810  -13.0380 C.3    89  CYS89       0.0956
     29  SG       -10.7140   16.5600  -12.3220 S.3    89  CYS89      -0.0801
     30  N         -6.8560   17.5550  -18.0950 N.3   113  TRP113     -0.1241
     31  CA        -7.6010   18.6060  -17.4120 C.3   113  TRP113      0.1605
     32  C         -7.7360   19.7720  -18.3740 C.2   113  TRP113      0.2264
     33  O         -6.7860   20.5250  -18.6030 O.2   113  TRP113     -0.2867
     34  CB        -6.9310   19.0250  -16.1110 C.3   113  TRP113      0.0550
     35  CG        -7.5190   20.2780  -15.6020 C.ar  113  TRP113      0.0003
     36  CD1       -8.8530   20.5490  -15.4080 C.ar  113  TRP113      0.0946
     37  CD2       -6.8170   21.4710  -15.2740 C.ar  113  TRP113      0.0152
     38  NE1       -9.0190   21.8410  -14.9550 N.ar  113  TRP113     -0.2442
     39  CE2       -7.7790   22.4310  -14.8750 C.ar  113  TRP113      0.0810
     40  CE3       -5.4690   21.8270  -15.2670 C.ar  113  TRP113      0.0012
     41  CZ2       -7.4240   23.7090  -14.4760 C.ar  113  TRP113      0.0191
     42  CZ3       -5.1220   23.1100  -14.8840 C.ar  113  TRP113      0.0001
     43  CH2       -6.0900   24.0280  -14.4870 C.ar  113  TRP113      0.0015
     44  N         -8.7350   13.4760   -6.4010 N.3   151  THR151     -0.1218
     45  CA        -7.4250   14.1170   -6.2710 C.3   151  THR151      0.1862
     46  C         -6.7360   13.6670   -4.9890 C.2   151  THR151      0.2287
     47  O         -5.6270   13.1200   -5.0230 O.2   151  THR151     -0.2866
     48  CB        -7.5490   15.6570   -6.3290 C.3   151  THR151      0.1770
     49  OG1       -7.9770   16.0560   -7.6370 O.3   151  THR151     -0.2211
     50  CG2       -6.1700   16.3200   -6.0840 C.3   151  THR151      0.0375
     51  N          0.4050   16.9710   -3.8200 N.3   264  CYS264     -0.1235
     52  CA        -0.8740   17.1320   -4.5150 C.3   264  CYS264      0.1677
     53  C         -1.0150   18.4650   -5.2160 C.2   264  CYS264      0.2270
     54  O         -1.5570   18.5160   -6.3160 O.2   264  CYS264     -0.2867
     55  CB        -2.0510   17.0080   -3.5460 C.3   264  CYS264      0.0956
     56  SG        -1.9430   15.6350   -2.4490 S.3   264  CYS264     -0.0801
     57  N         -0.6170   22.2940   -6.9610 N.3   266  VAL266     -0.1245
     58  CA         0.1490   23.0820   -7.9110 C.3   266  VAL266      0.1561
     59  C          1.2220   23.8730   -7.1760 C.2   266  VAL266      0.2260
     60  O          0.9760   24.4600   -6.1160 O.2   266  VAL266     -0.2867
     61  CB        -0.7900   24.0330   -8.6690 C.3   266  VAL266      0.0252
     62  CG1       -0.0670   24.6610   -9.8360 C.3   266  VAL266      0.0019
     63  CG2       -2.0380   23.2790   -9.1050 C.3   266  VAL266      0.0019
     64  N         -1.1300   14.9450  -11.5910 N.3   289  LEU289     -0.1231
     65  CA        -2.4550   15.4770  -11.8780 C.3   289  LEU289      0.1693
     66  C         -3.4450   14.3170  -11.7890 C.2   289  LEU289      0.2591
     67  O         -3.1970   13.2440  -12.3590 O.2   289  LEU289     -0.2718
     68  CB        -2.4810   16.0830  -13.2800 C.3   289  LEU289      0.0284
     69  CG        -3.8170   16.4920  -13.8970 C.3   289  LEU289      0.0019
     70  CD1       -4.4780   17.4860  -12.9980 C.3   289  LEU289      0.0001
     71  CD2       -3.5780   17.0870  -15.2710 C.3   289  LEU289      0.0001
     72  N         -4.5630   14.5350  -11.0980 N.am  290  VAL290     -0.1980
     73  CA        -5.5640   13.4890  -10.9640 C.3   290  VAL290      0.1595
     74  C         -5.9450   12.9540  -12.3420 C.2   290  VAL290      0.2287
     75  O         -5.9590   13.6930  -13.3330 O.2   290  VAL290     -0.2864
     76  CB        -6.7990   14.0160  -10.2120 C.3   290  VAL290      0.0276
     77  CG1       -7.6200   14.9730  -11.1070 C.3   290  VAL290      0.0022
     78  CG2       -7.6760   12.8560   -9.7370 C.3   290  VAL290      0.0022
@<TRIPOS>BOND
     1    33    32    2
     2    32    31    1
     3    30    31    1
     4    31    34    1
     5    34    35    1
     6    27    26    2
     7    35    36   ar
     8    35    37   ar
     9    36    38   ar
    10    26    25    1
    11    37    40   ar
    12    37    39   ar
    13    71    69    1
    14    40    42   ar
    15    38    39   ar
    16    42    43   ar
    17    39    41   ar
    18    43    41   ar
    19    25    24    1
    20    25    28    1
    21    18    15    1
    22    18    19    1
    23    69    68    1
    24    69    70    1
    25    15    14    1
    26    15    16    1
    27    75    74    2
    28    68    65    1
    29    28    29    1
    30    19    20   ar
    31    19    21   ar
    32    16    17    2
    33    20    22   ar
    34    67    66    2
    35    74    73    1
    36    21    23   ar
    37    65    66    1
    38    65    64    1
    39    66    72   am
    40    22    23   ar
    41    13    11    1
    42    77    76    1
    43    72    73    1
    44    73    76    1
    45    10     9    2
    46    76    78    1
    47    11    12    1
    48    11     8    1
    49    62    61    1
    50     9     8    1
    51    63    61    1
    52     8     7    1
    53    61    58    1
    54    58    59    1
    55    58    57    1
    56     5     6    1
    57     5     2    1
    58    49    48    1
    59     1     2    1
    60    59    60    2
    61     4     3    2
    62     2     3    1
    63    44    45    1
    64    48    45    1
    65    48    50    1
    66    54    53    2
    67    45    46    1
    68    53    52    1
    69    47    46    2
    70    52    51    1
    71    52    55    1
    72    55    56    1
