@<TRIPOS>MOLECULE
tmp/5yltA01.pdb
 159 162 0 0 0
SMALL
GASTEIGER

@<TRIPOS>ATOM
      1  N        -27.7990    4.9410  -16.7100 N.3   131  TYR131     -0.1241
      2  CA       -29.0260    5.1620  -15.9490 C.3   131  TYR131      0.1605
      3  C        -28.6260    5.8800  -14.6610 C.2   131  TYR131      0.2264
      4  O        -28.4630    5.2710  -13.6010 O.2   131  TYR131     -0.2867
      5  CB       -29.7300    3.8220  -15.6740 C.3   131  TYR131      0.0534
      6  CG       -31.2260    3.9450  -15.5000 C.ar  131  TYR131     -0.0201
      7  CD1      -31.7690    4.7690  -14.5180 C.ar  131  TYR131     -0.0009
      8  CD2      -32.0950    3.2100  -16.3010 C.ar  131  TYR131     -0.0009
      9  CE1      -33.1380    4.8620  -14.3440 C.ar  131  TYR131      0.0417
     10  CE2      -33.4580    3.2860  -16.1310 C.ar  131  TYR131      0.0417
     11  CZ       -33.9730    4.1160  -15.1550 C.ar  131  TYR131      0.1957
     12  OH       -35.3330    4.2090  -14.9970 O.3   131  TYR131     -0.2866
     13  N        -47.5400    3.6100   -7.6090 N.3   146  TRP146     -0.1227
     14  CA       -46.6290    3.0420   -8.5920 C.3   146  TRP146      0.1737
     15  C        -46.5960    3.8610   -9.8740 C.2   146  TRP146      0.2595
     16  O        -45.6270    3.7590  -10.6280 O.2   146  TRP146     -0.2718
     17  CB       -46.9650    1.5730   -8.8930 C.3   146  TRP146      0.0564
     18  CG       -48.3560    1.2580   -9.3890 C.ar  146  TRP146      0.0003
     19  CD1      -49.3440    0.6210   -8.6930 C.ar  146  TRP146      0.0946
     20  CD2      -48.8910    1.5130  -10.6970 C.ar  146  TRP146      0.0152
     21  NE1      -50.4650    0.4830   -9.4770 N.ar  146  TRP146     -0.2442
     22  CE2      -50.2140    1.0220  -10.7100 C.ar  146  TRP146      0.0810
     23  CE3      -48.3830    2.1120  -11.8550 C.ar  146  TRP146      0.0012
     24  CZ2      -51.0370    1.1210  -11.8310 C.ar  146  TRP146      0.0191
     25  CZ3      -49.2000    2.2120  -12.9640 C.ar  146  TRP146      0.0001
     26  CH2      -50.5140    1.7200  -12.9440 C.ar  146  TRP146      0.0015
     27  N        -47.6150    4.6930  -10.1170 N.am  147  ALA147     -0.1980
     28  CA       -47.5780    5.6090  -11.2540 C.3   147  ALA147      0.1597
     29  C        -46.4330    6.6100  -11.1570 C.2   147  ALA147      0.2287
     30  O        -46.0730    7.2290  -12.1650 O.2   147  ALA147     -0.2864
     31  CB       -48.9100    6.3550  -11.3720 C.3   147  ALA147      0.0319
     32  N        -43.4330    5.5440  -10.2650 N.3   149  ASN149     -0.1225
     33  CA       -42.2440    4.7010  -10.2660 C.3   149  ASN149      0.1785
     34  C        -41.8260    4.2240  -11.6530 C.2   149  ASN149      0.2597
     35  O        -40.9790    3.3280  -11.7520 O.2   149  ASN149     -0.2718
     36  CB       -42.4620    3.4970   -9.3430 C.3   149  ASN149      0.1169
     37  CG       -42.5600    3.8980   -7.8830 C.2   149  ASN149      0.2627
     38  OD1      -41.9950    4.9100   -7.4680 O.2   149  ASN149     -0.2716
     39  ND2      -43.2730    3.0980   -7.0900 N.am  149  ASN149     -0.0877
     40  N        -42.3610    4.8180  -12.7240 N.am  150  GLY150     -0.1957
     41  CA       -42.0120    4.3830  -14.0680 C.3   150  GLY150      0.1869
     42  C        -40.5560    4.5850  -14.4430 C.2   150  GLY150      0.2309
     43  O        -40.0650    3.9200  -15.3630 O.2   150  GLY150     -0.2863
     44  N        -38.0700    4.4190  -11.9450 N.3   152  THR152     -0.1203
     45  CA       -37.2460    3.8760  -10.8700 C.3   152  THR152      0.1994
     46  C        -36.4610    2.6580  -11.3350 C.2   152  THR152      0.2617
     47  O        -36.9410    1.8480  -12.1360 O.2   152  THR152     -0.2717
     48  CB       -38.0940    3.4940   -9.6480 C.3   152  THR152      0.1784
     49  OG1      -39.0610    2.5020  -10.0180 O.3   152  THR152     -0.2211
     50  CG2      -38.7910    4.7120   -9.0660 C.3   152  THR152      0.0376
     51  N        -35.2390    2.5290  -10.8220 N.am  153  LEU153     -0.1979
     52  CA       -34.4210    1.3430  -11.0570 C.3   153  LEU153      0.1596
     53  C        -33.6350    1.0730   -9.7840 C.2   153  LEU153      0.2287
     54  O        -32.8760    1.9340   -9.3280 O.2   153  LEU153     -0.2864
     55  CB       -33.4840    1.5340  -12.2630 C.3   153  LEU153      0.0297
     56  CG       -32.5010    0.3760  -12.5290 C.3   153  LEU153      0.0022
     57  CD1      -33.2360   -0.9500  -12.7420 C.3   153  LEU153      0.0001
     58  CD2      -31.6050    0.6930  -13.7360 C.3   153  LEU153      0.0001
     59  N        -30.0540   -4.2450  -17.9590 N.3   191  TYR191     -0.1241
     60  CA       -29.3870   -3.3180  -17.0450 C.3   191  TYR191      0.1605
     61  C        -28.2150   -4.0290  -16.3900 C.2   191  TYR191      0.2264
     62  O        -28.3100   -5.2040  -16.0300 O.2   191  TYR191     -0.2867
     63  CB       -30.3200   -2.8060  -15.9420 C.3   191  TYR191      0.0534
     64  CG       -31.5690   -2.1300  -16.4550 C.ar  191  TYR191     -0.0201
     65  CD1      -31.4800   -0.9690  -17.2200 C.ar  191  TYR191     -0.0009
     66  CD2      -32.8230   -2.6530  -16.1690 C.ar  191  TYR191     -0.0009
     67  CE1      -32.6300   -0.3380  -17.6980 C.ar  191  TYR191      0.0417
     68  CE2      -33.9730   -2.0440  -16.6250 C.ar  191  TYR191      0.0417
     69  CZ       -33.8690   -0.8900  -17.3960 C.ar  191  TYR191      0.1957
     70  OH       -35.0110   -0.2890  -17.8640 O.3   191  TYR191     -0.2866
     71  N        -38.2830   -4.9270  -17.6340 N.3   221  TYR221     -0.1227
     72  CA       -38.3760   -4.1850  -16.3760 C.3   221  TYR221      0.1736
     73  C        -38.4510   -5.1240  -15.1820 C.2   221  TYR221      0.2596
     74  O        -37.9980   -4.7750  -14.0840 O.2   221  TYR221     -0.2718
     75  CB       -39.6050   -3.2700  -16.3800 C.3   221  TYR221      0.0548
     76  CG       -39.4650   -2.0090  -17.2050 C.ar  221  TYR221     -0.0200
     77  CD1      -38.3370   -1.7770  -17.9970 C.ar  221  TYR221     -0.0009
     78  CD2      -40.4570   -1.0450  -17.1850 C.ar  221  TYR221     -0.0009
     79  CE1      -38.2170   -0.6090  -18.7580 C.ar  221  TYR221      0.0417
     80  CE2      -40.3420    0.1190  -17.9250 C.ar  221  TYR221      0.0417
     81  CZ       -39.2220    0.3340  -18.7080 C.ar  221  TYR221      0.1957
     82  OH       -39.1200    1.5060  -19.4350 O.3   221  TYR221     -0.2866
     83  N        -39.0280   -6.3000  -15.3780 N.am  222  GLY222     -0.1942
     84  CA       -39.1970   -7.2590  -14.3120 C.3   222  GLY222      0.2014
     85  C        -40.1330   -8.3530  -14.7790 C.2   222  GLY222      0.2639
     86  O        -40.5300   -8.3910  -15.9470 O.2   222  GLY222     -0.2714
     87  N        -40.4840   -9.2400  -13.8370 N.am  223  TYR223     -0.1959
     88  CA       -41.3620  -10.3630  -14.1300 C.3   223  TYR223      0.1771
     89  C        -42.4380  -10.5510  -13.0610 C.2   223  TYR223      0.2619
     90  O        -43.1950  -11.5310  -13.1340 O.2   223  TYR223     -0.2715
     91  CB       -40.5230  -11.6480  -14.3100 C.3   223  TYR223      0.0574
     92  CG       -39.5890  -11.5510  -15.5050 C.ar  223  TYR223     -0.0198
     93  CD1      -38.3590  -10.8950  -15.4080 C.ar  223  TYR223     -0.0009
     94  CD2      -39.9520  -12.0790  -16.7430 C.ar  223  TYR223     -0.0009
     95  CE1      -37.5160  -10.7740  -16.5080 C.ar  223  TYR223      0.0417
     96  CE2      -39.1040  -11.9660  -17.8520 C.ar  223  TYR223      0.0417
     97  CZ       -37.8900  -11.3170  -17.7250 C.ar  223  TYR223      0.1957
     98  OH       -37.0460  -11.2000  -18.8200 O.3   223  TYR223     -0.2866
     99  N        -42.5450   -9.6440  -12.0860 N.am  224  ASP224     -0.1971
    100  CA       -43.5820   -9.7550  -11.0640 C.3   224  ASP224      0.1709
    101  C        -44.9420   -9.3800  -11.6410 C.2   224  ASP224      0.2293
    102  O        -45.0490   -8.7650  -12.7020 O.2   224  ASP224     -0.2864
    103  CB       -43.2780   -8.8460   -9.8720 C.3   224  ASP224      0.1436
    104  CG       -41.9130   -9.1020   -9.2730 C.2   224  ASP224      0.3671
    105  OD1      -41.6390  -10.2520   -8.8730 O.co2 224  ASP224     -0.2456
    106  OD2      -41.1080   -8.1480   -9.2180 O.co2 224  ASP224     -0.2456
    107  N        -46.9230   -7.1790  -10.3930 N.3   226  SER226     -0.1203
    108  CA       -47.1610   -5.7560  -10.2020 C.3   226  SER226      0.2005
    109  C        -45.8610   -5.0400   -9.8700 C.2   226  SER226      0.2461
    110  O        -44.9750   -5.6140   -9.2230 O.2   226  SER226     -0.2732
    111  CB       -48.1820   -5.4970   -9.0790 C.3   226  SER226      0.2103
    112  OG       -47.5800   -5.6690   -7.8100 O.3   226  SER226     -0.2182
    113  N        -45.7260   -3.7830  -10.2890 N.am  227  PRO227     -0.2718
    114  CA       -44.5150   -3.0170   -9.9980 C.3   227  PRO227      0.1520
    115  C        -44.5090   -2.5400   -8.5570 C.2   227  PRO227      0.2440
    116  O        -45.5440   -2.5970   -7.8760 O.2   227  PRO227     -0.2731
    117  CB       -44.6160   -1.8370  -10.9770 C.3   227  PRO227      0.0310
    118  CG       -46.0800   -1.6260  -11.1300 C.3   227  PRO227      0.0237
    119  CD       -46.6800   -3.0110  -11.1060 C.3   227  PRO227      0.0939
    120  N        -43.3720   -2.0530   -8.0570 N.am  228  PRO228     -0.2727
    121  CA       -43.3490   -1.5050   -6.6970 C.3   228  PRO228      0.1402
    122  C        -44.2330   -0.2750   -6.5970 C.2   228  PRO228      0.2269
    123  O        -44.3830    0.4830   -7.5550 O.2   228  PRO228     -0.2865
    124  CB       -41.8750   -1.1450   -6.4850 C.3   228  PRO228      0.0296
    125  CG       -41.3740   -0.8710   -7.8600 C.3   228  PRO228      0.0237
    126  CD       -42.0760   -1.8740   -8.7360 C.3   228  PRO228      0.0939
    127  N        -49.8840   -1.2100  -14.4790 N.3   233  PRO233     -0.2116
    128  CA       -50.4950   -0.6000  -15.6650 C.3   233  PRO233      0.1372
    129  C        -50.9070   -1.6780  -16.6530 C.2   233  PRO233      0.2244
    130  O        -50.3150   -2.7590  -16.7080 O.2   233  PRO233     -0.2868
    131  CB       -49.3790    0.2890  -16.2280 C.3   233  PRO233      0.0268
    132  CG       -48.1200   -0.3450  -15.7400 C.3   233  PRO233      0.0207
    133  CD       -48.4500   -0.8830  -14.3710 C.3   233  PRO233      0.0892
    134  N        -50.7360   -1.8870  -19.9180 N.3   235  TRP235     -0.1227
    135  CA       -49.8140   -2.2720  -20.9820 C.3   235  TRP235      0.1737
    136  C        -48.9170   -3.4030  -20.5180 C.2   235  TRP235      0.2595
    137  O        -48.6010   -4.3110  -21.2940 O.2   235  TRP235     -0.2718
    138  CB       -48.9710   -1.0840  -21.4550 C.3   235  TRP235      0.0564
    139  CG       -48.0530   -0.4900  -20.4230 C.ar  235  TRP235      0.0003
    140  CD1      -48.2940    0.6140  -19.6610 C.ar  235  TRP235      0.0946
    141  CD2      -46.7370   -0.9440  -20.0640 C.ar  235  TRP235      0.0152
    142  NE1      -47.2200    0.8740  -18.8440 N.ar  235  TRP235     -0.2442
    143  CE2      -46.2520   -0.0710  -19.0670 C.ar  235  TRP235      0.0810
    144  CE3      -45.9300   -2.0120  -20.4780 C.ar  235  TRP235      0.0012
    145  CZ2      -44.9980   -0.2300  -18.4770 C.ar  235  TRP235      0.0191
    146  CZ3      -44.6840   -2.1640  -19.8940 C.ar  235  TRP235      0.0001
    147  CH2      -44.2320   -1.2810  -18.9070 C.ar  235  TRP235      0.0015
    148  N        -48.5280   -3.3760  -19.2400 N.am  236  TYR236     -0.1976
    149  CA       -47.6760   -4.4140  -18.6780 C.3   236  TYR236      0.1639
    150  C        -48.4630   -5.6970  -18.4260 C.2   236  TYR236      0.2290
    151  O        -47.9630   -6.7930  -18.7030 O.2   236  TYR236     -0.2864
    152  CB       -47.0130   -3.9040  -17.3930 C.3   236  TYR236      0.0560
    153  CG       -46.1210   -4.9310  -16.7380 C.ar  236  TYR236     -0.0198
    154  CD1      -44.8540   -5.1960  -17.2380 C.ar  236  TYR236     -0.0009
    155  CD2      -46.5570   -5.6520  -15.6320 C.ar  236  TYR236     -0.0009
    156  CE1      -44.0410   -6.1540  -16.6470 C.ar  236  TYR236      0.0417
    157  CE2      -45.7540   -6.6000  -15.0340 C.ar  236  TYR236      0.0417
    158  CZ       -44.4990   -6.8530  -15.5530 C.ar  236  TYR236      0.1957
    159  OH       -43.7000   -7.7980  -14.9520 O.3   236  TYR236     -0.2866
@<TRIPOS>BOND
     1   138   135    1
     2   138   139    1
     3   137   136    2
     4   135   136    1
     5   135   134    1
     6   136   148   am
     7   144   141   ar
     8   144   146   ar
     9   139   141   ar
    10   139   140   ar
    11   141   143   ar
    12   146   147   ar
    13   140   142   ar
    14    82    81    1
    15   148   149    1
    16   143   142   ar
    17   143   145   ar
    18   147   145   ar
    19    98    97    1
    20    79    81   ar
    21    79    77   ar
    22    81    80   ar
    23   151   150    2
    24   149   150    1
    25   149   152    1
    26    77    76   ar
    27    59    60    1
    28    80    78   ar
    29    70    69    1
    30    96    97   ar
    31    96    94   ar
    32    97    95   ar
    33    67    69   ar
    34    67    65   ar
    35    71    72    1
    36    69    68   ar
    37   152   153    1
    38   154   153   ar
    39   154   156   ar
    40    65    64   ar
    41    76    78   ar
    42    76    75    1
    43    60    61    1
    44    60    63    1
    45    94    92   ar
    46   153   155   ar
    47     1     2    1
    48   130   129    2
    49   129   128    1
    50   156   158   ar
    51    68    66   ar
    52    95    93   ar
    53    64    66   ar
    54    64    63    1
    55    61    62    2
    56    75    72    1
    57    72    73    1
    58     8    10   ar
    59     8     6   ar
    60   131   132    1
    61   131   128    1
    62    10    11   ar
    63     2     5    1
    64     2     3    1
    65    86    85    2
    66   132   133    1
    67     5     6    1
    68   128   127    1
    69   155   157   ar
    70   158   157   ar
    71   158   159    1
    72    92    93   ar
    73    92    91    1
    74     6     7   ar
    75    83    73   am
    76    83    84    1
    77    43    42    2
    78    73    74    2
    79    11    12    1
    80    11     9   ar
    81    85    84    1
    82    85    87   am
    83     3     4    2
    84     7     9   ar
    85   127   133    1
    86    42    41    1
    87    91    88    1
    88    88    87    1
    89    88    89    1
    90    41    40    1
    91    58    56    1
    92    90    89    2
    93    89    99   am
    94    25    26   ar
    95    25    23   ar
    96    26    24   ar
    97    57    56    1
    98    40    34   am
    99   102   101    2
   100    56    55    1
   101    55    52    1
   102    30    29    2
   103    47    46    2
   104    99   100    1
   105    44    45    1
   106    23    20   ar
   107    24    22   ar
   108    35    34    2
   109    34    33    1
   110   101   100    1
   111    31    28    1
   112    46    45    1
   113    46    51   am
   114    28    29    1
   115    28    27    1
   116   118   119    1
   117   118   117    1
   118   119   113    1
   119   100   103    1
   120    52    51    1
   121    52    53    1
   122   117   114    1
   123    45    48    1
   124    22    20   ar
   125    22    21   ar
   126    20    18   ar
   127    16    15    2
   128   107   108    1
   129   113   114    1
   130   113   109   am
   131    33    32    1
   132    33    36    1
   133   108   109    1
   134   108   111    1
   135    27    15   am
   136    49    48    1
   137   114   115    1
   138    15    14    1
   139   103   104    1
   140   109   110    2
   141    53    54    2
   142    48    50    1
   143    21    19   ar
   144    18    17    1
   145    18    19   ar
   146    36    37    1
   147   104   106   ar
   148   104   105   ar
   149   111   112    1
   150    17    14    1
   151   126   120    1
   152   126   125    1
   153    14    13    1
   154   115   120   am
   155   115   116    2
   156   120   121    1
   157    37    38    2
   158    37    39   am
   159   125   124    1
   160   123   122    2
   161   121   122    1
   162   121   124    1
