@<TRIPOS>MOLECULE
tmp/5yluA00.pdb
 157 147 0 0 0
SMALL
GASTEIGER

@<TRIPOS>ATOM
      1  N         46.4900  -25.8520   -1.7190 N.3    73  CYS73      -0.1235
      2  CA        47.3530  -25.5550   -2.8560 C.3    73  CYS73       0.1677
      3  C         47.5200  -26.7580   -3.7670 C.2    73  CYS73       0.2270
      4  O         47.4900  -26.6100   -4.9920 O.2    73  CYS73      -0.2867
      5  CB        48.7180  -25.0690   -2.3840 C.3    73  CYS73       0.0956
      6  SG        48.7100  -23.3330   -1.9750 S.3    73  CYS73      -0.0801
      7  N         52.1920  -22.2140   -9.7680 N.3    90  ASP90      -0.1225
      8  CA        52.5230  -21.4080   -8.6000 C.3    90  ASP90       0.1805
      9  C         52.1980  -22.1640   -7.3060 C.2    90  ASP90       0.2597
     10  O         52.9460  -22.0860   -6.3220 O.2    90  ASP90      -0.2718
     11  CB        51.7780  -20.0640   -8.6330 C.3    90  ASP90       0.1424
     12  CG        52.4540  -19.0090   -9.5120 C.2    90  ASP90       0.3668
     13  OD1       53.6200  -19.1950   -9.9210 O.co2  90  ASP90      -0.2456
     14  OD2       51.8160  -17.9830   -9.8060 O.co2  90  ASP90      -0.2456
     15  N         51.1130  -22.9420   -7.3060 N.am   91  ASN91      -0.1974
     16  CA        50.6820  -23.5800   -6.0770 C.3    91  ASN91       0.1688
     17  C         51.6720  -24.6680   -5.6500 C.2    91  ASN91       0.2292
     18  O         51.7730  -24.9880   -4.4570 O.2    91  ASN91      -0.2864
     19  CB        49.2760  -24.1520   -6.2270 C.3    91  ASN91       0.1181
     20  CG        48.2730  -23.1540   -6.7710 C.2    91  ASN91       0.2629
     21  OD1       48.6470  -22.2930   -7.5720 O.2    91  ASN91      -0.2716
     22  ND2       47.0030  -23.2600   -6.3550 N.am   91  ASN91      -0.0877
     23  N         54.2320  -22.4350   -3.7000 N.3    94  LEU94      -0.1245
     24  CA        53.7090  -21.9490   -2.4300 C.3    94  LEU94       0.1561
     25  C         53.5200  -23.0890   -1.4330 C.2    94  LEU94       0.2260
     26  O         53.9440  -22.9870   -0.2740 O.2    94  LEU94      -0.2867
     27  CB        52.3830  -21.2330   -2.6690 C.3    94  LEU94       0.0270
     28  CG        51.8450  -20.4670   -1.4610 C.3    94  LEU94       0.0019
     29  CD1       52.6250  -19.1640   -1.2930 C.3    94  LEU94       0.0001
     30  CD2       50.3870  -20.1980   -1.7250 C.3    94  LEU94       0.0001
     31  N         42.6960  -19.7070   -4.0690 N.3   288  ALA288     -0.1245
     32  CA        43.8780  -18.8520   -4.0030 C.3   288  ALA288      0.1562
     33  C         43.7270  -17.7640   -2.9470 C.2   288  ALA288      0.2260
     34  O         44.6930  -17.4280   -2.2650 O.2   288  ALA288     -0.2867
     35  CB        44.1580  -18.2330   -5.3670 C.3   288  ALA288      0.0290
     36  N         43.9920  -19.2780    0.6110 N.3   291  VAL291     -0.1231
     37  CA        45.4070  -19.4800    0.9400 C.3   291  VAL291      0.1692
     38  C         46.1450  -18.1520    1.0810 C.2   291  VAL291      0.2591
     39  O         47.1230  -18.0440    1.8330 O.2   291  VAL291     -0.2718
     40  CB        46.0710  -20.3740   -0.1220 C.3   291  VAL291      0.0266
     41  CG1       47.5580  -20.4470    0.1190 C.3   291  VAL291      0.0020
     42  CG2       45.4630  -21.7590   -0.0900 C.3   291  VAL291      0.0020
     43  N         45.6960  -17.1250    0.3720 N.am  292  ALA292     -0.1980
     44  CA        46.4190  -15.8700    0.3710 C.3   292  ALA292      0.1597
     45  C         46.3430  -15.1700    1.7100 C.2   292  ALA292      0.2287
     46  O         47.1640  -14.2850    1.9780 O.2   292  ALA292     -0.2864
     47  CB        45.8860  -14.9630   -0.7320 C.3   292  ALA292      0.0319
     48  N         47.0340  -16.6060    4.5550 N.3   294  VAL294     -0.1231
     49  CA        47.8720  -17.3510    5.5000 C.3   294  VAL294      0.1678
     50  C         49.2980  -16.8320    5.3930 C.2   294  VAL294      0.2434
     51  O         49.9990  -17.1710    4.4240 O.2   294  VAL294     -0.2733
     52  CB        47.8390  -18.8540    5.1920 C.3   294  VAL294      0.0265
     53  CG1       48.9680  -19.5650    5.9290 C.3   294  VAL294      0.0020
     54  CG2       46.4950  -19.4370    5.5220 C.3   294  VAL294      0.0020
     55  N         49.8060  -16.0740    6.3700 N.am  295  PRO295     -0.2718
     56  CA        51.1860  -15.5860    6.2590 C.3   295  PRO295      0.1535
     57  C         52.1580  -16.7480    6.1650 C.2   295  PRO295      0.2598
     58  O         51.9220  -17.8290    6.6970 O.2   295  PRO295     -0.2715
     59  CB        51.3920  -14.7830    7.5420 C.3   295  PRO295      0.0310
     60  CG        50.4020  -15.3470    8.4950 C.3   295  PRO295      0.0237
     61  CD        49.2080  -15.7390    7.6730 C.3   295  PRO295      0.0939
     62  N         53.2450  -16.5270    5.4460 N.am  296  GLU296     -0.1978
     63  CA        54.1870  -17.5940    5.1640 C.3   296  GLU296      0.1602
     64  C         55.3780  -17.5840    6.1030 C.2   296  GLU296      0.2287
     65  O         55.9820  -18.6400    6.3300 O.2   296  GLU296     -0.2864
     66  CB        54.6840  -17.4900    3.7100 C.3   296  GLU296      0.0415
     67  CG        53.8580  -18.2860    2.6810 C.3   296  GLU296      0.1163
     68  CD        52.6650  -17.5090    2.1140 C.2   296  GLU296      0.3649
     69  OE1       52.8140  -16.2820    1.8820 O.co2 296  GLU296     -0.2457
     70  OE2       51.5880  -18.1270    1.8970 O.co2 296  GLU296     -0.2457
     71  N         50.0920   -8.4990    3.8370 N.3   744  ASN744     -0.1240
     72  CA        49.3020   -9.5160    3.1520 C.3   744  ASN744      0.1653
     73  C         48.1790   -8.9150    2.3240 C.2   744  ASN744      0.2266
     74  O         47.7150   -9.5660    1.3880 O.2   744  ASN744     -0.2867
     75  CB        48.7430  -10.5420    4.1410 C.3   744  ASN744      0.1155
     76  CG        49.8480  -11.3600    4.8520 C.2   744  ASN744      0.2627
     77  OD1       49.5940  -11.9730    5.9050 O.2   744  ASN744     -0.2716
     78  ND2       51.0660  -11.3680    4.2830 N.am  744  ASN744     -0.0877
     79  N         49.7410   -7.7950   -1.0190 N.3   747  GLU747     -0.1231
     80  CA        50.1920   -8.9380   -1.7360 C.3   747  GLU747      0.1699
     81  C         49.0130   -9.5870   -2.4240 C.2   747  GLU747      0.2592
     82  O         49.1770  -10.3070   -3.3570 O.2   747  GLU747     -0.2718
     83  CB        50.7820   -9.9200   -0.7420 C.3   747  GLU747      0.0402
     84  CG        52.2840  -10.0470   -0.7610 C.3   747  GLU747      0.1161
     85  CD        52.8540  -10.3510    0.5820 C.2   747  GLU747      0.3649
     86  OE1       52.0990  -10.6630    1.4690 O.co2 747  GLU747     -0.2457
     87  OE2       54.0440  -10.2620    0.7620 O.co2 747  GLU747     -0.2457
     88  N         47.8120   -9.2410   -2.0140 N.am  748  LEU748     -0.1980
     89  CA        46.5920   -9.8800   -2.4810 C.3   748  LEU748      0.1596
     90  C         45.7520   -8.9860   -3.3820 C.2   748  LEU748      0.2287
     91  O         45.2100   -9.4680   -4.3760 O.2   748  LEU748     -0.2864
     92  CB        45.7500  -10.3310   -1.2840 C.3   748  LEU748      0.0297
     93  CG        44.3030  -10.7330   -1.5370 C.3   748  LEU748      0.0022
     94  CD1       44.2500  -11.9400   -2.4420 C.3   748  LEU748      0.0001
     95  CD2       43.6160  -11.0030   -0.2290 C.3   748  LEU748      0.0001
     96  N         46.5990   -7.0780   -5.7570 N.3   750  PRO750     -0.2102
     97  CA        46.9260   -7.3080   -7.1730 C.3   750  PRO750      0.1504
     98  C         46.1380   -8.4680   -7.7430 C.2   750  PRO750      0.2575
     99  O         45.4570   -8.2960   -8.7550 O.2   750  PRO750     -0.2718
    100  CB        48.4390   -7.5770   -7.1610 C.3   750  PRO750      0.0282
    101  CG        48.9500   -6.8760   -6.0260 C.3   750  PRO750      0.0208
    102  CD        47.8320   -6.8850   -4.9680 C.3   750  PRO750      0.0893
    103  N         46.1650   -9.6310   -7.0930 N.am  751  TYR751     -0.1977
    104  CA        45.4430  -10.7750   -7.6310 C.3   751  TYR751      0.1639
    105  C         43.9330  -10.5250   -7.6460 C.2   751  TYR751      0.2290
    106  O         43.2610  -10.8900   -8.6120 O.2   751  TYR751     -0.2864
    107  CB        45.8170  -12.0340   -6.8460 C.3   751  TYR751      0.0560
    108  CG        45.2470  -13.3270   -7.3570 C.ar  751  TYR751     -0.0198
    109  CD1       45.9750  -14.1290   -8.2170 C.ar  751  TYR751     -0.0009
    110  CD2       43.9790  -13.7550   -6.9660 C.ar  751  TYR751     -0.0009
    111  CE1       45.4590  -15.3260   -8.6840 C.ar  751  TYR751      0.0417
    112  CE2       43.4440  -14.9490   -7.4260 C.ar  751  TYR751      0.0417
    113  CZ        44.1910  -15.7360   -8.2830 C.ar  751  TYR751      0.1957
    114  OH        43.6840  -16.9380   -8.7370 O.3   751  TYR751     -0.2866
    115  N         49.2080   -9.0840  -14.6970 N.3   761  LEU761     -0.1245
    116  CA        49.4370   -9.4800  -13.3010 C.3   761  LEU761      0.1561
    117  C         50.4080   -8.5360  -12.6020 C.2   761  LEU761      0.2260
    118  O         51.5940   -8.4860  -12.9730 O.2   761  LEU761     -0.2867
    119  CB        49.9440  -10.9230  -13.2400 C.3   761  LEU761      0.0270
    120  CG        50.4180  -11.4680  -11.8980 C.3   761  LEU761      0.0019
    121  CD1       49.2670  -11.9900  -11.0880 C.3   761  LEU761      0.0001
    122  CD2       51.3550  -12.5750  -12.2010 C.3   761  LEU761      0.0001
    123  N         51.7390   -8.4560   -9.4470 N.3   763  LEU763     -0.1231
    124  CA        52.6980   -9.0190   -8.4980 C.3   763  LEU763      0.1693
    125  C         52.6930  -10.5400   -8.5970 C.2   763  LEU763      0.2593
    126  O         51.6260  -11.1640   -8.6350 O.2   763  LEU763     -0.2718
    127  CB        52.3580   -8.5720   -7.0750 C.3   763  LEU763      0.0284
    128  CG        53.3540   -8.9650   -6.0010 C.3   763  LEU763      0.0019
    129  CD1       54.6990   -8.2420   -6.1800 C.3   763  LEU763      0.0001
    130  CD2       52.7180   -8.6540   -4.6700 C.3   763  LEU763      0.0001
    131  N         53.8900  -11.1350   -8.6450 N.am  764  GLY764     -0.1942
    132  CA        54.0020  -12.5590   -8.8520 C.3   764  GLY764      0.2014
    133  C         54.0790  -13.3400   -7.5660 C.2   764  GLY764      0.2639
    134  O         54.3140  -12.7780   -6.4990 O.2   764  GLY764     -0.2714
    135  N         53.8660  -14.6540   -7.6810 N.am  765  CYS765     -0.1967
    136  CA        54.1090  -15.5410   -6.5450 C.3   765  CYS765      0.1712
    137  C         55.5950  -15.5780   -6.1920 C.2   765  CYS765      0.2296
    138  O         55.9820  -15.3530   -5.0380 O.2   765  CYS765     -0.2864
    139  CB        53.5780  -16.9420   -6.8550 C.3   765  CYS765      0.0983
    140  SG        54.3160  -18.3310   -5.9410 S.3   765  CYS765     -0.0798
    141  N         56.3180  -12.5710   -4.1150 N.3   768  ILE768     -0.1245
    142  CA        55.6300  -12.5830   -2.8260 C.3   768  ILE768      0.1561
    143  C         56.3890  -13.4480   -1.8360 C.2   768  ILE768      0.2260
    144  O         56.5090  -13.1100   -0.6550 O.2   768  ILE768     -0.2867
    145  CB        54.1840  -13.0670   -3.0070 C.3   768  ILE768      0.0252
    146  CG1       53.3170  -11.9010   -3.4710 C.3   768  ILE768      0.0019
    147  CG2       53.6710  -13.7350   -1.7300 C.3   768  ILE768      0.0019
    148  CD1       51.8810  -12.2660   -3.7300 C.3   768  ILE768      0.0001
    149  N         57.6990  -12.2380    1.8460 N.3   772  GLU772     -0.1245
    150  CA        57.3570  -13.0180    3.0370 C.3   772  GLU772      0.1567
    151  C         58.5220  -13.7230    3.7540 C.2   772  GLU772      0.2260
    152  O         58.5810  -13.7170    4.9830 O.2   772  GLU772     -0.2867
    153  CB        56.2660  -14.0400    2.7010 C.3   772  GLU772      0.0388
    154  CG        54.9350  -13.4210    2.3090 C.3   772  GLU772      0.1160
    155  CD        54.3720  -12.5170    3.3880 C.2   772  GLU772      0.3649
    156  OE1       54.4800  -12.8740    4.5800 O.co2 772  GLU772     -0.2457
    157  OE2       53.8230  -11.4490    3.0450 O.co2 772  GLU772     -0.2457
@<TRIPOS>BOND
     1   115   116    1
     2   116   119    1
     3   116   117    1
     4   119   120    1
     5   118   117    2
     6   122   120    1
     7   120   121    1
     8    13    12   ar
     9    14    12   ar
    10     7     8    1
    11    12    11    1
    12   123   124    1
    13   132   131    1
    14   132   133    1
    15    99    98    2
    16   114   113    1
    17   111   113   ar
    18   111   109   ar
    19   131   125   am
    20   126   125    2
    21    11     8    1
    22   106   105    2
    23     8     9    1
    24   125   124    1
    25   124   127    1
    26   113   112   ar
    27   109   108   ar
    28    98    97    1
    29    98   103   am
    30   135   133   am
    31   135   136    1
    32   105   104    1
    33   104   103    1
    34   104   107    1
    35    21    20    2
    36   133   134    2
    37   112   110   ar
    38   108   110   ar
    39   108   107    1
    40    15     9   am
    41    15    16    1
    42     9    10    2
    43    97   100    1
    44    97    96    1
    45   100   101    1
    46   127   128    1
    47   139   136    1
    48   139   140    1
    49    20    22   am
    50    20    19    1
    51   136   137    1
    52    19    16    1
    53   137   138    2
    54   129   128    1
    55    16    17    1
    56   101   102    1
    57   128   130    1
    58    96   102    1
    59    17    18    2
    60    35    32    1
    61     4     3    2
    62    91    90    2
    63   141   142    1
    64    31    32    1
    65    32    33    1
    66     3     2    1
    67   148   146    1
    68    23    24    1
    69   146   145    1
    70    90    89    1
    71    82    81    2
    72   145   142    1
    73   145   147    1
    74    33    34    2
    75     2     5    1
    76     2     1    1
    77   142   143    1
    78    27    24    1
    79    27    28    1
    80    89    88    1
    81    89    92    1
    82    94    93    1
    83    24    25    1
    84    81    88   am
    85    81    80    1
    86     5     6    1
    87   143   144    2
    88    80    79    1
    89    80    83    1
    90    30    28    1
    91    93    92    1
    92    93    95    1
    93    28    29    1
    94    25    26    2
    95    84    83    1
    96    84    85    1
    97    47    44    1
    98    40    42    1
    99    40    41    1
   100    40    37    1
   101    44    43    1
   102    44    45    1
   103    43    38   am
   104    85    87   ar
   105    85    86   ar
   106    36    37    1
   107    37    38    1
   108    38    39    2
   109    74    73    2
   110    45    46    2
   111   149   150    1
   112    69    68   ar
   113    70    68   ar
   114    68    67    1
   115   154   153    1
   116   154   155    1
   117    73    72    1
   118    67    66    1
   119   153   150    1
   120   150   151    1
   121   157   155   ar
   122    72    71    1
   123    72    75    1
   124   155   156   ar
   125    66    63    1
   126   151   152    2
   127    75    76    1
   128    78    76   am
   129    51    50    2
   130    48    49    1
   131    76    77    2
   132    63    62    1
   133    63    64    1
   134    52    49    1
   135    52    54    1
   136    52    53    1
   137    50    49    1
   138    50    55   am
   139    62    57   am
   140    64    65    2
   141    57    56    1
   142    57    58    2
   143    56    55    1
   144    56    59    1
   145    55    61    1
   146    59    60    1
   147    61    60    1
