@<TRIPOS>MOLECULE
tmp/5yluA02.pdb
 167 158 0 0 0
SMALL
GASTEIGER

@<TRIPOS>ATOM
      1  N         51.6570  -24.6230  -17.3950 N.3    87  THR87      -0.1203
      2  CA        52.8990  -24.9000  -16.6850 C.3    87  THR87       0.1994
      3  C         53.2030  -23.7960  -15.6750 C.2    87  THR87       0.2618
      4  O         54.3580  -23.6240  -15.2610 O.2    87  THR87      -0.2717
      5  CB        54.0580  -25.0840  -17.6670 C.3    87  THR87       0.1784
      6  OG1       53.9090  -24.1690  -18.7600 O.3    87  THR87      -0.2211
      7  CG2       54.0740  -26.5070  -18.2260 C.3    87  THR87       0.0376
      8  N         52.1700  -23.0490  -15.2780 N.am   88  THR88      -0.1952
      9  CA        52.3190  -22.0020  -14.2750 C.3    88  THR88       0.1897
     10  C         52.8050  -22.5630  -12.9390 C.2    88  THR88       0.2313
     11  O         53.7900  -22.0670  -12.3820 O.2    88  THR88      -0.2863
     12  CB        50.9720  -21.2860  -14.1100 C.3    88  THR88       0.1794
     13  OG1       50.2030  -21.9580  -13.1180 O.3    88  THR88      -0.2208
     14  CG2       50.2110  -21.3150  -15.4290 C.3    88  THR88       0.0378
     15  N         54.9810  -24.2140   -5.8950 N.3    93  TYR93      -0.1241
     16  CA        55.9380  -23.3720   -5.1850 C.3    93  TYR93       0.1605
     17  C         55.4460  -23.0040   -3.7860 C.2    93  TYR93       0.2264
     18  O         56.1700  -23.1930   -2.7930 O.2    93  TYR93      -0.2867
     19  CB        56.1900  -22.0970   -5.9960 C.3    93  TYR93       0.0534
     20  CG        57.1070  -22.2940   -7.1760 C.ar   93  TYR93      -0.0201
     21  CD1       58.3120  -22.9480   -7.0170 C.ar   93  TYR93      -0.0009
     22  CD2       56.7680  -21.8450   -8.4490 C.ar   93  TYR93      -0.0009
     23  CE1       59.1700  -23.1580   -8.0790 C.ar   93  TYR93       0.0417
     24  CE2       57.6260  -22.0450   -9.5290 C.ar   93  TYR93       0.0417
     25  CZ        58.8310  -22.7070   -9.3310 C.ar   93  TYR93       0.1957
     26  OH        59.7150  -22.9330  -10.3640 O.3    93  TYR93      -0.2866
     27  N         54.8720  -26.1160   -1.3670 N.3    96  LEU96      -0.1231
     28  CA        56.1520  -26.6430   -0.9230 C.3    96  LEU96       0.1693
     29  C         56.8840  -25.6500   -0.0270 C.2    96  LEU96       0.2591
     30  O         57.6140  -26.0650    0.8830 O.2    96  LEU96      -0.2718
     31  CB        56.9800  -27.0450   -2.1330 C.3    96  LEU96       0.0284
     32  CG        58.4910  -27.1460   -2.0220 C.3    96  LEU96       0.0019
     33  CD1       58.9310  -28.1670   -0.9600 C.3    96  LEU96       0.0001
     34  CD2       58.9760  -27.5750   -3.3880 C.3    96  LEU96       0.0001
     35  N         56.6690  -24.3420   -0.2180 N.am   97  ALA97      -0.1980
     36  CA        57.3010  -23.3680    0.6740 C.3    97  ALA97       0.1597
     37  C         56.6920  -23.4190    2.0720 C.2    97  ALA97       0.2287
     38  O         57.4080  -23.3440    3.0790 O.2    97  ALA97      -0.2864
     39  CB        57.1830  -21.9650    0.0940 C.3    97  ALA97       0.0319
     40  N         57.9590  -26.1570    3.8100 N.3   100  ALA100     -0.1231
     41  CA        59.3460  -25.8380    4.1370 C.3   100  ALA100      0.1694
     42  C         59.4750  -25.0500    5.4480 C.2   100  ALA100      0.2591
     43  O         60.2830  -25.4150    6.3060 O.2   100  ALA100     -0.2718
     44  CB        59.9980  -25.0900    2.9800 C.3   100  ALA100      0.0304
     45  N         58.7240  -23.9490    5.6320 N.am  101  VAL101     -0.1980
     46  CA        58.9230  -23.2210    6.8950 C.3   101  VAL101      0.1595
     47  C         58.4250  -24.0580    8.0690 C.2   101  VAL101      0.2287
     48  O         59.0870  -24.1330    9.1110 O.2   101  VAL101     -0.2864
     49  CB        58.2860  -21.8080    6.9100 C.3   101  VAL101      0.0276
     50  CG1       58.9280  -20.9170    5.9100 C.3   101  VAL101      0.0022
     51  CG2       56.7900  -21.8330    6.7340 C.3   101  VAL101      0.0022
     52  N         61.3090  -26.5940    8.7060 N.3   104  VAL104     -0.1245
     53  CA        62.5540  -26.0200    9.2170 C.3   104  VAL104      0.1561
     54  C         62.3550  -25.4860   10.6320 C.2   104  VAL104      0.2260
     55  O         63.1470  -25.7760   11.5460 O.2   104  VAL104     -0.2867
     56  CB        63.0900  -24.9340    8.2730 C.3   104  VAL104      0.0252
     57  CG1       64.4300  -24.4350    8.7900 C.3   104  VAL104      0.0019
     58  CG2       63.2500  -25.4940    6.8750 C.3   104  VAL104      0.0019
     59  N         57.9140  -18.7460   11.4050 N.3   300  ALA300     -0.1245
     60  CA        59.3580  -18.5900   11.5150 C.3   300  ALA300      0.1562
     61  C         59.7160  -17.4820   12.4890 C.2   300  ALA300      0.2260
     62  O         60.4590  -17.7030   13.4510 O.2   300  ALA300     -0.2867
     63  CB        59.9580  -18.2960   10.1470 C.3   300  ALA300      0.0290
     64  N         56.4450  -15.8170   -7.1790 N.3   766  ILE766     -0.1245
     65  CA        57.8740  -15.9710   -6.9260 C.3   766  ILE766      0.1561
     66  C         58.4540  -14.7850   -6.1670 C.2   766  ILE766      0.2260
     67  O         59.5120  -14.9100   -5.5330 O.2   766  ILE766     -0.2867
     68  CB        58.6500  -16.1630   -8.2410 C.3   766  ILE766      0.0252
     69  CG1       57.8520  -17.0510   -9.2190 C.3   766  ILE766      0.0019
     70  CG2       60.0880  -16.6410   -7.9480 C.3   766  ILE766      0.0019
     71  CD1       57.0770  -16.2590  -10.3360 C.3   766  ILE766      0.0001
     72  N         56.9250  -14.5750   -2.3060 N.3   769  LEU769     -0.1231
     73  CA        57.7980  -15.3790   -1.4570 C.3   769  LEU769      0.1693
     74  C         59.0290  -14.5950   -1.0210 C.2   769  LEU769      0.2592
     75  O         59.4180  -14.6470    0.1480 O.2   769  LEU769     -0.2718
     76  CB        58.2210  -16.6610   -2.1730 C.3   769  LEU769      0.0284
     77  CG        57.1500  -17.7250   -2.4280 C.3   769  LEU769      0.0019
     78  CD1       57.8040  -19.0900   -2.5340 C.3   769  LEU769      0.0001
     79  CD2       56.0800  -17.7020   -1.3540 C.3   769  LEU769      0.0001
     80  N         59.6440  -13.8470   -1.8830 N.am  770  PHE770     -0.1976
     81  CA        60.7760  -13.1200   -1.4140 C.3   770  PHE770      0.1639
     82  C         60.3710  -12.1230   -0.3380 C.2   770  PHE770      0.2290
     83  O         61.1050  -11.8970    0.5710 O.2   770  PHE770     -0.2864
     84  CB        61.5230  -12.4840   -2.5570 C.3   770  PHE770      0.0560
     85  CG        62.5770  -13.3520   -3.1300 C.ar  770  PHE770     -0.0200
     86  CD1       63.7590  -13.5240   -2.4830 C.ar  770  PHE770     -0.0042
     87  CD2       62.3870  -13.9960   -4.3010 C.ar  770  PHE770     -0.0042
     88  CE1       64.7420  -14.3180   -2.9880 C.ar  770  PHE770     -0.0003
     89  CE2       63.3680  -14.8030   -4.8160 C.ar  770  PHE770     -0.0003
     90  CZ        64.5480  -14.9590   -4.1570 C.ar  770  PHE770     -0.0000
     91  N         59.4400  -14.3270    3.0010 N.3   773  LEU773     -0.1231
     92  CA        60.5370  -15.0470    3.5980 C.3   773  LEU773      0.1693
     93  C         61.9260  -14.4910    3.4880 C.2   773  LEU773      0.2592
     94  O         62.8370  -15.1600    3.8660 O.2   773  LEU773     -0.2718
     95  CB        60.6010  -16.4460    3.0260 C.3   773  LEU773      0.0284
     96  CG        59.3310  -17.2500    2.9200 C.3   773  LEU773      0.0019
     97  CD1       59.5540  -18.4670    2.0800 C.3   773  LEU773      0.0001
     98  CD2       58.8710  -17.6270    4.2850 C.3   773  LEU773      0.0001
     99  N         62.1270  -13.3040    2.9570 N.am  774  CYS774     -0.1970
    100  CA        63.4930  -12.8100    2.8230 C.3   774  CYS774      0.1712
    101  C         63.7220  -11.3650    3.2410 C.2   774  CYS774      0.2296
    102  O         64.4710  -11.0770    4.1350 O.2   774  CYS774     -0.2864
    103  CB        63.9580  -13.0660    1.4000 C.3   774  CYS774      0.0983
    104  SG        65.6670  -12.8650    1.0640 S.3   774  CYS774     -0.0798
    105  N         61.7810  -10.5020    6.8750 N.3   777  ILE777     -0.1245
    106  CA        62.0530  -11.3700    8.0270 C.3   777  ILE777      0.1561
    107  C         62.8620  -10.6190    9.0850 C.2   777  ILE777      0.2260
    108  O         62.4370  -10.4620   10.2350 O.2   777  ILE777     -0.2867
    109  CB        62.7800  -12.6500    7.5710 C.3   777  ILE777      0.0252
    110  CG1       61.8090  -13.6110    6.8800 C.3   777  ILE777      0.0019
    111  CG2       63.4220  -13.3490    8.7310 C.3   777  ILE777      0.0019
    112  CD1       60.6690  -14.1170    7.7680 C.3   777  ILE777      0.0001
    113  N         56.3370  -10.0480  -21.2660 N.3   873  LEU873     -0.1245
    114  CA        56.6270  -10.7630  -20.0280 C.3   873  LEU873      0.1561
    115  C         57.6770  -10.0300  -19.2120 C.2   873  LEU873      0.2260
    116  O         57.5310   -9.8870  -17.9930 O.2   873  LEU873     -0.2867
    117  CB        57.0750  -12.1910  -20.3250 C.3   873  LEU873      0.0270
    118  CG        57.1900  -13.0550  -19.0730 C.3   873  LEU873      0.0019
    119  CD1       55.8120  -13.5610  -18.7420 C.3   873  LEU873      0.0001
    120  CD2       58.2230  -14.1970  -19.2340 C.3   873  LEU873      0.0001
    121  N         57.4050   -8.6370  -15.3900 N.3   877  TYR877     -0.1241
    122  CA        58.4060   -8.6700  -14.3280 C.3   877  TYR877      0.1605
    123  C         58.7100   -7.2710  -13.8080 C.2   877  TYR877      0.2264
    124  O         58.8650   -7.0700  -12.5970 O.2   877  TYR877     -0.2867
    125  CB        59.6970   -9.3190  -14.8240 C.3   877  TYR877      0.0534
    126  CG        59.5730  -10.7660  -15.1880 C.ar  877  TYR877     -0.0201
    127  CD1       58.3300  -11.3990  -15.2040 C.ar  877  TYR877     -0.0009
    128  CD2       60.6980  -11.5040  -15.5230 C.ar  877  TYR877     -0.0009
    129  CE1       58.2080  -12.7280  -15.5420 C.ar  877  TYR877      0.0417
    130  CE2       60.5870  -12.8450  -15.8610 C.ar  877  TYR877      0.0417
    131  CZ        59.3370  -13.4510  -15.8710 C.ar  877  TYR877      0.1957
    132  OH        59.2190  -14.7800  -16.2090 O.3   877  TYR877     -0.2866
    133  N         65.8510  -13.3750  -15.0660 N.3   938  ASN938     -0.1225
    134  CA        65.6000  -14.7360  -15.5060 C.3   938  ASN938      0.1785
    135  C         65.5480  -15.7240  -14.3540 C.2   938  ASN938      0.2597
    136  O         64.7410  -16.6600  -14.3910 O.2   938  ASN938     -0.2718
    137  CB        66.6620  -15.1600  -16.5230 C.3   938  ASN938      0.1169
    138  CG        66.5020  -14.4410  -17.8730 C.2   938  ASN938      0.2627
    139  OD1       65.3960  -14.0450  -18.2600 O.2   938  ASN938     -0.2716
    140  ND2       67.6080  -14.2740  -18.5890 N.am  938  ASN938     -0.0877
    141  N         66.3460  -15.5110  -13.3050 N.am  939  ILE939     -0.1966
    142  CA        66.3800  -16.4760  -12.2100 C.3   939  ILE939      0.1727
    143  C         65.2540  -16.2230  -11.1930 C.2   939  ILE939      0.2616
    144  O         64.5810  -17.1660  -10.7640 O.2   939  ILE939     -0.2715
    145  CB        67.7880  -16.5000  -11.5710 C.3   939  ILE939      0.0290
    146  CG1       68.1150  -17.9080  -11.0550 C.3   939  ILE939      0.0022
    147  CG2       67.9470  -15.4610  -10.4750 C.3   939  ILE939      0.0023
    148  CD1       68.5960  -18.8650  -12.1460 C.3   939  ILE939      0.0001
    149  N         64.9820  -14.9670  -10.8230 N.am  940  PHE940     -0.1960
    150  CA        63.9310  -14.6940   -9.8460 C.3   940  PHE940      0.1771
    151  C         62.8970  -13.6770  -10.3190 C.2   940  PHE940      0.2619
    152  O         62.1150  -13.1830   -9.4970 O.2   940  PHE940     -0.2715
    153  CB        64.5320  -14.2260   -8.5190 C.3   940  PHE940      0.0574
    154  CG        65.3420  -15.2730   -7.8310 C.ar  940  PHE940     -0.0200
    155  CD1       64.8100  -16.5200   -7.5760 C.ar  940  PHE940     -0.0042
    156  CD2       66.6390  -15.0080   -7.4350 C.ar  940  PHE940     -0.0042
    157  CE1       65.5660  -17.4880   -6.9380 C.ar  940  PHE940     -0.0003
    158  CE2       67.4030  -15.9680   -6.8010 C.ar  940  PHE940     -0.0003
    159  CZ        66.8670  -17.2090   -6.5510 C.ar  940  PHE940     -0.0000
    160  N         62.8820  -13.3410  -11.6080 N.am  941  ASN941     -0.1972
    161  CA        61.8160  -12.5320  -12.2000 C.3   941  ASN941      0.1688
    162  C         61.7810  -11.1150  -11.6320 C.2   941  ASN941      0.2292
    163  O         60.7120  -10.5150  -11.4890 O.2   941  ASN941     -0.2864
    164  CB        60.4530  -13.2070  -12.0270 C.3   941  ASN941      0.1181
    165  CG        60.3850  -14.5570  -12.7000 C.2   941  ASN941      0.2629
    166  OD1       61.3480  -14.9870  -13.3490 O.2   941  ASN941     -0.2716
    167  ND2       59.2450  -15.2400  -12.5510 N.am  941  ASN941     -0.0877
@<TRIPOS>BOND
     1   113   114    1
     2   117   114    1
     3   117   118    1
     4   114   115    1
     5   120   118    1
     6   115   116    2
     7   118   119    1
     8     6     5    1
     9   140   138   am
    10   139   138    2
    11     7     5    1
    12   138   137    1
    13     5     2    1
    14     1     2    1
    15     2     3    1
    16   137   134    1
    17   132   131    1
    18   131   130   ar
    19   131   129   ar
    20   130   128   ar
    21     3     8   am
    22     3     4    2
    23   129   127   ar
    24   128   126   ar
    25   134   133    1
    26   134   135    1
    27    14    12    1
    28   121   122    1
    29     8     9    1
    30   127   126   ar
    31   126   125    1
    32   125   122    1
    33   136   135    2
    34   135   141   am
    35   122   123    1
    36     9    12    1
    37     9    10    1
    38    12    13    1
    39   123   124    2
    40   166   165    2
    41   141   142    1
    42    10    11    2
    43   165   167   am
    44   165   164    1
    45   142   145    1
    46   142   143    1
    47   161   164    1
    48   161   162    1
    49   161   160    1
    50   148   146    1
    51   162   163    2
    52   160   151   am
    53   145   146    1
    54   145   147    1
    55   143   149   am
    56   143   144    2
    57   149   150    1
    58    26    25    1
    59    71    69    1
    60   151   150    1
    61   151   152    2
    62   150   153    1
    63    24    25   ar
    64    24    22   ar
    65    25    23   ar
    66    69    68    1
    67   153   154    1
    68    22    20   ar
    69    68    70    1
    70    68    65    1
    71    23    21   ar
    72   154   155   ar
    73   154   156   ar
    74   155   157   ar
    75   156   158   ar
    76    64    65    1
    77    20    21   ar
    78    20    19    1
    79   157   159   ar
    80    65    66    1
    81   158   159   ar
    82    66    67    2
    83    19    16    1
    84    15    16    1
    85    16    17    1
    86    89    87   ar
    87    89    90   ar
    88    87    85   ar
    89    90    88   ar
    90    17    18    2
    91    34    32    1
    92    85    84    1
    93    85    86   ar
    94    88    86   ar
    95    84    81    1
    96    78    77    1
    97    77    76    1
    98    77    79    1
    99    72    73    1
   100    76    73    1
   101    31    32    1
   102    31    28    1
   103    32    33    1
   104    80    81    1
   105    80    74   am
   106    73    74    1
   107    81    82    1
   108    27    28    1
   109    74    75    2
   110    28    29    1
   111    82    83    2
   112    35    29   am
   113    35    36    1
   114    29    30    2
   115    39    36    1
   116    36    37    1
   117   104   103    1
   118   103   100    1
   119    37    38    2
   120    97    96    1
   121   100    99    1
   122   100   101    1
   123    96    95    1
   124    96    98    1
   125    99    93   am
   126    44    41    1
   127    91    92    1
   128    95    92    1
   129   101   102    2
   130    93    92    1
   131    93    94    2
   132    40    41    1
   133    41    42    1
   134    42    45   am
   135    42    43    2
   136    45    46    1
   137    50    49    1
   138    51    49    1
   139   105   106    1
   140    58    56    1
   141   110   109    1
   142   110   112    1
   143    46    49    1
   144    46    47    1
   145   109   106    1
   146   109   111    1
   147   106   107    1
   148    47    48    2
   149    56    57    1
   150    56    53    1
   151    52    53    1
   152   107   108    2
   153    53    54    1
   154    63    60    1
   155    54    55    2
   156    59    60    1
   157    60    61    1
   158    61    62    2
