@<TRIPOS>MOLECULE
tmp/5ylvB02.pdb
 105 102 0 0 0
SMALL
GASTEIGER

@<TRIPOS>ATOM
      1  N         39.8820    6.7010    0.9780 N.3    19  TYR19      -0.1241
      2  CA        40.0070    6.2040   -0.3800 C.3    19  TYR19       0.1605
      3  C         39.8680    7.3300   -1.3980 C.2    19  TYR19       0.2264
      4  O         40.6310    7.3810   -2.3580 O.2    19  TYR19      -0.2867
      5  CB        38.9690    5.1050   -0.6300 C.3    19  TYR19       0.0534
      6  CG        39.1340    3.8630    0.2400 C.ar   19  TYR19      -0.0201
      7  CD1       40.3980    3.3030    0.4750 C.ar   19  TYR19      -0.0009
      8  CD2       38.0170    3.2500    0.8220 C.ar   19  TYR19      -0.0009
      9  CE1       40.5420    2.1740    1.2740 C.ar   19  TYR19       0.0417
     10  CE2       38.1450    2.1280    1.6160 C.ar   19  TYR19       0.0417
     11  CZ        39.4050    1.5900    1.8450 C.ar   19  TYR19       0.1957
     12  OH        39.5170    0.4650    2.6420 O.3    19  TYR19      -0.2866
     13  N         42.8860    7.9720   -3.8120 N.3    23  SER23      -0.1217
     14  CA        42.4820    7.9140   -5.2120 C.3    23  SER23       0.1889
     15  C         42.8090    9.2120   -5.9270 C.2    23  SER23       0.2288
     16  O         43.4450    9.2110   -6.9820 O.2    23  SER23      -0.2866
     17  CB        40.9810    7.6410   -5.3090 C.3    23  SER23       0.2089
     18  OG        40.5460    6.6920   -4.3570 O.3    23  SER23      -0.2183
     19  N         46.4460    9.5680   -6.5650 N.3    26  PHE26      -0.1227
     20  CA        46.7910    8.7140   -7.6950 C.3    26  PHE26       0.1736
     21  C         46.4000    9.3750   -9.0160 C.2    26  PHE26       0.2595
     22  O         47.2170    9.4770   -9.9390 O.2    26  PHE26      -0.2718
     23  CB        46.1020    7.3540   -7.5140 C.3    26  PHE26       0.0547
     24  CG        46.4640    6.3340   -8.5520 C.ar   26  PHE26      -0.0202
     25  CD1       47.7940    6.0360   -8.8210 C.ar   26  PHE26      -0.0042
     26  CD2       45.4680    5.6640   -9.2520 C.ar   26  PHE26      -0.0042
     27  CE1       48.1250    5.1010   -9.7810 C.ar   26  PHE26      -0.0003
     28  CE2       45.7900    4.7320  -10.2180 C.ar   26  PHE26      -0.0003
     29  CZ        47.1230    4.4490  -10.4840 C.ar   26  PHE26      -0.0000
     30  N         45.1540    9.8540   -9.1060 N.am   27  ALA27      -0.1980
     31  CA        44.6670   10.5520  -10.2910 C.3    27  ALA27       0.1597
     32  C         45.6250   11.6520  -10.7190 C.2    27  ALA27       0.2287
     33  O         46.0690   11.6950  -11.8740 O.2    27  ALA27      -0.2864
     34  CB        43.2800   11.1370  -10.0180 C.3    27  ALA27       0.0319
     35  N         48.8400   10.4060  -12.1600 N.3    30  ILE30      -0.1231
     36  CA        48.8480    9.8270  -13.4950 C.3    30  ILE30       0.1692
     37  C         48.5710   10.9050  -14.5290 C.2    30  ILE30       0.2592
     38  O         48.9840   10.7730  -15.6890 O.2    30  ILE30      -0.2718
     39  CB        47.8730    8.6360  -13.5990 C.3    30  ILE30       0.0266
     40  CG1       46.4180    9.0290  -13.3060 C.3    30  ILE30       0.0019
     41  CG2       48.3090    7.4890  -12.6860 C.3    30  ILE30       0.0020
     42  CD1       45.5970    9.2310  -14.5460 C.3    30  ILE30       0.0001
     43  N         47.9120   12.0000  -14.1250 N.am   31  TYR31      -0.1976
     44  CA        47.7760   13.1540  -15.0130 C.3    31  TYR31       0.1639
     45  C         49.1420   13.7690  -15.3120 C.2    31  TYR31       0.2290
     46  O         49.5380   13.9100  -16.4800 O.2    31  TYR31      -0.2864
     47  CB        46.8260   14.1970  -14.4070 C.3    31  TYR31       0.0560
     48  CG        46.6330   15.3980  -15.3160 C.ar   31  TYR31      -0.0198
     49  CD1       47.4980   16.4900  -15.2540 C.ar   31  TYR31      -0.0009
     50  CD2       45.6070   15.4280  -16.2650 C.ar   31  TYR31      -0.0009
     51  CE1       47.3450   17.5790  -16.0970 C.ar   31  TYR31       0.0417
     52  CE2       45.4470   16.5200  -17.1170 C.ar   31  TYR31       0.0417
     53  CZ        46.3240   17.5880  -17.0240 C.ar   31  TYR31       0.1957
     54  OH        46.1890   18.6760  -17.8520 O.3    31  TYR31      -0.2866
     55  N         51.2170   11.4170  -17.5360 N.3    34  MET34      -0.1230
     56  CA        51.0260   11.4560  -18.9880 C.3    34  MET34       0.1702
     57  C         51.4600   12.7800  -19.6050 C.2    34  MET34       0.2592
     58  O         51.9370   12.7940  -20.7460 O.2    34  MET34      -0.2718
     59  CB        49.5600   11.1620  -19.3290 C.3    34  MET34       0.0401
     60  CG        49.1510    9.7810  -18.8690 C.3    34  MET34       0.0596
     61  SD        49.6830    8.4710  -19.9900 S.3    34  MET34      -0.1393
     62  CE        51.3260    8.0820  -19.3900 C.3    34  MET34       0.0692
     63  N         51.3100   13.8910  -18.8710 N.am   35  ARG35      -0.1980
     64  CA        51.8480   15.1650  -19.3310 C.3    35  ARG35       0.1597
     65  C         53.3660   15.1460  -19.4620 C.2    35  ARG35       0.2287
     66  O         53.9190   15.9860  -20.1720 O.2    35  ARG35      -0.2864
     67  CB        51.4020   16.2820  -18.3960 C.3    35  ARG35       0.0334
     68  CG        49.9190   16.6090  -18.5150 C.3    35  ARG35       0.0492
     69  CD        49.6680   18.1190  -18.4960 C.3    35  ARG35       0.2205
     70  NE        50.0140   18.7960  -19.7500 N.pl3  35  ARG35      -0.0865
     71  CZ        50.0300   20.1200  -19.9030 C.cat  35  ARG35       0.5346
     72  NH1       49.7300   20.9100  -18.8760 N.pl3  35  ARG35       0.1354
     73  NH2       50.3480   20.6560  -21.0790 N.pl3  35  ARG35       0.1354
     74  N         55.4490   12.7830  -20.8260 N.3    37  ILE37      -0.1231
     75  CA        56.1100   11.9440  -21.8240 C.3    37  ILE37       0.1692
     76  C         55.8170   12.4330  -23.2380 C.2    37  ILE37       0.2592
     77  O         54.7320   12.9520  -23.5410 O.2    37  ILE37      -0.2718
     78  CB        55.6950   10.4690  -21.6500 C.3    37  ILE37       0.0266
     79  CG1       54.1680   10.3490  -21.6340 C.3    37  ILE37       0.0019
     80  CG2       56.2880    9.9060  -20.3680 C.3    37  ILE37       0.0020
     81  CD1       53.6720    8.9530  -21.8630 C.3    37  ILE37       0.0001
     82  N         56.8000   12.2370  -24.1210 N.am   38  ASP38      -0.1960
     83  CA        56.6860   12.7230  -25.4900 C.3    38  ASP38       0.1825
     84  C         55.6970   11.8660  -26.2790 C.2    38  ASP38       0.2464
     85  O         55.7070   10.6350  -26.1620 O.2    38  ASP38      -0.2730
     86  CB        58.0470   12.7160  -26.1890 C.3    38  ASP38       0.1450
     87  CG        57.9690   13.2610  -27.6100 C.2    38  ASP38       0.3671
     88  OD1       57.9750   14.4960  -27.7600 O.co2  38  ASP38      -0.2456
     89  OD2       57.8720   12.4650  -28.5730 O.co2  38  ASP38      -0.2456
     90  N         54.8460   12.4840  -27.1040 N.am   39  PRO39      -0.2727
     91  CA        53.8400   11.7070  -27.8540 C.3    39  PRO39       0.1402
     92  C         54.3920   10.9790  -29.0700 C.2    39  PRO39       0.2269
     93  O         53.7050   10.1040  -29.6150 O.2    39  PRO39      -0.2865
     94  CB        52.8140   12.7690  -28.2730 C.3    39  PRO39       0.0296
     95  CG        53.1880   14.0260  -27.4850 C.3    39  PRO39       0.0237
     96  CD        54.6490   13.9310  -27.2450 C.3    39  PRO39       0.0939
     97  N         51.7770    7.9390  -33.8460 N.3   206  LYS206     -0.1245
     98  CA        51.1200    9.2410  -33.9790 C.3   206  LYS206      0.1561
     99  C         51.6870   10.0320  -35.1530 C.2   206  LYS206      0.2260
    100  O         50.9460   10.7370  -35.8520 O.2   206  LYS206     -0.2867
    101  CB        51.2450   10.0560  -32.6910 C.3   206  LYS206      0.0271
    102  CG        50.3020   11.2550  -32.6530 C.3   206  LYS206      0.0035
    103  CD        50.6960   12.2850  -31.6050 C.3   206  LYS206      0.0206
    104  CE        49.6420   13.3840  -31.4850 C.3   206  LYS206      0.1093
    105  NZ        48.3060   12.8470  -31.0230 N.3   206  LYS206     -0.1314
@<TRIPOS>BOND
     1   100    99    2
     2    99    98    1
     3    98    97    1
     4    98   101    1
     5   101   102    1
     6   102   103    1
     7   103   104    1
     8   104   105    1
     9    93    92    2
    10    92    91    1
    11    89    87   ar
    12    94    91    1
    13    94    95    1
    14    91    90    1
    15    88    87   ar
    16    87    86    1
    17    95    96    1
    18    96    90    1
    19    90    84   am
    20    84    85    2
    21    84    83    1
    22    86    83    1
    23    83    82    1
    24    82    76   am
    25    77    76    2
    26    76    75    1
    27    81    79    1
    28    75    78    1
    29    75    74    1
    30    78    79    1
    31    78    80    1
    32    73    71    1
    33    58    57    2
    34    66    65    2
    35    61    62    1
    36    61    60    1
    37    71    70    2
    38    71    72    1
    39    70    69    1
    40    57    56    1
    41    57    63   am
    42    65    64    1
    43    64    63    1
    44    64    67    1
    45    59    56    1
    46    59    60    1
    47    56    55    1
    48    68    69    1
    49    68    67    1
    50    54    53    1
    51    52    53   ar
    52    52    50   ar
    53    53    51   ar
    54    46    45    2
    55    50    48   ar
    56    51    49   ar
    57    38    37    2
    58    48    49   ar
    59    48    47    1
    60    45    44    1
    61    44    47    1
    62    44    43    1
    63    42    40    1
    64    37    43   am
    65    37    36    1
    66    39    36    1
    67    39    40    1
    68    39    41    1
    69    36    35    1
    70    33    32    2
    71    32    31    1
    72    29    28   ar
    73    29    27   ar
    74    31    34    1
    75    31    30    1
    76    28    26   ar
    77    22    21    2
    78    27    25   ar
    79    26    24   ar
    80    30    21   am
    81    21    20    1
    82    25    24   ar
    83    24    23    1
    84    20    23    1
    85    20    19    1
    86    16    15    2
    87    15    14    1
    88    17    14    1
    89    17    18    1
    90    14    13    1
    91     4     3    2
    92     3     2    1
    93     5     2    1
    94     5     6    1
    95     2     1    1
    96     6     7   ar
    97     6     8   ar
    98     7     9   ar
    99     8    10   ar
   100     9    11   ar
   101    10    11   ar
   102    11    12    1
