@<TRIPOS>MOLECULE
tmp/5ylvA00.pdb
 161 152 0 0 0
SMALL
GASTEIGER

@<TRIPOS>ATOM
      1  N         46.6790  -25.8730   -0.1580 N.3    73  ILE73      -0.1231
      2  CA        45.9540  -25.0370   -1.1230 C.3    73  ILE73       0.1692
      3  C         46.8460  -24.5990   -2.2940 C.2    73  ILE73       0.2592
      4  O         46.4240  -24.6200   -3.4590 O.2    73  ILE73      -0.2718
      5  CB        45.3390  -23.8280   -0.4000 C.3    73  ILE73       0.0266
      6  CG1       44.1760  -24.2700    0.4700 C.3    73  ILE73       0.0019
      7  CG2       44.8590  -22.8360   -1.3930 C.3    73  ILE73       0.0020
      8  CD1       43.4720  -23.1110    1.1610 C.3    73  ILE73       0.0001
      9  N         48.0790  -24.1770   -2.0140 N.am   74  CYS74      -0.1970
     10  CA        49.0350  -24.0280   -3.1040 C.3    74  CYS74       0.1712
     11  C         49.0220  -25.2430   -4.0380 C.2    74  CYS74       0.2296
     12  O         48.8410  -25.0980   -5.2510 O.2    74  CYS74      -0.2864
     13  CB        50.4480  -23.8190   -2.5580 C.3    74  CYS74       0.0983
     14  SG        50.8900  -22.1590   -2.0860 S.3    74  CYS74      -0.0798
     15  N         45.9370  -26.1290   -5.9590 N.3    77  ALA77      -0.1245
     16  CA        45.8160  -25.1740   -7.0580 C.3    77  ALA77       0.1562
     17  C         46.7800  -25.4930   -8.1960 C.2    77  ALA77       0.2260
     18  O         46.4410  -25.2840   -9.3640 O.2    77  ALA77      -0.2867
     19  CB        46.0400  -23.7560   -6.5540 C.3    77  ALA77       0.0290
     20  N         45.6400  -26.1550  -12.0710 N.3    81  GLN81      -0.1245
     21  CA        46.1630  -25.4080  -13.2070 C.3    81  GLN81       0.1566
     22  C         46.8150  -26.3320  -14.2270 C.2    81  GLN81       0.2260
     23  O         46.4390  -26.3160  -15.4030 O.2    81  GLN81      -0.2867
     24  CB        47.1460  -24.3400  -12.7280 C.3    81  GLN81       0.0367
     25  CG        46.5080  -23.3650  -11.7600 C.3    81  GLN81       0.0905
     26  CD        47.2360  -22.0520  -11.6400 C.2    81  GLN81       0.2608
     27  OE1       46.6060  -20.9980  -11.6240 O.2    81  GLN81      -0.2717
     28  NE2       48.5630  -22.1030  -11.5390 N.am   81  GLN81      -0.0878
     29  N         55.1870  -20.8470   -9.7060 N.3    91  ASP91      -0.1225
     30  CA        54.9190  -19.9530   -8.5800 C.3    91  ASP91       0.1805
     31  C         54.1960  -20.6730   -7.4400 C.2    91  ASP91       0.2597
     32  O         54.5350  -20.4860   -6.2610 O.2    91  ASP91      -0.2718
     33  CB        54.1030  -18.7510   -9.0610 C.3    91  ASP91       0.1424
     34  CG        54.9820  -17.6060   -9.5940 C.2    91  ASP91       0.3668
     35  OD1       56.2430  -17.7080   -9.5460 O.co2  91  ASP91      -0.2456
     36  OD2       54.3940  -16.5910  -10.0450 O.co2  91  ASP91      -0.2456
     37  N         53.1870  -21.4880   -7.7660 N.am   92  ASN92      -0.1974
     38  CA        52.5440  -22.3150   -6.7510 C.3    92  ASN92       0.1688
     39  C         53.5550  -23.1900   -6.0310 C.2    92  ASN92       0.2292
     40  O         53.4780  -23.3570   -4.8110 O.2    92  ASN92      -0.2864
     41  CB        51.4720  -23.1960   -7.3780 C.3    92  ASN92       0.1181
     42  CG        50.2880  -22.4140   -7.8520 C.2    92  ASN92       0.2629
     43  OD1       50.3630  -21.1980   -8.0030 O.2    92  ASN92      -0.2716
     44  ND2       49.1750  -23.1020   -8.0870 N.am   92  ASN92      -0.0877
     45  N         55.9010  -21.1010   -3.6090 N.3    95  LEU95      -0.1245
     46  CA        55.1160  -20.7270   -2.4300 C.3    95  LEU95       0.1561
     47  C         55.0100  -21.8640   -1.4110 C.2    95  LEU95       0.2260
     48  O         55.2260  -21.6650   -0.2100 O.2    95  LEU95      -0.2867
     49  CB        53.7210  -20.2800   -2.8570 C.3    95  LEU95       0.0270
     50  CG        53.3320  -18.8120   -2.7310 C.3    95  LEU95       0.0019
     51  CD1       54.3380  -17.8910   -3.4280 C.3    95  LEU95       0.0001
     52  CD2       51.9540  -18.6590   -3.3360 C.3    95  LEU95       0.0001
     53  N         40.8200  -21.0130   -8.7300 N.3   285  VAL285     -0.1245
     54  CA        42.2610  -20.8780   -8.5240 C.3   285  VAL285      0.1561
     55  C         42.6070  -19.4800   -8.0290 C.2   285  VAL285      0.2260
     56  O         43.6300  -19.2910   -7.3560 O.2   285  VAL285     -0.2867
     57  CB        43.0850  -21.2240   -9.7730 C.3   285  VAL285      0.0252
     58  CG1       43.1620  -20.0650  -10.6790 C.3   285  VAL285      0.0019
     59  CG2       44.4890  -21.6160   -9.3410 C.3   285  VAL285      0.0019
     60  N         41.8280  -19.5020   -4.2470 N.3   288  MET288     -0.1230
     61  CA        42.9880  -20.1010   -3.5930 C.3   288  MET288      0.1702
     62  C         44.1620  -19.1260   -3.5180 C.2   288  MET288      0.2592
     63  O         44.6900  -18.8770   -2.4300 O.2   288  MET288     -0.2718
     64  CB        43.3860  -21.3860   -4.3100 C.3   288  MET288      0.0401
     65  CG        42.3740  -22.5170   -4.1310 C.3   288  MET288      0.0596
     66  SD        42.5890  -23.7830   -5.4050 S.3   288  MET288     -0.1393
     67  CE        43.2400  -25.1570   -4.4790 C.3   288  MET288      0.0692
     68  N         44.5720  -18.5380   -4.6540 N.am  289  ALA289     -0.1980
     69  CA        45.7150  -17.6060   -4.6280 C.3   289  ALA289      0.1597
     70  C         45.5220  -16.4550   -3.6370 C.2   289  ALA289      0.2287
     71  O         46.5080  -15.9160   -3.1040 O.2   289  ALA289     -0.2864
     72  CB        45.9850  -17.0360   -6.0190 C.3   289  ALA289      0.0319
     73  N         45.7410  -17.6820    0.0710 N.3   292  VAL292     -0.1231
     74  CA        47.1550  -17.9190    0.3320 C.3   292  VAL292      0.1692
     75  C         47.9030  -16.5970    0.5190 C.2   292  VAL292      0.2591
     76  O         48.7640  -16.4820    1.3980 O.2   292  VAL292     -0.2718
     77  CB        47.7820  -18.7820   -0.7730 C.3   292  VAL292      0.0266
     78  CG1       49.2900  -18.7330   -0.6780 C.3   292  VAL292      0.0020
     79  CG2       47.3200  -20.2050   -0.6230 C.3   292  VAL292      0.0020
     80  N         47.5960  -15.5750   -0.2930 N.am  293  ALA293     -0.1980
     81  CA        48.3050  -14.3030   -0.1330 C.3   293  ALA293      0.1597
     82  C         48.0300  -13.6450    1.2100 C.2   293  ALA293      0.2287
     83  O         48.8440  -12.8350    1.6650 O.2   293  ALA293     -0.2864
     84  CB        47.9490  -13.3240   -1.2470 C.3   293  ALA293      0.0319
     85  N         50.6230   -6.5810   -1.5650 N.3   748  GLU748     -0.1231
     86  CA        50.9490   -7.7840   -2.3230 C.3   748  GLU748      0.1699
     87  C         49.7090   -8.4000   -2.9380 C.2   748  GLU748      0.2592
     88  O         49.7490   -8.8230   -4.0920 O.2   748  GLU748     -0.2718
     89  CB        51.6440   -8.8310   -1.4370 C.3   748  GLU748      0.0402
     90  CG        53.1180   -8.5710   -1.1280 C.3   748  GLU748      0.1161
     91  CD        53.5220   -9.0880    0.2450 C.2   748  GLU748      0.3649
     92  OE1       52.6200   -9.3770    1.0580 O.co2 748  GLU748     -0.2457
     93  OE2       54.7380   -9.2210    0.5040 O.co2 748  GLU748     -0.2457
     94  N         48.5990   -8.4160   -2.1920 N.am  749  LEU749     -0.1980
     95  CA        47.3420   -8.9670   -2.6930 C.3   749  LEU749      0.1596
     96  C         46.6810   -8.0580   -3.7310 C.2   749  LEU749      0.2287
     97  O         46.2130   -8.5340   -4.7710 O.2   749  LEU749     -0.2864
     98  CB        46.3800   -9.2010   -1.5350 C.3   749  LEU749      0.0297
     99  CG        45.0530   -9.7820   -2.0000 C.3   749  LEU749      0.0022
    100  CD1       45.3270  -11.1480   -2.5990 C.3   749  LEU749      0.0001
    101  CD2       44.0330   -9.8670   -0.8640 C.3   749  LEU749      0.0001
    102  N         47.5960   -5.8440   -6.0480 N.3   751  PRO751     -0.2102
    103  CA        48.0180   -5.9060   -7.4610 C.3   751  PRO751      0.1504
    104  C         47.5380   -7.1550   -8.1740 C.2   751  PRO751      0.2575
    105  O         47.3130   -7.1150   -9.3900 O.2   751  PRO751     -0.2718
    106  CB        49.5520   -5.8400   -7.3890 C.3   751  PRO751      0.0282
    107  CG        49.8960   -6.1680   -5.9870 C.3   751  PRO751      0.0208
    108  CD        48.7500   -5.6610   -5.1570 C.3   751  PRO751      0.0893
    109  N         47.3670   -8.2610   -7.4470 N.am  752  TYR752     -0.1977
    110  CA        46.7240   -9.4380   -8.0160 C.3   752  TYR752      0.1639
    111  C         45.2350   -9.1980   -8.2190 C.2   752  TYR752      0.2290
    112  O         44.7010   -9.4640   -9.3020 O.2   752  TYR752     -0.2864
    113  CB        46.9450  -10.6510   -7.1150 C.3   752  TYR752      0.0560
    114  CG        46.7290  -11.9740   -7.7970 C.ar  752  TYR752     -0.0198
    115  CD1       47.6760  -12.4830   -8.6770 C.ar  752  TYR752     -0.0009
    116  CD2       45.5760  -12.7170   -7.5670 C.ar  752  TYR752     -0.0009
    117  CE1       47.4870  -13.7060   -9.3020 C.ar  752  TYR752      0.0417
    118  CE2       45.3740  -13.9360   -8.1960 C.ar  752  TYR752      0.0417
    119  CZ        46.3360  -14.4220   -9.0560 C.ar  752  TYR752      0.1957
    120  OH        46.1580  -15.6240   -9.6820 O.3   752  TYR752     -0.2866
    121  N         51.0300   -8.6240  -15.3640 N.3   762  LEU762     -0.1231
    122  CA        51.2410   -8.9800  -13.9550 C.3   762  LEU762      0.1678
    123  C         52.1030   -7.9520  -13.2280 C.2   762  LEU762      0.2434
    124  O         53.2970   -7.8150  -13.5520 O.2   762  LEU762     -0.2733
    125  CB        51.8840  -10.3650  -13.8290 C.3   762  LEU762      0.0284
    126  CG        51.7600  -10.9640  -12.4300 C.3   762  LEU762      0.0019
    127  CD1       50.3070  -11.1040  -12.0580 C.3   762  LEU762      0.0001
    128  CD2       52.4110  -12.3040  -12.3690 C.3   762  LEU762      0.0001
    129  N         51.5520   -7.2250  -12.2440 N.am  763  PRO763     -0.2718
    130  CA        52.3750   -6.2570  -11.4910 C.3   763  PRO763      0.1535
    131  C         53.4290   -6.8880  -10.5820 C.2   763  PRO763      0.2598
    132  O         54.5350   -6.3420  -10.4700 O.2   763  PRO763     -0.2715
    133  CB        51.3440   -5.4710  -10.6590 C.3   763  PRO763      0.0310
    134  CG        49.9830   -5.9420  -11.0860 C.3   763  PRO763      0.0237
    135  CD        50.1520   -7.2560  -11.7840 C.3   763  PRO763      0.0939
    136  N         53.1270   -8.0120   -9.9220 N.am  764  LEU764     -0.1964
    137  CA        53.9680   -8.5490   -8.8480 C.3   764  LEU764      0.1728
    138  C         54.0030  -10.0730   -8.9230 C.2   764  LEU764      0.2617
    139  O         52.9550  -10.7240   -8.8880 O.2   764  LEU764     -0.2715
    140  CB        53.4340   -8.0820   -7.4870 C.3   764  LEU764      0.0311
    141  CG        54.2510   -8.2330   -6.2010 C.3   764  LEU764      0.0022
    142  CD1       55.6520   -7.6840   -6.3800 C.3   764  LEU764      0.0001
    143  CD2       53.5300   -7.5270   -5.0540 C.3   764  LEU764      0.0001
    144  N         55.2110  -10.6470   -9.0220 N.am  765  GLY765     -0.1940
    145  CA        55.3550  -12.0860   -9.0930 C.3   765  GLY765      0.2014
    146  C         55.5690  -12.7180   -7.7290 C.2   765  GLY765      0.2639
    147  O         55.9320  -12.0650   -6.7600 O.2   765  GLY765     -0.2714
    148  N         55.3640  -14.0280   -7.6560 N.am  766  CYS766     -0.1967
    149  CA        55.4540  -14.6910   -6.3600 C.3   766  CYS766      0.1712
    150  C         56.8970  -14.7880   -5.8660 C.2   766  CYS766      0.2296
    151  O         57.1610  -14.5450   -4.6860 O.2   766  CYS766     -0.2864
    152  CB        54.7930  -16.0590   -6.4400 C.3   766  CYS766      0.0983
    153  SG        53.0020  -15.8830   -6.4740 S.3   766  CYS766     -0.0798
    154  N         57.5990  -11.6450   -4.0000 N.3   769  ILE769     -0.1245
    155  CA        56.9760  -11.4440   -2.6860 C.3   769  ILE769      0.1561
    156  C         57.4890  -12.4670   -1.6750 C.2   769  ILE769      0.2260
    157  O         57.4150  -12.2500   -0.4530 O.2   769  ILE769     -0.2867
    158  CB        55.4370  -11.4420   -2.7640 C.3   769  ILE769      0.0252
    159  CG1       54.8490  -12.8310   -2.6430 C.3   769  ILE769      0.0019
    160  CG2       54.9850  -10.8610   -4.0620 C.3   769  ILE769      0.0019
    161  CD1       53.3380  -12.7910   -2.7120 C.3   769  ILE769      0.0001
@<TRIPOS>BOND
     1    23    22    2
     2   121   122    1
     3    22    21    1
     4   122   125    1
     5   122   123    1
     6   125   126    1
     7   124   123    2
     8   123   129   am
     9    21    24    1
    10    21    20    1
    11    24    25    1
    12   126   128    1
    13   126   127    1
    14   129   135    1
    15   129   130    1
    16   135   134    1
    17    25    26    1
    18    26    27    2
    19    26    28   am
    20   130   133    1
    21   130   131    1
    22   134   133    1
    23    58    57    1
    24   131   132    2
    25   131   136   am
    26    36    34   ar
    27   136   137    1
    28    57    59    1
    29    57    54    1
    30    29    30    1
    31   120   119    1
    32    34    35   ar
    33    34    33    1
    34   105   104    2
    35    18    17    2
    36   112   111    2
    37   117   119   ar
    38   117   115   ar
    39   145   144    1
    40   145   146    1
    41    33    30    1
    42   119   118   ar
    43   144   138   am
    44   138   139    2
    45   138   137    1
    46   137   140    1
    47    53    54    1
    48   115   114   ar
    49    30    31    1
    50    54    55    1
    51   111   110    1
    52   118   116   ar
    53    17    16    1
    54   104   103    1
    55   104   109   am
    56    44    42   am
    57    55    56    2
    58   110   109    1
    59   110   113    1
    60    43    42    2
    61    42    41    1
    62   114   116   ar
    63   114   113    1
    64    37    31   am
    65    37    38    1
    66   146   148   am
    67   146   147    2
    68   148   149    1
    69   140   141    1
    70   103   106    1
    71   103   102    1
    72    31    32    2
    73   106   107    1
    74    41    38    1
    75    16    19    1
    76    16    15    1
    77    38    39    1
    78   153   152    1
    79   152   149    1
    80   142   141    1
    81   149   150    1
    82   141   143    1
    83   102   108    1
    84    39    40    2
    85    72    69    1
    86   107   108    1
    87   150   151    2
    88    66    67    1
    89    66    65    1
    90    12    11    2
    91    97    96    2
    92    68    69    1
    93    68    62   am
    94    69    70    1
    95    64    65    1
    96    64    61    1
    97    60    61    1
    98    88    87    2
    99   160   158    1
   100    11    10    1
   101   154   155    1
   102    96    95    1
   103    70    71    2
   104    45    46    1
   105    61    62    1
   106    62    63    2
   107     4     3    2
   108    51    50    1
   109    52    50    1
   110    10    13    1
   111    10     9    1
   112    87    86    1
   113    87    94   am
   114    49    50    1
   115    49    46    1
   116   158   155    1
   117   158   159    1
   118   161   159    1
   119    95    94    1
   120    95    98    1
   121   155   156    1
   122   100    99    1
   123    13    14    1
   124    46    47    1
   125    86    85    1
   126    86    89    1
   127     3     9   am
   128     3     2    1
   129    99    98    1
   130    99   101    1
   131   156   157    2
   132    89    90    1
   133    47    48    2
   134     7     5    1
   135    84    81    1
   136    90    91    1
   137     2     5    1
   138     2     1    1
   139    77    78    1
   140    77    79    1
   141    77    74    1
   142     5     6    1
   143    80    81    1
   144    80    75   am
   145    81    82    1
   146    73    74    1
   147    91    93   ar
   148    91    92   ar
   149    74    75    1
   150     6     8    1
   151    75    76    2
   152    82    83    2
