@<TRIPOS>MOLECULE
tmp/5ylvA02.pdb
 126 120 0 0 0
SMALL
GASTEIGER

@<TRIPOS>ATOM
      1  N         48.8250   -6.3980    2.0840 N.3   746  ILE746     -0.1245
      2  CA        47.8050   -5.7770    1.2330 C.3   746  ILE746      0.1561
      3  C         48.3850   -5.2040   -0.0600 C.2   746  ILE746      0.2260
      4  O         47.7720   -5.3630   -1.1200 O.2   746  ILE746     -0.2867
      5  CB        47.0340   -4.7000    2.0030 C.3   746  ILE746      0.0252
      6  CG1       46.0460   -5.3540    2.9650 C.3   746  ILE746      0.0019
      7  CG2       46.3230   -3.7780    1.0530 C.3   746  ILE746      0.0019
      8  CD1       45.4090   -6.6250    2.4210 C.3   746  ILE746      0.0001
      9  N         46.5710   -6.7580   -3.4480 N.3   750  THR750     -0.1218
     10  CA        45.7750   -5.9170   -4.3400 C.3   750  THR750      0.1862
     11  C         46.2900   -5.9600   -5.7680 C.2   750  THR750      0.2287
     12  O         45.4680   -6.1640   -6.6770 O.2   750  THR750     -0.2866
     13  CB        45.6660   -4.4700   -3.8210 C.3   750  THR750      0.1770
     14  OG1       46.9620   -3.8620   -3.6900 O.3   750  THR750     -0.2211
     15  CG2       44.8850   -4.4040   -2.4940 C.3   750  THR750      0.0375
     16  N         43.5810   -6.4380   -8.6920 N.3   754  ILE754     -0.1245
     17  CA        43.4340   -5.5980   -9.8750 C.3   754  ILE754      0.1561
     18  C         43.7160   -6.4170  -11.1230 C.2   754  ILE754      0.2260
     19  O         42.9090   -6.4570  -12.0590 O.2   754  ILE754     -0.2867
     20  CB        44.3550   -4.3660   -9.7790 C.3   754  ILE754      0.0252
     21  CG1       43.8530   -3.4270   -8.6900 C.3   754  ILE754      0.0019
     22  CG2       44.4170   -3.6380  -11.0850 C.3   754  ILE754      0.0019
     23  CD1       42.5620   -2.7770   -9.0690 C.3   754  ILE754      0.0001
     24  N         40.9530   -6.1110  -13.7780 N.3   758  VAL758     -0.1245
     25  CA        41.2630   -5.1900  -14.8690 C.3   758  VAL758      0.1561
     26  C         42.1090   -5.8240  -15.9710 C.2   758  VAL758      0.2260
     27  O         42.2350   -5.2370  -17.0600 O.2   758  VAL758     -0.2867
     28  CB        41.9550   -3.9300  -14.3060 C.3   758  VAL758      0.0252
     29  CG1       42.1290   -2.8460  -15.3650 C.3   758  VAL758      0.0019
     30  CG2       41.1550   -3.4130  -13.1230 C.3   758  VAL758      0.0019
     31  N         45.4030   -6.2370  -16.4170 N.3   760  VAL760     -0.1245
     32  CA        46.6200   -5.5190  -16.7960 C.3   760  VAL760      0.1561
     33  C         47.7780   -6.4890  -16.5930 C.2   760  VAL760      0.2260
     34  O         47.6390   -7.4290  -15.7980 O.2   760  VAL760     -0.2867
     35  CB        46.7870   -4.2420  -15.9620 C.3   760  VAL760      0.0252
     36  CG1       45.4360   -3.5300  -15.8520 C.3   760  VAL760      0.0019
     37  CG2       47.3590   -4.5610  -14.5850 C.3   760  VAL760      0.0019
     38  N         46.8560    0.1880    1.9590 N.3   821  ALA821     -0.1245
     39  CA        46.3200    0.9390    0.8260 C.3   821  ALA821      0.1562
     40  C         47.3510    1.9230    0.2820 C.2   821  ALA821      0.2260
     41  O         47.7120    1.8670   -0.9030 O.2   821  ALA821     -0.2867
     42  CB        45.0340    1.6570    1.2390 C.3   821  ALA821      0.0290
     43  N         49.8690    0.2580   -1.5840 N.3   824  SER824     -0.1202
     44  CA        49.3690   -0.1870   -2.8780 C.3   824  SER824      0.2020
     45  C         49.4590    0.9390   -3.9000 C.2   824  SER824      0.2618
     46  O         50.1760    0.8320   -4.9080 O.2   824  SER824     -0.2717
     47  CB        47.9270   -0.6830   -2.7420 C.3   824  SER824      0.2103
     48  OG        47.8180   -1.7230   -1.7900 O.3   824  SER824     -0.2182
     49  N         48.7540    2.0450   -3.6280 N.am  825  PHE825     -0.1975
     50  CA        48.8000    3.2050   -4.5100 C.3   825  PHE825      0.1639
     51  C         50.2310    3.5520   -4.9040 C.2   825  PHE825      0.2290
     52  O         50.5030    3.8040   -6.0810 O.2   825  PHE825     -0.2864
     53  CB        48.0950    4.3850   -3.8470 C.3   825  PHE825      0.0560
     54  CG        46.5850    4.3260   -3.9610 C.ar  825  PHE825     -0.0200
     55  CD1       45.9550    4.5250   -5.1890 C.ar  825  PHE825     -0.0042
     56  CD2       45.7910    4.0740   -2.8600 C.ar  825  PHE825     -0.0042
     57  CE1       44.5610    4.4760   -5.3070 C.ar  825  PHE825     -0.0003
     58  CE2       44.3990    4.0180   -2.9800 C.ar  825  PHE825     -0.0003
     59  CZ        43.7900    4.2170   -4.2060 C.ar  825  PHE825     -0.0000
     60  N         51.2090    0.9200   -7.6220 N.3   828  PHE828     -0.1241
     61  CA        50.5970    1.1040   -8.9360 C.3   828  PHE828      0.1605
     62  C         51.1080    2.3620   -9.6280 C.2   828  PHE828      0.2264
     63  O         51.3980    2.3370  -10.8350 O.2   828  PHE828     -0.2867
     64  CB        49.0820    1.1520   -8.8010 C.3   828  PHE828      0.0534
     65  CG        48.4510   -0.1970   -8.6740 C.ar  828  PHE828     -0.0203
     66  CD1       48.4570   -1.0830   -9.7440 C.ar  828  PHE828     -0.0042
     67  CD2       47.8410   -0.5840   -7.4900 C.ar  828  PHE828     -0.0042
     68  CE1       47.8670   -2.3210   -9.6330 C.ar  828  PHE828     -0.0003
     69  CE2       47.2390   -1.8230   -7.3780 C.ar  828  PHE828     -0.0003
     70  CZ        47.2510   -2.6910   -8.4540 C.ar  828  PHE828     -0.0000
     71  N         52.6060    2.1620  -13.5070 N.3   832  PHE832     -0.1241
     72  CA        52.2720    2.8880  -14.7030 C.3   832  PHE832      0.1605
     73  C         53.4350    3.7270  -15.1510 C.2   832  PHE832      0.2264
     74  O         53.7010    3.8360  -16.3240 O.2   832  PHE832     -0.2867
     75  CB        51.1030    3.7920  -14.4310 C.3   832  PHE832      0.0534
     76  CG        49.8300    3.0690  -14.1970 C.ar  832  PHE832     -0.0203
     77  CD1       49.1720    2.4620  -15.2310 C.ar  832  PHE832     -0.0042
     78  CD2       49.2780    3.0220  -12.9550 C.ar  832  PHE832     -0.0042
     79  CE1       47.9890    1.8040  -15.0200 C.ar  832  PHE832     -0.0003
     80  CE2       48.0900    2.3740  -12.7390 C.ar  832  PHE832     -0.0003
     81  CZ        47.4460    1.7600  -13.7720 C.ar  832  PHE832     -0.0000
     82  N         51.0680    2.7800  -22.3090 N.3   841  PHE841     -0.1228
     83  CA        50.2100    3.7660  -21.6850 C.3   841  PHE841      0.1721
     84  C         49.1850    3.0890  -20.7900 C.2   841  PHE841      0.2437
     85  O         48.7690    1.9680  -21.0580 O.2   841  PHE841     -0.2733
     86  CB        49.4810    4.6040  -22.7330 C.3   841  PHE841      0.0547
     87  CG        50.3480    5.6350  -23.4180 C.ar  841  PHE841     -0.0202
     88  CD1       51.7370    5.5700  -23.3490 C.ar  841  PHE841     -0.0042
     89  CD2       49.7650    6.6710  -24.1380 C.ar  841  PHE841     -0.0042
     90  CE1       52.5360    6.5170  -23.9880 C.ar  841  PHE841     -0.0003
     91  CE2       50.5590    7.6170  -24.7780 C.ar  841  PHE841     -0.0003
     92  CZ        51.9470    7.5400  -24.6980 C.ar  841  PHE841     -0.0000
     93  N         48.7530    3.7740  -19.7350 N.am  842  PRO842     -0.2718
     94  CA        47.8130    3.1620  -18.7850 C.3   842  PRO842      0.1535
     95  C         46.5420    2.6260  -19.4120 C.2   842  PRO842      0.2598
     96  O         46.0890    1.5420  -19.0240 O.2   842  PRO842     -0.2715
     97  CB        47.5160    4.3150  -17.8210 C.3   842  PRO842      0.0310
     98  CG        48.7460    5.1450  -17.8580 C.3   842  PRO842      0.0237
     99  CD        49.2390    5.0820  -19.2660 C.3   842  PRO842      0.0939
    100  N         45.9320    3.3510  -20.3530 N.am  843  LEU843     -0.1978
    101  CA        44.6570    2.8810  -20.8910 C.3   843  LEU843      0.1596
    102  C         44.8550    1.6360  -21.7460 C.2   843  LEU843      0.2287
    103  O         44.0130    0.7220  -21.7350 O.2   843  LEU843     -0.2864
    104  CB        43.9610    3.9870  -21.6880 C.3   843  LEU843      0.0297
    105  CG        42.5140    3.6150  -22.0480 C.3   843  LEU843      0.0022
    106  CD1       41.6120    3.5980  -20.8010 C.3   843  LEU843      0.0001
    107  CD2       41.9480    4.5060  -23.1620 C.3   843  LEU843      0.0001
    108  N         44.6910   -1.4680  -19.5090 N.3   846  VAL846     -0.1245
    109  CA        43.4200   -2.0970  -19.1880 C.3   846  VAL846      0.1561
    110  C         43.1420   -3.2080  -20.1950 C.2   846  VAL846      0.2260
    111  O         43.4070   -3.0720  -21.4010 O.2   846  VAL846     -0.2867
    112  CB        42.3060   -1.0430  -19.1440 C.3   846  VAL846      0.0252
    113  CG1       40.9780   -1.6380  -18.6040 C.3   846  VAL846      0.0019
    114  CG2       42.7700    0.1180  -18.2960 C.3   846  VAL846      0.0019
    115  N         53.2580    3.5630  -28.6640 N.3   864  TYR864     -0.1241
    116  CA        54.0020    4.1680  -29.7550 C.3   864  TYR864      0.1605
    117  C         54.0520    3.2060  -30.9420 C.2   864  TYR864      0.2264
    118  O         54.8280    3.3940  -31.8500 O.2   864  TYR864     -0.2867
    119  CB        55.4380    4.5060  -29.3650 C.3   864  TYR864      0.0534
    120  CG        55.6020    5.4240  -28.1740 C.ar  864  TYR864     -0.0201
    121  CD1       54.5430    6.1590  -27.6800 C.ar  864  TYR864     -0.0009
    122  CD2       56.8340    5.5680  -27.5540 C.ar  864  TYR864     -0.0009
    123  CE1       54.7020    6.9880  -26.5920 C.ar  864  TYR864      0.0417
    124  CE2       56.9950    6.4050  -26.4750 C.ar  864  TYR864      0.0417
    125  CZ        55.9210    7.1030  -26.0090 C.ar  864  TYR864      0.1957
    126  OH        56.0700    7.9260  -24.9490 O.3   864  TYR864     -0.2866
@<TRIPOS>BOND
     1   118   117    2
     2   117   116    1
     3   116   119    1
     4   116   115    1
     5   119   120    1
     6   120   121   ar
     7   120   122   ar
     8   121   123   ar
     9   122   124   ar
    10   123   125   ar
    11   124   125   ar
    12   125   126    1
    13    91    92   ar
    14    91    89   ar
    15    92    90   ar
    16    89    87   ar
    17    90    88   ar
    18    87    88   ar
    19    87    86    1
    20   107   105    1
    21    86    83    1
    22    82    83    1
    23   105   104    1
    24   105   106    1
    25   102   103    2
    26   102   101    1
    27   104   101    1
    28    83    84    1
    29   111   110    2
    30    85    84    2
    31   101   100    1
    32    84    93   am
    33   100    95   am
    34   110   109    1
    35    93    99    1
    36    93    94    1
    37   108   109    1
    38    95    96    2
    39    95    94    1
    40    99    98    1
    41   109   112    1
    42   112   113    1
    43   112   114    1
    44    94    97    1
    45    98    97    1
    46    27    26    2
    47    32    33    1
    48    32    31    1
    49    32    35    1
    50    33    34    2
    51    74    73    2
    52    26    25    1
    53    35    36    1
    54    35    37    1
    55    29    28    1
    56    77    79   ar
    57    77    76   ar
    58    73    72    1
    59    79    81   ar
    60    25    28    1
    61    25    24    1
    62    72    75    1
    63    72    71    1
    64    75    76    1
    65    28    30    1
    66    76    78   ar
    67    81    80   ar
    68    78    80   ar
    69    19    18    2
    70    18    17    1
    71    22    20    1
    72    63    62    2
    73    17    20    1
    74    17    16    1
    75    20    21    1
    76    66    68   ar
    77    66    65   ar
    78    68    70   ar
    79    62    61    1
    80    23    21    1
    81    61    64    1
    82    61    60    1
    83    64    65    1
    84    65    67   ar
    85    70    69   ar
    86    67    69   ar
    87    12    11    2
    88    52    51    2
    89    11    10    1
    90    57    55   ar
    91    57    59   ar
    92    55    54   ar
    93    46    45    2
    94    51    50    1
    95    50    53    1
    96    50    49    1
    97    10    13    1
    98    10     9    1
    99    59    58   ar
   100    54    53    1
   101    54    56   ar
   102    45    49   am
   103    45    44    1
   104    13    14    1
   105    13    15    1
   106    58    56   ar
   107    44    47    1
   108    44    43    1
   109    47    48    1
   110     4     3    2
   111    41    40    2
   112     3     2    1
   113    40    39    1
   114    39    42    1
   115    39    38    1
   116     7     5    1
   117     2     5    1
   118     2     1    1
   119     5     6    1
   120     8     6    1
