@<TRIPOS>MOLECULE
tmp/5ylvA01.pdb
 98 98 0 0 0
SMALL
GASTEIGER

@<TRIPOS>ATOM
      1  N         51.2080    3.4720   -8.8830 N.3   829  THR829     -0.1218
      2  CA        51.8420    4.6780   -9.4030 C.3   829  THR829      0.1862
      3  C         53.2000    4.3630  -10.0290 C.2   829  THR829      0.2287
      4  O         53.4730    4.7270  -11.1880 O.2   829  THR829     -0.2866
      5  CB        51.9770    5.7040   -8.2790 C.3   829  THR829      0.1770
      6  OG1       50.6880    6.2770   -7.9890 O.3   829  THR829     -0.2211
      7  CG2       52.9830    6.7900   -8.6540 C.3   829  THR829      0.0375
      8  N         70.9180   -4.9700   -9.0460 N.3   933  TYR933     -0.1241
      9  CA        72.0410   -4.6130   -9.8980 C.3   933  TYR933      0.1605
     10  C         73.1050   -5.6890   -9.9820 C.2   933  TYR933      0.2264
     11  O         74.0690   -5.5210  -10.7320 O.2   933  TYR933     -0.2867
     12  CB        72.6320   -3.2850   -9.4300 C.3   933  TYR933      0.0534
     13  CG        71.5370   -2.2560   -9.2770 C.ar  933  TYR933     -0.0201
     14  CD1       71.0240   -1.5970  -10.3870 C.ar  933  TYR933     -0.0009
     15  CD2       70.9850   -1.9720   -8.0340 C.ar  933  TYR933     -0.0009
     16  CE1       70.0070   -0.6610  -10.2610 C.ar  933  TYR933      0.0417
     17  CE2       69.9710   -1.0310   -7.9020 C.ar  933  TYR933      0.0417
     18  CZ        69.4880   -0.3830   -9.0220 C.ar  933  TYR933      0.1957
     19  OH        68.4800    0.5430   -8.8980 O.3   933  TYR933     -0.2866
     20  N         67.6140   -4.1300  -12.9420 N.3   945  PRO945     -0.2102
     21  CA        68.0080   -2.8450  -12.3880 C.3   945  PRO945      0.1504
     22  C         67.0850   -1.7720  -12.8450 C.2   945  PRO945      0.2576
     23  O         67.1760   -1.2890  -13.9390 O.2   945  PRO945     -0.2718
     24  CB        69.3640   -2.6110  -13.0340 C.3   945  PRO945      0.0282
     25  CG        69.3180   -3.3840  -14.2910 C.3   945  PRO945      0.0208
     26  CD        68.5490   -4.6110  -13.9620 C.3   945  PRO945      0.0893
     27  N         66.2180   -1.3780  -11.9400 N.am  946  ILE946     -0.1966
     28  CA        65.2540   -0.3500  -12.1790 C.3   946  ILE946      0.1727
     29  C         65.9840    0.9630  -12.2340 C.2   946  ILE946      0.2616
     30  O         66.9310    1.1530  -11.5090 O.2   946  ILE946     -0.2715
     31  CB        64.2300   -0.3610  -11.0480 C.3   946  ILE946      0.0290
     32  CG1       62.8480   -0.6610  -11.5930 C.3   946  ILE946      0.0022
     33  CG2       64.1740    0.9590  -10.3200 C.3   946  ILE946      0.0023
     34  CD1       61.7680   -0.5370  -10.5490 C.3   946  ILE946      0.0001
     35  N         65.5640    1.8680  -13.1020 N.am  947  ARG947     -0.1963
     36  CA        66.2110    3.1600  -13.2020 C.3   947  ARG947      0.1729
     37  C         65.9850    3.9340  -11.9100 C.2   947  ARG947      0.2616
     38  O         64.8930    3.9230  -11.3520 O.2   947  ARG947     -0.2715
     39  CB        65.6980    3.9090  -14.4140 C.3   947  ARG947      0.0348
     40  CG        65.8090    3.1160  -15.6950 C.3   947  ARG947      0.0492
     41  CD        65.4170    3.9540  -16.8890 C.3   947  ARG947      0.2205
     42  NE        66.5890    4.3610  -17.6300 N.pl3 947  ARG947     -0.0865
     43  CZ        66.9880    3.7800  -18.7460 C.cat 947  ARG947      0.5346
     44  NH1       66.2940    2.7770  -19.2610 N.pl3 947  ARG947      0.1354
     45  NH2       68.0750    4.2050  -19.3510 N.pl3 947  ARG947      0.1354
     46  N         67.0030    4.6610  -11.4700 N.am  948  PHE948     -0.1960
     47  CA        66.9160    5.3120  -10.1670 C.3   948  PHE948      0.1771
     48  C         65.7690    6.3220  -10.0870 C.2   948  PHE948      0.2619
     49  O         65.4170    6.7330   -8.9760 O.2   948  PHE948     -0.2715
     50  CB        68.2790    5.9500   -9.8060 C.3   948  PHE948      0.0574
     51  CG        69.3610    4.9310   -9.3800 C.ar  948  PHE948     -0.0200
     52  CD1       69.3660    4.3700   -8.0960 C.ar  948  PHE948     -0.0042
     53  CD2       70.3680    4.5410  -10.2700 C.ar  948  PHE948     -0.0042
     54  CE1       70.3510    3.4400   -7.7230 C.ar  948  PHE948     -0.0003
     55  CE2       71.3540    3.6180   -9.8970 C.ar  948  PHE948     -0.0003
     56  CZ        71.3400    3.0690   -8.6300 C.ar  948  PHE948     -0.0000
     57  N         65.1590    6.7070  -11.2130 N.am  949  GLN949     -0.1977
     58  CA        63.8970    7.4330  -11.1380 C.3   949  GLN949      0.1601
     59  C         62.8900    6.6710  -10.2780 C.2   949  GLN949      0.2287
     60  O         62.2200    7.2410   -9.3940 O.2   949  GLN949     -0.2864
     61  CB        63.3450    7.6310  -12.5530 C.3   949  GLN949      0.0394
     62  CG        64.2080    8.3860  -13.5260 C.3   949  GLN949      0.0908
     63  CD        65.0820    7.4600  -14.3610 C.2   949  GLN949      0.2608
     64  OE1       66.0780    6.9120  -13.8760 O.2   949  GLN949     -0.2717
     65  NE2       64.7230    7.2950  -15.6310 N.am  949  GLN949     -0.0878
     66  N         62.7660    6.7950   -6.6050 N.3   952  LEU952     -0.1231
     67  CA        62.2390    8.0270   -6.0140 C.3   952  LEU952      0.1693
     68  C         60.7130    8.0590   -6.0110 C.2   952  LEU952      0.2591
     69  O         60.1040    8.4900   -5.0230 O.2   952  LEU952     -0.2718
     70  CB        62.7850    9.2530   -6.7480 C.3   952  LEU952      0.0284
     71  CG        64.2710    9.3110   -7.1270 C.3   952  LEU952      0.0019
     72  CD1       64.5500   10.6110   -7.8710 C.3   952  LEU952      0.0001
     73  CD2       65.2170    9.1570   -5.9260 C.3   952  LEU952      0.0001
     74  N         60.0800    7.6150   -7.0970 N.am  953  VAL953     -0.1980
     75  CA        58.6140    7.7060   -7.2340 C.3   953  VAL953      0.1595
     76  C         57.7880    7.3290   -5.9930 C.2   953  VAL953      0.2287
     77  O         56.7280    7.9410   -5.7600 O.2   953  VAL953     -0.2864
     78  CB        58.1440    6.8660   -8.4330 C.3   953  VAL953      0.0276
     79  CG1       56.6650    7.1550   -8.7570 C.3   953  VAL953      0.0022
     80  CG2       59.0650    7.1020   -9.6350 C.3   953  VAL953      0.0022
     81  N         57.5490    9.8040   -1.7800 N.3   956  PRO956     -0.2102
     82  CA        56.4240   10.6270   -1.2940 C.3   956  PRO956      0.1504
     83  C         55.3500    9.8410   -0.5710 C.2   956  PRO956      0.2575
     84  O         54.7850   10.3370    0.4100 O.2   956  PRO956     -0.2718
     85  CB        55.8810   11.2610   -2.5790 C.3   956  PRO956      0.0282
     86  CG        57.0900   11.3760   -3.4500 C.3   956  PRO956      0.0208
     87  CD        57.9340   10.1750   -3.1600 C.3   956  PRO956      0.0893
     88  N         55.0280    8.6320   -1.0310 N.am  957  PHE957     -0.1977
     89  CA        53.9940    7.8620   -0.3430 C.3   957  PHE957      0.1639
     90  C         54.5120    7.3260    0.9790 C.2   957  PHE957      0.2290
     91  O         53.7770    7.2840    1.9790 O.2   957  PHE957     -0.2864
     92  CB        53.5220    6.7080   -1.2170 C.3   957  PHE957      0.0560
     93  CG        52.9670    7.1320   -2.5360 C.ar  957  PHE957     -0.0200
     94  CD1       53.8100    7.2900   -3.6390 C.ar  957  PHE957     -0.0042
     95  CD2       51.5950    7.3660   -2.6760 C.ar  957  PHE957     -0.0042
     96  CE1       53.3020    7.6830   -4.8520 C.ar  957  PHE957     -0.0003
     97  CE2       51.0750    7.7460   -3.8800 C.ar  957  PHE957     -0.0003
     98  CZ        51.9300    7.9050   -4.9790 C.ar  957  PHE957     -0.0000
@<TRIPOS>BOND
     1    45    43    1
     2    44    43    1
     3    43    42    2
     4    42    41    1
     5    41    40    1
     6    40    39    1
     7    65    63   am
     8    39    36    1
     9    63    64    2
    10    63    62    1
    11    25    26    1
    12    25    24    1
    13    26    20    1
    14    23    22    2
    15    62    61    1
    16    36    35    1
    17    36    37    1
    18    35    29   am
    19    24    21    1
    20    20    21    1
    21    22    21    1
    22    22    27   am
    23    61    58    1
    24    29    28    1
    25    29    30    2
    26    28    27    1
    27    28    31    1
    28    37    46   am
    29    37    38    2
    30    32    31    1
    31    32    34    1
    32    46    47    1
    33    57    58    1
    34    57    48   am
    35     4     3    2
    36    58    59    1
    37    31    33    1
    38    11    10    2
    39    14    16   ar
    40    14    13   ar
    41    59    60    2
    42    53    55   ar
    43    53    51   ar
    44    16    18   ar
    45    47    48    1
    46    47    50    1
    47    48    49    2
    48     3     2    1
    49    10     9    1
    50     9    12    1
    51     9     8    1
    52    55    56   ar
    53    50    51    1
    54    80    78    1
    55    12    13    1
    56     2     1    1
    57     2     5    1
    58    51    52   ar
    59    13    15   ar
    60    18    19    1
    61    18    17   ar
    62    79    78    1
    63     7     5    1
    64    56    54   ar
    65    78    75    1
    66     5     6    1
    67    52    54   ar
    68    15    17   ar
    69    72    71    1
    70    75    74    1
    71    75    76    1
    72    71    70    1
    73    71    73    1
    74    74    68   am
    75    70    67    1
    76    66    67    1
    77    67    68    1
    78    68    69    2
    79    76    77    2
    80    98    96   ar
    81    98    97   ar
    82    96    94   ar
    83    97    95   ar
    84    94    93   ar
    85    86    87    1
    86    86    85    1
    87    87    81    1
    88    95    93   ar
    89    85    82    1
    90    93    92    1
    91    81    82    1
    92    82    83    1
    93    92    89    1
    94    88    83   am
    95    88    89    1
    96    83    84    2
    97    89    90    1
    98    90    91    2
