@<TRIPOS>MOLECULE
tmp/5ym3A01.pdb
 111 103 0 0 0
SMALL
GASTEIGER

@<TRIPOS>ATOM
      1  N         64.6450    5.4980   -1.4100 N.3    73  ALA73      -0.1231
      2  CA        63.4900    6.2710   -0.9520 C.3    73  ALA73       0.1694
      3  C         63.3900    6.3320    0.5810 C.2    73  ALA73       0.2591
      4  O         62.8580    7.2960    1.1330 O.2    73  ALA73      -0.2718
      5  CB        62.2110    5.7010   -1.5360 C.3    73  ALA73       0.0304
      6  N         63.9090    5.3050    1.2540 N.am   74  VAL74      -0.1980
      7  CA        63.9170    5.2240    2.7160 C.3    74  VAL74       0.1595
      8  C         64.8800    6.2500    3.3500 C.2    74  VAL74       0.2287
      9  O         64.8220    6.5130    4.5530 O.2    74  VAL74      -0.2864
     10  CB        64.2860    3.7830    3.1670 C.3    74  VAL74       0.0276
     11  CG1       64.2680    3.6250    4.6930 C.3    74  VAL74       0.0022
     12  CG2       63.3410    2.7920    2.5280 C.3    74  VAL74       0.0022
     13  N         65.2760    8.7460    7.5150 N.3    79  HIS79      -0.1241
     14  CA        64.5640    7.6040    8.0740 C.3    79  HIS79       0.1621
     15  C         65.4300    6.3430    8.1490 C.2    79  HIS79       0.2264
     16  O         65.3180    5.5600    9.0910 O.2    79  HIS79      -0.2867
     17  CB        63.3200    7.3250    7.2380 C.3    79  HIS79       0.0745
     18  CG        62.2900    6.4950    7.9350 C.ar   79  HIS79       0.0817
     19  ND1       61.6320    6.9230    9.0670 N.ar   79  HIS79      -0.2268
     20  CD2       61.7900    5.2700    7.6510 C.ar   79  HIS79       0.1154
     21  CE1       60.7740    5.9960    9.4540 C.ar   79  HIS79       0.1986
     22  NE2       60.8500    4.9830    8.6110 N.ar   79  HIS79      -0.2212
     23  N         62.4090   -0.1620   11.5030 N.3    85  GLY85      -0.1210
     24  CA        62.2600   -1.0180   10.3470 C.3    85  GLY85       0.1956
     25  C         63.5090   -1.2290    9.5050 C.2    85  GLY85       0.2611
     26  O         63.5400   -2.1660    8.7060 O.2    85  GLY85      -0.2717
     27  N         64.5320   -0.3820    9.6630 N.am   86  PHE86      -0.1976
     28  CA        65.7120   -0.4690    8.7870 C.3    86  PHE86       0.1639
     29  C         67.0670   -0.4570    9.4790 C.2    86  PHE86       0.2290
     30  O         68.0600   -0.8420    8.8720 O.2    86  PHE86      -0.2864
     31  CB        65.6710    0.6530    7.7550 C.3    86  PHE86       0.0560
     32  CG        64.4680    0.5880    6.8830 C.ar   86  PHE86      -0.0200
     33  CD1       64.4300   -0.2860    5.8090 C.ar   86  PHE86      -0.0042
     34  CD2       63.3540    1.3520    7.1680 C.ar   86  PHE86      -0.0042
     35  CE1       63.3170   -0.3690    5.0180 C.ar   86  PHE86      -0.0003
     36  CE2       62.2350    1.2750    6.3810 C.ar   86  PHE86      -0.0003
     37  CZ        62.2130    0.4120    5.3010 C.ar   86  PHE86      -0.0000
     38  N         53.2340    8.0380   -1.0280 N.3   179  VAL179     -0.1245
     39  CA        54.3760    7.1700   -0.7750 C.3   179  VAL179      0.1561
     40  C         54.3450    5.9290   -1.6570 C.2   179  VAL179      0.2260
     41  O         55.3750    5.5070   -2.1880 O.2   179  VAL179     -0.2867
     42  CB        54.4210    6.7300    0.6880 C.3   179  VAL179      0.0252
     43  CG1       55.6390    5.8680    0.9430 C.3   179  VAL179      0.0019
     44  CG2       54.4190    7.9450    1.5940 C.3   179  VAL179      0.0019
     45  N         57.4650    4.6120   -4.2280 N.3   183  VAL183     -0.1245
     46  CA        58.1340    3.3510   -3.8950 C.3   183  VAL183      0.1561
     47  C         57.7460    2.1910   -4.8250 C.2   183  VAL183      0.2260
     48  O         58.5510    1.2990   -5.0950 O.2   183  VAL183     -0.2867
     49  CB        57.8260    2.9460   -2.4370 C.3   183  VAL183      0.0252
     50  CG1       58.5900    1.6870   -2.0390 C.3   183  VAL183      0.0019
     51  CG2       58.1590    4.0910   -1.4990 C.3   183  VAL183      0.0019
     52  N         57.1010   12.2030    3.3230 N.3   211  PHE211     -0.1241
     53  CA        57.5840   11.8860    4.6610 C.3   211  PHE211      0.1605
     54  C         57.4730   13.1000    5.5710 C.2   211  PHE211      0.2264
     55  O         57.0800   12.9860    6.7290 O.2   211  PHE211     -0.2867
     56  CB        59.0310   11.4060    4.6180 C.3   211  PHE211      0.0534
     57  CG        59.1760    9.9190    4.5660 C.ar  211  PHE211     -0.0203
     58  CD1       58.8290    9.2150    3.4260 C.ar  211  PHE211     -0.0042
     59  CD2       59.6760    9.2210    5.6550 C.ar  211  PHE211     -0.0042
     60  CE1       58.9700    7.8340    3.3670 C.ar  211  PHE211     -0.0003
     61  CE2       59.8210    7.8370    5.6060 C.ar  211  PHE211     -0.0003
     62  CZ        59.4670    7.1430    4.4570 C.ar  211  PHE211     -0.0000
     63  N         55.3140    6.6860   12.6210 N.3   266  LEU266     -0.1231
     64  CA        55.1820    6.7840   11.1720 C.3   266  LEU266      0.1693
     65  C         55.2570    5.4040   10.5310 C.2   266  LEU266      0.2592
     66  O         54.4750    5.0830    9.6320 O.2   266  LEU266     -0.2718
     67  CB        56.2710    7.6930   10.5910 C.3   266  LEU266      0.0284
     68  CG        56.1930    8.0110    9.0900 C.3   266  LEU266      0.0019
     69  CD1       56.7030    9.4180    8.8130 C.3   266  LEU266      0.0001
     70  CD2       56.9570    7.0020    8.2390 C.3   266  LEU266      0.0001
     71  N         56.2100    4.5970   10.9930 N.am  267  ASP267     -0.1974
     72  CA        56.3780    3.2330   10.5010 C.3   267  ASP267      0.1709
     73  C         55.1780    2.3750   10.8490 C.2   267  ASP267      0.2293
     74  O         54.7290    1.5650   10.0410 O.2   267  ASP267     -0.2864
     75  CB        57.6460    2.6010   11.0730 C.3   267  ASP267      0.1436
     76  CG        58.8980    3.0540   10.3490 C.2   267  ASP267      0.3671
     77  OD1       58.8150    3.2820    9.1250 O.co2 267  ASP267     -0.2456
     78  OD2       59.9590    3.1920   11.0010 O.co2 267  ASP267     -0.2456
     79  N         52.1450    3.6880    8.6470 N.3   270  VAL270     -0.1231
     80  CA        52.3100    3.2970    7.2450 C.3   270  VAL270      0.1692
     81  C         52.3020    1.7790    7.0850 C.2   270  VAL270      0.2592
     82  O         51.6400    1.2440    6.1920 O.2   270  VAL270     -0.2718
     83  CB        53.6190    3.8720    6.6510 C.3   270  VAL270      0.0266
     84  CG1       53.9080    3.2820    5.2790 C.3   270  VAL270      0.0020
     85  CG2       53.5320    5.3820    6.5720 C.3   270  VAL270      0.0020
     86  N         53.0320    1.0950    7.9630 N.am  271  GLY271     -0.1957
     87  CA        53.1210   -0.3540    7.9420 C.3   271  GLY271      0.1869
     88  C         51.7720   -1.0400    8.0380 C.2   271  GLY271      0.2309
     89  O         51.5940   -2.1410    7.5160 O.2   271  GLY271     -0.2863
     90  N         48.8010   -2.7550    4.0090 N.3   275  THR275     -0.1218
     91  CA        48.7200   -4.1750    4.3270 C.3   275  THR275      0.1862
     92  C         47.2850   -4.6120    4.6030 C.2   275  THR275      0.2287
     93  O         46.7490   -5.4890    3.9240 O.2   275  THR275     -0.2866
     94  CB        49.5970   -4.5320    5.5480 C.3   275  THR275      0.1770
     95  OG1       49.4150   -3.5510    6.5830 O.3   275  THR275     -0.2211
     96  CG2       51.0670   -4.5990    5.1600 C.3   275  THR275      0.0375
     97  N         59.6260   -8.2040    3.4060 N.3   340  LEU340     -0.1245
     98  CA        60.5680   -7.0860    3.3600 C.3   340  LEU340      0.1561
     99  C         61.9790   -7.6360    3.2660 C.2   340  LEU340      0.2260
    100  O         62.2910   -8.6640    3.8790 O.2   340  LEU340     -0.2867
    101  CB        60.4430   -6.1930    4.5900 C.3   340  LEU340      0.0270
    102  CG        59.2300   -5.2700    4.6370 C.3   340  LEU340      0.0019
    103  CD1       59.2500   -4.4300    5.9060 C.3   340  LEU340      0.0001
    104  CD2       59.2160   -4.3950    3.4090 C.3   340  LEU340      0.0001
    105  N         53.8310   -1.5760   -3.3610 N.3   452  VAL452     -0.1245
    106  CA        54.0990   -1.6980   -1.9330 C.3   452  VAL452      0.1561
    107  C         53.3200   -2.8870   -1.4010 C.2   452  VAL452      0.2260
    108  O         53.8210   -3.6590   -0.5960 O.2   452  VAL452     -0.2867
    109  CB        53.7210   -0.4170   -1.1640 C.3   452  VAL452      0.0252
    110  CG1       53.9080   -0.6120    0.3290 C.3   452  VAL452      0.0019
    111  CG2       54.5600    0.7610   -1.6580 C.3   452  VAL452      0.0019
@<TRIPOS>BOND
     1    48    47    2
     2    47    46    1
     3    45    46    1
     4    46    49    1
     5   105   106    1
     6    49    50    1
     7    49    51    1
     8    41    40    2
     9   106   107    1
    10   106   109    1
    11   111   109    1
    12    40    39    1
    13     5     2    1
    14     1     2    1
    15   107   108    2
    16   109   110    1
    17    38    39    1
    18     2     3    1
    19    39    42    1
    20     3     4    2
    21     3     6   am
    22    42    43    1
    23    42    44    1
    24     6     7    1
    25    12    10    1
    26     7    10    1
    27     7     8    1
    28    10    11    1
    29    99    98    1
    30    99   100    2
    31    52    53    1
    32     8     9    2
    33    98    97    1
    34    98   101    1
    35    60    58   ar
    36    60    62   ar
    37   104   102    1
    38    58    57   ar
    39    93    92    2
    40    90    91    1
    41    91    92    1
    42    91    94    1
    43    62    61   ar
    44    57    56    1
    45    57    59   ar
    46   101   102    1
    47    56    53    1
    48   102   103    1
    49    53    54    1
    50    35    37   ar
    51    35    33   ar
    52    96    94    1
    53    84    83    1
    54    37    36   ar
    55    94    95    1
    56    54    55    2
    57    61    59   ar
    58    33    32   ar
    59    82    81    2
    60    36    34   ar
    61    85    83    1
    62    83    80    1
    63    32    34   ar
    64    32    31    1
    65    81    80    1
    66    81    86   am
    67    17    18    1
    68    17    14    1
    69    80    79    1
    70    13    14    1
    71    89    88    2
    72    20    18   ar
    73    20    22   ar
    74    31    28    1
    75    18    19   ar
    76    87    86    1
    77    87    88    1
    78    14    15    1
    79    15    16    2
    80    70    68    1
    81    22    21   ar
    82    26    25    2
    83    28    29    1
    84    28    27    1
    85    69    68    1
    86    30    29    2
    87    19    21   ar
    88    68    67    1
    89    77    76   ar
    90    25    27   am
    91    25    24    1
    92    66    65    2
    93    74    73    2
    94    24    23    1
    95    76    78   ar
    96    76    75    1
    97    72    73    1
    98    72    71    1
    99    72    75    1
   100    65    71   am
   101    65    64    1
   102    67    64    1
   103    64    63    1
