@<TRIPOS>MOLECULE
tmp/5ymxA00.pdb
 104 101 0 0 0
SMALL
GASTEIGER

@<TRIPOS>ATOM
      1  N        -20.3890   24.6370   -5.4770 N.3    21  LEU21      -0.1231
      2  CA       -20.4650   26.0800   -5.7020 C.3    21  LEU21       0.1693
      3  C        -19.2190   26.8220   -5.2390 C.2    21  LEU21       0.2592
      4  O        -19.2660   28.0420   -5.0300 O.2    21  LEU21      -0.2718
      5  CB       -21.7310   26.7120   -5.1040 C.3    21  LEU21       0.0284
      6  CG       -23.0440   26.0150   -5.4740 C.3    21  LEU21       0.0019
      7  CD1      -24.2420   26.6920   -4.8160 C.3    21  LEU21       0.0001
      8  CD2      -23.2180   25.9800   -6.9800 C.3    21  LEU21       0.0001
      9  N        -18.0990   26.1230   -5.0850 N.am   22  CYS22      -0.1956
     10  CA       -16.8840   26.7640   -4.6170 C.3    22  CYS22       0.1843
     11  C        -16.0770   27.4280   -5.7190 C.2    22  CYS22       0.2626
     12  O        -15.1700   28.1990   -5.3930 O.2    22  CYS22      -0.2714
     13  CB       -16.0010   25.7590   -3.8730 C.3    22  CYS22       0.0997
     14  SG       -15.3050   24.4730   -4.9250 S.3    22  CYS22      -0.0797
     15  N        -16.3600   27.1370   -6.9950 N.am   23  GLY23      -0.1940
     16  CA       -15.6420   27.7500   -8.0920 C.3    23  GLY23       0.2014
     17  C        -14.9470   26.8090   -9.0600 C.2    23  GLY23       0.2639
     18  O        -14.1060   27.2650   -9.8390 O.2    23  GLY23      -0.2714
     19  N        -15.2720   25.5110   -9.0430 N.am   24  LYS24      -0.1963
     20  CA       -14.5680   24.5570   -9.9040 C.3    24  LYS24       0.1728
     21  C        -14.9140   24.7670  -11.3750 C.2    24  LYS24       0.2617
     22  O        -14.0170   24.8490  -12.2240 O.2    24  LYS24      -0.2715
     23  CB       -14.8710   23.1300   -9.4390 C.3    24  LYS24       0.0311
     24  CG       -14.4760   22.9220   -7.9830 C.3    24  LYS24       0.0038
     25  CD       -14.7180   21.5120   -7.4370 C.3    24  LYS24       0.0206
     26  CE       -16.1740   21.0670   -7.4910 C.3    24  LYS24       0.1093
     27  NZ       -17.0820   21.9660   -6.6990 N.3    24  LYS24      -0.1314
     28  N        -16.2050   24.8600  -11.6940 N.am   25  THR25      -0.1937
     29  CA       -16.6130   25.1780  -13.0610 C.3    25  THR25       0.2028
     30  C        -15.9510   26.4570  -13.5390 C.2    25  THR25       0.2642
     31  O        -15.4620   26.5310  -14.6770 O.2    25  THR25      -0.2714
     32  CB       -18.1370   25.3550  -13.1330 C.3    25  THR25       0.1808
     33  OG1      -18.7910   24.1430  -12.7560 O.3    25  THR25      -0.2208
     34  CG2      -18.5770   25.7560  -14.5640 C.3    25  THR25       0.0379
     35  N        -15.9270   27.4780  -12.6770 N.am   26  THR26      -0.1950
     36  CA       -15.3840   28.7710  -13.0800 C.3    26  THR26       0.1897
     37  C        -13.9050   28.6520  -13.4180 C.2    26  THR26       0.2313
     38  O        -13.4390   29.2220  -14.4090 O.2    26  THR26      -0.2863
     39  CB       -15.6270   29.7960  -11.9640 C.3    26  THR26       0.1794
     40  OG1      -17.0330   29.8480  -11.6580 O.3    26  THR26      -0.2208
     41  CG2      -15.1790   31.1800  -12.3920 C.3    26  THR26       0.0378
     42  N        -19.2500   19.3130  -10.8900 N.3    79  PRO79      -0.2102
     43  CA       -19.6710   20.6550  -10.4890 C.3    79  PRO79       0.1504
     44  C        -21.0190   20.6470   -9.7850 C.2    79  PRO79       0.2576
     45  O        -21.8310   19.7320   -9.9350 O.2    79  PRO79      -0.2718
     46  CB       -19.7970   21.3790  -11.8390 C.3    79  PRO79       0.0282
     47  CG       -20.2610   20.3040  -12.7650 C.3    79  PRO79       0.0208
     48  CD       -19.5470   19.0390  -12.3090 C.3    79  PRO79       0.0893
     49  N        -21.2400   21.7030   -9.0140 N.am   80  GLY80      -0.1957
     50  CA       -22.5400   21.9630   -8.4310 C.3    80  GLY80       0.1869
     51  C        -22.8260   21.0960   -7.2190 C.2    80  GLY80       0.2309
     52  O        -21.9440   20.4640   -6.6290 O.2    80  GLY80      -0.2863
     53  N        -10.2810   30.2750   -3.0410 N.3   140  ASN140     -0.1225
     54  CA       -11.0260   31.0260   -4.0390 C.3   140  ASN140      0.1785
     55  C        -11.9800   32.0190   -3.3600 C.2   140  ASN140      0.2597
     56  O        -12.2550   31.9410   -2.1600 O.2   140  ASN140     -0.2718
     57  CB       -11.7800   30.0650   -4.9660 C.3   140  ASN140      0.1169
     58  CG       -12.3540   30.7560   -6.1790 C.2   140  ASN140      0.2627
     59  OD1      -11.7400   31.6780   -6.7330 O.2   140  ASN140     -0.2716
     60  ND2      -13.5390   30.3280   -6.6000 N.am  140  ASN140     -0.0877
     61  N        -12.5110   32.9570   -4.1510 N.am  141  LYS141     -0.1980
     62  CA       -13.4600   33.9650   -3.6700 C.3   141  LYS141      0.1596
     63  C        -12.7990   34.9400   -2.7030 C.2   141  LYS141      0.2287
     64  O        -13.4370   35.4320   -1.7630 O.2   141  LYS141     -0.2864
     65  CB       -14.7350   33.3440   -3.0800 C.3   141  LYS141      0.0298
     66  CG       -15.3340   32.2230   -3.9440 C.3   141  LYS141      0.0038
     67  CD       -16.7970   31.9730   -3.6280 C.3   141  LYS141      0.0206
     68  CE       -17.3910   30.8880   -4.5030 C.3   141  LYS141      0.1093
     69  NZ       -18.7940   30.5660   -4.1110 N.3   141  LYS141     -0.1314
     70  N        -12.2870   37.8740   -3.1720 N.3   143  ASP143     -0.1225
     71  CA       -12.8980   39.1850   -3.3590 C.3   143  ASP143      0.1805
     72  C        -14.0310   39.4590   -2.3800 C.2   143  ASP143      0.2597
     73  O        -14.3880   40.6240   -2.1840 O.2   143  ASP143     -0.2718
     74  CB       -13.4550   39.2910   -4.7840 C.3   143  ASP143      0.1424
     75  CG       -14.4870   38.2120   -5.0900 C.2   143  ASP143      0.3668
     76  OD1      -14.1720   37.0130   -4.9310 O.co2 143  ASP143     -0.2456
     77  OD2      -15.6210   38.5480   -5.4840 O.co2 143  ASP143     -0.2456
     78  N        -14.5880   38.4400   -1.7540 N.am  144  LEU144     -0.1979
     79  CA       -15.8080   38.6640   -0.9840 C.3   144  LEU144      0.1596
     80  C        -15.4850   39.1820    0.4180 C.2   144  LEU144      0.2287
     81  O        -14.4890   38.7800    1.0220 O.2   144  LEU144     -0.2864
     82  CB       -16.6200   37.3760   -0.8800 C.3   144  LEU144      0.0297
     83  CG       -17.2190   36.8830   -2.2020 C.3   144  LEU144      0.0022
     84  CD1      -17.9130   35.5340   -2.0250 C.3   144  LEU144      0.0001
     85  CD2      -18.1810   37.9470   -2.7600 C.3   144  LEU144      0.0001
     86  N         -9.5260   34.6090   -7.4990 N.3   168  VAL168     -0.1231
     87  CA       -10.8610   35.1390   -7.7590 C.3   168  VAL168      0.1692
     88  C        -11.2150   34.5560   -9.1260 C.2   168  VAL168      0.2592
     89  O        -10.9250   35.1440  -10.1670 O.2   168  VAL168     -0.2718
     90  CB       -10.9010   36.6710   -7.7750 C.3   168  VAL168      0.0266
     91  CG1      -12.3250   37.1630   -8.0370 C.3   168  VAL168      0.0020
     92  CG2      -10.3670   37.2130   -6.4590 C.3   168  VAL168      0.0020
     93  N        -11.7880   33.3600   -9.1300 N.am  169  ALA169     -0.1966
     94  CA       -11.8650   32.6060  -10.3760 C.3   169  ALA169      0.1713
     95  C        -12.5720   33.3430  -11.5120 C.2   169  ALA169      0.2458
     96  O        -12.1130   33.2250  -12.6620 O.2   169  ALA169     -0.2730
     97  CB       -12.4610   31.2200  -10.1180 C.3   169  ALA169      0.0333
     98  N        -13.6580   34.0890  -11.2880 N.am  170  PRO170     -0.2727
     99  CA       -14.3630   34.6930  -12.4330 C.3   170  PRO170      0.1402
    100  C        -13.5210   35.6850  -13.2100 C.2   170  PRO170      0.2269
    101  O        -13.7590   35.8680  -14.4100 O.2   170  PRO170     -0.2865
    102  CB       -15.6030   35.3430  -11.7980 C.3   170  PRO170      0.0296
    103  CG       -15.7960   34.5710  -10.5180 C.3   170  PRO170      0.0237
    104  CD       -14.4070   34.2660  -10.0320 C.3   170  PRO170      0.0939
@<TRIPOS>BOND
     1    31    30    2
     2    34    32    1
     3   101   100    2
     4    38    37    2
     5    30    29    1
     6    30    35   am
     7    37    36    1
     8   100    99    1
     9    32    29    1
    10    32    33    1
    11    36    35    1
    12    36    39    1
    13    29    28    1
    14    47    48    1
    15    47    46    1
    16    96    95    2
    17    99   102    1
    18    99    98    1
    19    41    39    1
    20    48    42    1
    21    22    21    2
    22    39    40    1
    23    46    43    1
    24   102   103    1
    25    28    21   am
    26    95    98   am
    27    95    94    1
    28    21    20    1
    29    98   104    1
    30    42    43    1
    31   103   104    1
    32    43    44    1
    33    94    97    1
    34    94    93    1
    35    89    88    2
    36    45    44    2
    37    20    23    1
    38    20    19    1
    39    18    17    2
    40    44    49   am
    41    23    24    1
    42    93    88   am
    43    88    87    1
    44    17    19   am
    45    17    16    1
    46    49    50    1
    47    50    51    1
    48    16    15    1
    49    91    90    1
    50    24    25    1
    51    90    87    1
    52    90    92    1
    53    87    86    1
    54    26    25    1
    55    26    27    1
    56    51    52    2
    57    15    11   am
    58     8     6    1
    59    59    58    2
    60    60    58   am
    61    58    57    1
    62    11    12    2
    63    11    10    1
    64     2     1    1
    65     2     3    1
    66     2     5    1
    67    77    75   ar
    68     6     5    1
    69     6     7    1
    70     3     9   am
    71     3     4    2
    72    75    76   ar
    73    75    74    1
    74     9    10    1
    75    57    54    1
    76    14    13    1
    77    74    71    1
    78    10    13    1
    79    68    69    1
    80    68    67    1
    81    61    62    1
    82    61    55   am
    83    54    55    1
    84    54    53    1
    85    66    67    1
    86    66    65    1
    87    62    65    1
    88    62    63    1
    89    55    56    2
    90    71    70    1
    91    71    72    1
    92    85    83    1
    93    63    64    2
    94    72    73    2
    95    72    78   am
    96    83    84    1
    97    83    82    1
    98    78    79    1
    99    79    82    1
   100    79    80    1
   101    80    81    2
