@<TRIPOS>MOLECULE
tmp/5ynnA00.pdb
 173 169 0 0 0
SMALL
GASTEIGER

@<TRIPOS>ATOM
      1  N         75.4490   82.8180  149.8860 N.3    43  ASN43      -0.1240
      2  CA        74.7840   83.6900  150.8150 C.3    43  ASN43       0.1653
      3  C         75.2590   83.5270  152.2450 C.2    43  ASN43       0.2266
      4  O         75.1010   84.4720  153.0340 O.2    43  ASN43      -0.2867
      5  CB        73.2980   83.5070  150.6800 C.3    43  ASN43       0.1155
      6  CG        72.7690   84.2190  149.4300 C.2    43  ASN43       0.2627
      7  OD1       73.2870   85.2710  149.0610 O.2    43  ASN43      -0.2716
      8  ND2       71.7220   83.6810  148.8100 N.am   43  ASN43      -0.0877
      9  N         75.9830   87.1250  153.9140 N.3    47  TYR47      -0.1241
     10  CA        75.3920   87.5270  155.1840 C.3    47  TYR47       0.1605
     11  C         76.4320   87.6930  156.2790 C.2    47  TYR47       0.2264
     12  O         76.2940   88.5990  157.1290 O.2    47  TYR47      -0.2867
     13  CB        74.3410   86.5160  155.6350 C.3    47  TYR47       0.0534
     14  CG        72.9240   86.8070  155.0890 C.ar   47  TYR47      -0.0201
     15  CD1       72.6100   86.5200  153.7860 C.ar   47  TYR47      -0.0009
     16  CD2       71.9170   87.3020  155.9200 C.ar   47  TYR47      -0.0009
     17  CE1       71.3250   86.6950  153.2770 C.ar   47  TYR47       0.0417
     18  CE2       70.6260   87.5150  155.4300 C.ar   47  TYR47       0.0417
     19  CZ        70.3490   87.2150  154.1020 C.ar   47  TYR47       0.1957
     20  OH        69.0950   87.3830  153.5570 O.3    47  TYR47      -0.2866
     21  N         63.4510   89.2210  159.3720 N.3    69  HIS69      -0.1241
     22  CA        64.2840   88.9260  158.2140 C.3    69  HIS69       0.1621
     23  C         63.3610   88.6090  157.0430 C.2    69  HIS69       0.2264
     24  O         62.7930   87.5090  156.9900 O.2    69  HIS69      -0.2867
     25  CB        65.2250   87.7240  158.5130 C.3    69  HIS69       0.0745
     26  CG        66.0880   87.3530  157.3590 C.ar   69  HIS69       0.0817
     27  ND1       66.6390   86.0940  157.2100 N.ar   69  HIS69      -0.2268
     28  CD2       66.5090   88.0750  156.2910 C.ar   69  HIS69       0.1154
     29  CE1       67.3480   86.0510  156.0910 C.ar   69  HIS69       0.1986
     30  NE2       67.2970   87.2390  155.5210 N.ar   69  HIS69      -0.2212
     31  N         62.4990   87.9960  152.9520 N.3    71  GLY71      -0.1210
     32  CA        63.1750   87.4720  151.7760 C.3    71  GLY71       0.1956
     33  C         64.1800   86.4290  152.2050 C.2    71  GLY71       0.2612
     34  O         65.2910   86.3600  151.6400 O.2    71  GLY71      -0.2717
     35  N         63.8120   85.6050  153.2030 N.am   72  ALA72      -0.1965
     36  CA        64.7540   84.6850  153.8380 C.3    72  ALA72       0.1728
     37  C         64.8720   83.3540  153.1100 C.2    72  ALA72       0.2617
     38  O         65.8090   82.5910  153.3890 O.2    72  ALA72      -0.2715
     39  CB        64.2930   84.4200  155.2670 C.3    72  ALA72       0.0334
     40  N         63.9250   83.0260  152.2230 N.am   73  GLY73      -0.1940
     41  CA        63.9080   81.7180  151.5890 C.3    73  GLY73       0.2014
     42  C         64.6720   81.6970  150.2780 C.2    73  GLY73       0.2639
     43  O         65.1940   82.6930  149.8090 O.2    73  GLY73      -0.2714
     44  N         64.7090   80.5270  149.6520 N.am   74  SER74      -0.1949
     45  CA        65.5260   80.3120  148.4610 C.3    74  SER74       0.1924
     46  C         64.7820   79.3500  147.5570 C.2    74  SER74       0.2314
     47  O         63.8340   78.6820  147.9880 O.2    74  SER74      -0.2863
     48  CB        66.9150   79.7230  148.7950 C.3    74  SER74       0.2116
     49  OG        66.7830   78.4390  149.3260 O.3    74  SER74      -0.2180
     50  N         69.9240   80.1360  154.2680 N.3    80  PRO80      -0.2102
     51  CA        71.2860   80.2950  154.7980 C.3    80  PRO80       0.1504
     52  C         71.4570   81.5850  155.6150 C.2    80  PRO80       0.2576
     53  O         72.0340   81.5560  156.7100 O.2    80  PRO80      -0.2718
     54  CB        72.1320   80.3020  153.5220 C.3    80  PRO80       0.0282
     55  CG        71.2370   79.6640  152.4460 C.3    80  PRO80       0.0208
     56  CD        69.8740   80.0860  152.7950 C.3    80  PRO80       0.0893
     57  N         70.9360   82.7080  155.1020 N.am   81  GLY81      -0.1957
     58  CA        71.0050   83.9830  155.8260 C.3    81  GLY81       0.1869
     59  C         70.4470   83.9020  157.2350 C.2    81  GLY81       0.2309
     60  O         71.0340   84.4270  158.1770 O.2    81  GLY81      -0.2863
     61  N         60.5610   85.4650  156.8290 N.3    98  ASN98      -0.1225
     62  CA        59.4270   85.5160  155.9230 C.3    98  ASN98       0.1785
     63  C         59.9130   85.3650  154.4990 C.2    98  ASN98       0.2597
     64  O         60.9990   85.8180  154.1530 O.2    98  ASN98      -0.2718
     65  CB        58.6560   86.8510  156.0690 C.3    98  ASN98       0.1169
     66  CG        57.7280   87.1160  154.9020 C.2    98  ASN98       0.2627
     67  OD1       58.0230   87.9560  154.0520 O.2    98  ASN98      -0.2716
     68  ND2       56.6300   86.3780  154.8180 N.am   98  ASN98      -0.0877
     69  N         59.0820   84.7260  153.6700 N.am   99  ASP99      -0.1960
     70  CA        59.3660   84.6700  152.2510 C.3    99  ASP99       0.1840
     71  C         58.0750   84.3160  151.5620 C.2    99  ASP99       0.2622
     72  O         57.2340   83.6070  152.1330 O.2    99  ASP99      -0.2715
     73  CB        60.4440   83.6150  151.9080 C.3    99  ASP99       0.1450
     74  CG        61.0010   83.7700  150.4980 C.2    99  ASP99       0.3671
     75  OD1       60.3530   83.3200  149.4850 O.co2  99  ASP99      -0.2456
     76  OD2       62.1210   84.3130  150.3800 O.co2  99  ASP99      -0.2456
     77  N         57.9690   84.7550  150.3080 N.am  100  LEU100     -0.1963
     78  CA        56.8400   84.3410  149.4740 C.3   100  LEU100      0.1728
     79  C         56.6670   82.8210  149.4250 C.2   100  LEU100      0.2616
     80  O         55.5370   82.3170  149.4910 O.2   100  LEU100     -0.2715
     81  CB        57.0310   84.8700  148.0600 C.3   100  LEU100      0.0311
     82  CG        56.5800   86.3000  147.8360 C.3   100  LEU100      0.0022
     83  CD1       57.2160   86.7790  146.5420 C.3   100  LEU100      0.0001
     84  CD2       55.0460   86.3380  147.7450 C.3   100  LEU100      0.0001
     85  N         57.7610   82.0750  149.2540 N.am  101  ASN101     -0.1972
     86  CA        57.6440   80.6350  149.0190 C.3   101  ASN101      0.1688
     87  C         58.0570   79.8480  150.2530 C.2   101  ASN101      0.2292
     88  O         58.7780   80.3370  151.1180 O.2   101  ASN101     -0.2864
     89  CB        58.4850   80.2360  147.8170 C.3   101  ASN101      0.1181
     90  CG        58.2140   81.1310  146.6280 C.2   101  ASN101      0.2629
     91  OD1       59.0760   81.8940  146.1720 O.2   101  ASN101     -0.2716
     92  ND2       57.0030   81.0890  146.1640 N.am  101  ASN101     -0.0877
     93  N         54.4120   83.7310  152.6000 N.3   113  GLY113     -0.1210
     94  CA        53.5320   84.6190  151.8640 C.3   113  GLY113      0.1956
     95  C         54.1790   85.9770  151.6660 C.2   113  GLY113      0.2612
     96  O         55.2520   86.2600  152.1850 O.2   113  GLY113     -0.2717
     97  N         53.5050   86.8100  150.8810 N.am  114  ASP114     -0.1959
     98  CA        53.9460   88.1800  150.6410 C.3   114  ASP114      0.1840
     99  C         54.2600   88.8930  151.9540 C.2   114  ASP114      0.2622
    100  O         53.5340   88.7480  152.9430 O.2   114  ASP114     -0.2715
    101  CB        52.8250   88.9020  149.8670 C.3   114  ASP114      0.1450
    102  CG        53.3100   90.1700  149.1680 C.2   114  ASP114      0.3671
    103  OD1       54.0390   90.9790  149.7770 O.co2 114  ASP114     -0.2456
    104  OD2       52.9400   90.3660  148.0030 O.co2 114  ASP114     -0.2456
    105  N         55.3560   89.6740  151.9830 N.am  115  CYS115     -0.1968
    106  CA        55.6490   90.3700  153.2340 C.3   115  CYS115      0.1712
    107  C         54.4990   91.2610  153.6930 C.2   115  CYS115      0.2296
    108  O         54.3810   91.5260  154.8960 O.2   115  CYS115     -0.2864
    109  CB        56.9270   91.2020  153.1300 C.3   115  CYS115      0.0983
    110  SG        56.8290   92.4890  151.8500 S.3   115  CYS115     -0.0798
    111  N         66.2900   90.8810  152.2570 N.3   130  ASP130     -0.1225
    112  CA        66.9900   90.4560  151.0620 C.3   130  ASP130      0.1805
    113  C         65.9980   90.2920  149.9230 C.2   130  ASP130      0.2598
    114  O         66.3230   89.6680  148.9150 O.2   130  ASP130     -0.2718
    115  CB        67.7630   89.1530  151.3480 C.3   130  ASP130      0.1424
    116  CG        68.9140   88.8740  150.3380 C.2   130  ASP130      0.3668
    117  OD1       69.6010   89.8120  149.8420 O.co2 130  ASP130     -0.2456
    118  OD2       69.1280   87.6660  150.0530 O.co2 130  ASP130     -0.2456
    119  N         64.7960   90.8530  150.0560 N.am  131  MET131     -0.1965
    120  CA        63.7960   90.7140  149.0210 C.3   131  MET131      0.1736
    121  C         64.2690   91.3240  147.7120 C.2   131  MET131      0.2616
    122  O         64.9000   92.3870  147.6960 O.2   131  MET131     -0.2715
    123  CB        62.4930   91.3980  149.4540 C.3   131  MET131      0.0427
    124  CG        61.8560   90.7100  150.6460 C.3   131  MET131      0.0599
    125  SD        60.2090   91.2920  151.0630 S.3   131  MET131     -0.1393
    126  CE        60.6550   92.9150  151.7940 C.3   131  MET131      0.0692
    127  N         63.8670   90.6780  146.6170 N.am  132  TYR132     -0.1960
    128  CA        64.0750   91.1050  145.2400 C.3   132  TYR132      0.1771
    129  C         62.9700   90.4890  144.3990 C.2   132  TYR132      0.2620
    130  O         62.7500   89.2800  144.4920 O.2   132  TYR132     -0.2715
    131  CB        65.4420   90.6520  144.7360 C.3   132  TYR132      0.0574
    132  CG        65.7600   91.0600  143.3180 C.ar  132  TYR132     -0.0198
    133  CD1       65.3470   90.2650  142.2390 C.ar  132  TYR132     -0.0009
    134  CD2       66.4990   92.2270  143.0540 C.ar  132  TYR132     -0.0009
    135  CE1       65.6390   90.6130  140.9260 C.ar  132  TYR132      0.0417
    136  CE2       66.8040   92.5990  141.7280 C.ar  132  TYR132      0.0417
    137  CZ        66.3800   91.7610  140.6780 C.ar  132  TYR132      0.1957
    138  OH        66.6320   92.0840  139.3830 O.3   132  TYR132     -0.2866
    139  N         62.3340   91.2810  143.5710 N.am  133  ASP133     -0.1958
    140  CA        61.2120   90.8050  142.7540 C.3   133  ASP133      0.1825
    141  C         61.7330   90.3820  141.3910 C.2   133  ASP133      0.2464
    142  O         62.4230   91.1710  140.7330 O.2   133  ASP133     -0.2730
    143  CB        60.1580   91.8910  142.6000 C.3   133  ASP133      0.1450
    144  CG        58.8530   91.3580  141.9520 C.2   133  ASP133      0.3671
    145  OD1       58.9290   90.7780  140.8580 O.co2 133  ASP133     -0.2456
    146  OD2       57.7720   91.5420  142.5370 O.co2 133  ASP133     -0.2456
    147  N         61.4540   89.1480  140.9490 N.am  134  PRO134     -0.2727
    148  CA        61.9960   88.7010  139.6590 C.3   134  PRO134      0.1402
    149  C         61.6250   89.5810  138.4870 C.2   134  PRO134      0.2269
    150  O         62.3810   89.6450  137.5120 O.2   134  PRO134     -0.2865
    151  CB        61.4240   87.2800  139.4990 C.3   134  PRO134      0.0296
    152  CG        60.4920   87.0650  140.6590 C.3   134  PRO134      0.0237
    153  CD        60.8580   88.0380  141.7110 C.3   134  PRO134      0.0939
    154  N         57.7090   95.6520  147.2620 N.3   149  PHE149     -0.1241
    155  CA        57.7400   95.5120  148.7110 C.3   149  PHE149      0.1605
    156  C         58.2830   96.7480  149.3990 C.2   149  PHE149      0.2264
    157  O         58.2890   96.8190  150.6390 O.2   149  PHE149     -0.2867
    158  CB        58.6100   94.3010  149.0820 C.3   149  PHE149      0.0534
    159  CG        59.9110   94.2730  148.3480 C.ar  149  PHE149     -0.0203
    160  CD1       61.0010   95.0200  148.7990 C.ar  149  PHE149     -0.0042
    161  CD2       60.0290   93.5410  147.1730 C.ar  149  PHE149     -0.0042
    162  CE1       62.2120   95.0380  148.0790 C.ar  149  PHE149     -0.0003
    163  CE2       61.2190   93.5540  146.4600 C.ar  149  PHE149     -0.0003
    164  CZ        62.3080   94.3060  146.8890 C.ar  149  PHE149     -0.0000
    165  N         68.2400   95.2720  151.1120 N.3   170  LYS170     -0.1245
    166  CA        68.9320   95.0240  149.8550 C.3   170  LYS170      0.1561
    167  C         68.3030   95.8430  148.7350 C.2   170  LYS170      0.2260
    168  O         67.0720   95.8560  148.5510 O.2   170  LYS170     -0.2867
    169  CB        68.8390   93.5360  149.4970 C.3   170  LYS170      0.0271
    170  CG        69.7550   93.1650  148.3610 C.3   170  LYS170      0.0035
    171  CD        68.9620   93.0260  147.1350 C.3   170  LYS170      0.0206
    172  CE        69.6100   92.0220  146.2270 C.3   170  LYS170      0.1093
    173  NZ        69.4870   90.6640  146.7880 N.3   170  LYS170     -0.1314
@<TRIPOS>BOND
     1   150   149    2
     2   149   148    1
     3   138   137    1
     4   151   148    1
     5   151   152    1
     6   148   147    1
     7   152   153    1
     8   137   135   ar
     9   137   136   ar
    10   142   141    2
    11   145   144   ar
    12   135   133   ar
    13   147   141   am
    14   147   153    1
    15   141   140    1
    16   136   134   ar
    17   144   146   ar
    18   144   143    1
    19   133   132   ar
    20   143   140    1
    21   140   139    1
    22   134   132   ar
    23   132   131    1
    24   139   129   am
    25   129   130    2
    26   129   128    1
    27   131   128    1
    28   128   127    1
    29    92    90   am
    30    91    90    2
    31   172   173    1
    32   172   171    1
    33   163   164   ar
    34   163   161   ar
    35    83    82    1
    36   127   121   am
    37    90    89    1
    38   164   162   ar
    39   171   170    1
    40   161   159   ar
    41   154   155    1
    42    46    47    2
    43    46    45    1
    44   122   121    2
    45   121   120    1
    46    84    82    1
    47    89    86    1
    48    82    81    1
    49   104   102   ar
    50    81    78    1
    51   162   160   ar
    52   159   160   ar
    53   159   158    1
    54   170   169    1
    55    45    48    1
    56    45    44    1
    57   168   167    2
    58   155   158    1
    59   155   156    1
    60   167   166    1
    61    48    49    1
    62     8     6   am
    63   114   113    2
    64    86    85    1
    65    86    87    1
    66   120   123    1
    67   120   119    1
    68     7     6    2
    69   102   103   ar
    70   102   101    1
    71    85    79   am
    72   156   157    2
    73    79    78    1
    74    79    80    2
    75     6     5    1
    76   123   124    1
    77    78    77    1
    78    75    74   ar
    79   169   166    1
    80    44    42   am
    81    43    42    2
    82   117   116   ar
    83   166   165    1
    84   101    98    1
    85     1     2    1
    86   113   119   am
    87   113   112    1
    88   118   116   ar
    89    87    88    2
    90    42    41    1
    91    77    71   am
    92   116   115    1
    93    76    74   ar
    94    74    73    1
    95    98    97    1
    96    98    99    1
    97   124   125    1
    98     5     2    1
    99     2     3    1
   100    97    95   am
   101   112   115    1
   102   112   111    1
   103   125   126    1
   104    71    72    2
   105    71    70    1
   106    41    40    1
   107    34    33    2
   108    95    94    1
   109    95    96    2
   110    32    33    1
   111    32    31    1
   112   110   109    1
   113    94    93    1
   114    73    70    1
   115    99   105   am
   116    99   100    2
   117   105   106    1
   118    33    35   am
   119    40    37   am
   120     3     4    2
   121    70    69    1
   122    55    56    1
   123    55    54    1
   124    56    50    1
   125    37    38    2
   126    37    36    1
   127   109   106    1
   128    35    36    1
   129   106   107    1
   130    17    15   ar
   131    17    19   ar
   132    54    51    1
   133    20    19    1
   134    69    63   am
   135   107   108    2
   136    15    14   ar
   137    36    39    1
   138     9    10    1
   139    67    66    2
   140    19    18   ar
   141    64    63    2
   142    50    51    1
   143    63    62    1
   144    51    52    1
   145    68    66   am
   146    66    65    1
   147    14    13    1
   148    14    16   ar
   149    57    52   am
   150    57    58    1
   151    10    13    1
   152    10    11    1
   153    18    16   ar
   154    30    29   ar
   155    30    28   ar
   156    52    53    2
   157    58    59    1
   158    62    65    1
   159    62    61    1
   160    29    27   ar
   161    11    12    2
   162    28    26   ar
   163    24    23    2
   164    23    22    1
   165    27    26   ar
   166    59    60    2
   167    26    25    1
   168    22    25    1
   169    22    21    1
