@<TRIPOS>MOLECULE
tmp/5ynoA00.pdb
 163 159 0 0 0
SMALL
GASTEIGER

@<TRIPOS>ATOM
      1  N         75.3210   82.9510  148.9730 N.3    41  ASN41      -0.1240
      2  CA        74.6280   83.8080  149.9240 C.3    41  ASN41       0.1653
      3  C         75.1260   83.6330  151.3550 C.2    41  ASN41       0.2266
      4  O         74.8900   84.5150  152.1880 O.2    41  ASN41      -0.2867
      5  CB        73.1260   83.5760  149.8230 C.3    41  ASN41       0.1155
      6  CG        72.5490   84.2170  148.5680 C.2    41  ASN41       0.2627
      7  OD1       73.2360   85.0100  147.9170 O.2    41  ASN41      -0.2716
      8  ND2       71.3090   83.8840  148.2150 N.am   41  ASN41      -0.0877
      9  N         75.9110   87.2190  153.0390 N.3    45  TYR45      -0.1241
     10  CA        75.2950   87.6400  154.2950 C.3    45  TYR45       0.1605
     11  C         76.3350   87.8350  155.3920 C.2    45  TYR45       0.2264
     12  O         76.2030   88.7450  156.2360 O.2    45  TYR45      -0.2867
     13  CB        74.2300   86.6250  154.7350 C.3    45  TYR45       0.0534
     14  CG        72.8370   86.8860  154.1830 C.ar   45  TYR45      -0.0201
     15  CD1       72.5390   86.5880  152.8650 C.ar   45  TYR45      -0.0009
     16  CD2       71.8120   87.3890  154.9970 C.ar   45  TYR45      -0.0009
     17  CE1       71.2780   86.7770  152.3550 C.ar   45  TYR45       0.0417
     18  CE2       70.5450   87.5960  154.4950 C.ar   45  TYR45       0.0417
     19  CZ        70.2870   87.2900  153.1640 C.ar   45  TYR45       0.1957
     20  OH        69.0340   87.4500  152.6180 O.3    45  TYR45      -0.2866
     21  N         62.4600   88.2710  151.9970 N.3    69  GLY69      -0.1210
     22  CA        63.1560   87.7390  150.8410 C.3    69  GLY69       0.1956
     23  C         64.1460   86.6690  151.2390 C.2    69  GLY69       0.2612
     24  O         65.2320   86.5740  150.6440 O.2    69  GLY69      -0.2717
     25  N         63.8030   85.8620  152.2440 N.am   70  ALA70      -0.1965
     26  CA        64.7590   84.9140  152.8130 C.3    70  ALA70       0.1728
     27  C         64.8320   83.5960  152.0570 C.2    70  ALA70       0.2617
     28  O         65.7610   82.8210  152.3060 O.2    70  ALA70      -0.2715
     29  CB        64.4030   84.6370  154.2690 C.3    70  ALA70       0.0334
     30  N         63.8770   83.3100  151.1540 N.am   71  GLY71      -0.1940
     31  CA        63.8650   82.0330  150.4670 C.3    71  GLY71       0.2014
     32  C         64.7600   81.9860  149.2270 C.2    71  GLY71       0.2639
     33  O         65.1440   82.9930  148.6450 O.2    71  GLY71      -0.2714
     34  N         65.1120   80.7800  148.8120 N.am   72  SER72      -0.1949
     35  CA        65.8050   80.5800  147.5480 C.3    72  SER72       0.1924
     36  C         65.0220   79.5820  146.7000 C.2    72  SER72       0.2314
     37  O         64.1170   78.8940  147.1840 O.2    72  SER72      -0.2863
     38  CB        67.2450   80.1030  147.7760 C.3    72  SER72       0.2116
     39  OG        67.2730   78.8260  148.3900 O.3    72  SER72      -0.2180
     40  N         69.8900   80.3410  153.2710 N.3    78  PRO78      -0.2102
     41  CA        71.2490   80.4510  153.8230 C.3    78  PRO78       0.1504
     42  C         71.4490   81.7230  154.6290 C.2    78  PRO78       0.2576
     43  O         72.1230   81.6960  155.6700 O.2    78  PRO78      -0.2718
     44  CB        72.1490   80.4150  152.5770 C.3    78  PRO78       0.0282
     45  CG        71.2690   79.8250  151.4840 C.3    78  PRO78       0.0208
     46  CD        69.8860   80.2980  151.7940 C.3    78  PRO78       0.0893
     47  N         70.8800   82.8380  154.1610 N.am   79  GLY79      -0.1957
     48  CA        70.9930   84.1010  154.8980 C.3    79  GLY79       0.1869
     49  C         70.4240   84.0250  156.3030 C.2    79  GLY79       0.2309
     50  O         71.0350   84.5160  157.2560 O.2    79  GLY79      -0.2863
     51  N         60.5390   85.5930  155.8390 N.3    96  ASN96      -0.1225
     52  CA        59.3900   85.6650  154.9560 C.3    96  ASN96       0.1785
     53  C         59.8810   85.5910  153.5220 C.2    96  ASN96       0.2597
     54  O         60.9840   86.0410  153.2100 O.2    96  ASN96      -0.2718
     55  CB        58.5820   86.9670  155.1900 C.3    96  ASN96       0.1169
     56  CG        57.6890   87.3130  154.0110 C.2    96  ASN96       0.2627
     57  OD1       57.9770   88.2460  153.2410 O.2    96  ASN96      -0.2716
     58  ND2       56.6060   86.5450  153.8370 N.am   96  ASN96      -0.0877
     59  N         59.0610   85.0020  152.6590 N.am   97  ASP97      -0.1960
     60  CA        59.3270   84.9960  151.2280 C.3    97  ASP97       0.1840
     61  C         58.0400   84.6210  150.5010 C.2    97  ASP97       0.2622
     62  O         57.1520   83.9820  151.0750 O.2    97  ASP97      -0.2715
     63  CB        60.4570   84.0170  150.8590 C.3    97  ASP97       0.1450
     64  CG        61.0450   84.3050  149.4910 C.2    97  ASP97       0.3671
     65  OD1       60.3830   83.9720  148.4780 O.co2  97  ASP97      -0.2456
     66  OD2       62.1530   84.8730  149.4140 O.co2  97  ASP97      -0.2456
     67  N         57.9660   84.9940  149.2210 N.am   98  LEU98      -0.1963
     68  CA        56.8140   84.5840  148.4150 C.3    98  LEU98       0.1728
     69  C         56.7050   83.0660  148.3450 C.2    98  LEU98       0.2616
     70  O         55.6020   82.5120  148.4060 O.2    98  LEU98      -0.2715
     71  CB        56.9120   85.1460  146.9980 C.3    98  LEU98       0.0311
     72  CG        56.6300   86.6310  146.8130 C.3    98  LEU98       0.0022
     73  CD1       57.2590   87.0640  145.5140 C.3    98  LEU98       0.0001
     74  CD2       55.1370   86.8680  146.7940 C.3    98  LEU98       0.0001
     75  N         57.8350   82.3840  148.2090 N.am   99  ASN99      -0.1972
     76  CA        57.8490   80.9530  147.9570 C.3    99  ASN99       0.1688
     77  C         58.1720   80.1620  149.2220 C.2    99  ASN99       0.2292
     78  O         58.8190   80.6550  150.1570 O.2    99  ASN99      -0.2864
     79  CB        58.8600   80.6340  146.8550 C.3    99  ASN99       0.1181
     80  CG        58.6540   81.5010  145.6230 C.2    99  ASN99       0.2629
     81  OD1       59.5780   82.1850  145.1620 O.2    99  ASN99      -0.2716
     82  ND2       57.4310   81.4950  145.0980 N.am   99  ASN99      -0.0877
     83  N         54.2740   83.8910  151.5300 N.3   111  GLY111     -0.1210
     84  CA        53.4100   84.8420  150.8470 C.3   111  GLY111      0.1956
     85  C         54.0780   86.2010  150.6910 C.2   111  GLY111      0.2612
     86  O         55.1850   86.4490  151.1800 O.2   111  GLY111     -0.2717
     87  N         53.3670   87.0810  149.9750 N.am  112  ASP112     -0.1959
     88  CA        53.8150   88.4560  149.7470 C.3   112  ASP112      0.1840
     89  C         54.1850   89.1200  151.0690 C.2   112  ASP112      0.2622
     90  O         53.4950   88.9390  152.0750 O.2   112  ASP112     -0.2715
     91  CB        52.6910   89.2470  149.0490 C.3   112  ASP112      0.1450
     92  CG        53.1880   90.5090  148.3420 C.2   112  ASP112      0.3671
     93  OD1       53.9970   91.2590  148.9180 O.co2 112  ASP112     -0.2456
     94  OD2       52.7620   90.7600  147.1940 O.co2 112  ASP112     -0.2456
     95  N         55.2840   89.8950  151.0790 N.am  113  CYS113     -0.1968
     96  CA        55.6660   90.5490  152.3310 C.3   113  CYS113      0.1712
     97  C         54.5330   91.4130  152.8640 C.2   113  CYS113      0.2296
     98  O         54.4290   91.6080  154.0800 O.2   113  CYS113     -0.2864
     99  CB        56.9370   91.3890  152.1730 C.3   113  CYS113      0.0983
    100  SG        56.8220   92.7650  150.9940 S.3   113  CYS113     -0.0798
    101  N         66.2720   91.1360  151.4070 N.3   128  ASP128     -0.1225
    102  CA        66.9680   90.7080  150.2010 C.3   128  ASP128      0.1805
    103  C         65.9810   90.5510  149.0600 C.2   128  ASP128      0.2598
    104  O         66.2650   89.8720  148.0650 O.2   128  ASP128     -0.2718
    105  CB        67.7320   89.3990  150.4570 C.3   128  ASP128      0.1424
    106  CG        68.8170   89.1360  149.4300 C.2   128  ASP128      0.3668
    107  OD1       69.4960   90.1000  148.9950 O.co2 128  ASP128     -0.2456
    108  OD2       69.0000   87.9520  149.0570 O.co2 128  ASP128     -0.2456
    109  N         64.8150   91.1650  149.1960 N.am  129  MET129     -0.1965
    110  CA        63.7870   91.0240  148.1830 C.3   129  MET129      0.1736
    111  C         64.2360   91.6390  146.8650 C.2   129  MET129      0.2616
    112  O         64.9750   92.6360  146.8280 O.2   129  MET129     -0.2715
    113  CB        62.4990   91.6870  148.6480 C.3   129  MET129      0.0427
    114  CG        61.8820   90.9840  149.8430 C.3   129  MET129      0.0599
    115  SD        60.2270   91.6000  150.1690 S.3   129  MET129     -0.1393
    116  CE        60.6150   93.2080  150.9020 C.3   129  MET129      0.0692
    117  N         63.7950   91.0070  145.7840 N.am  130  TYR130     -0.1960
    118  CA        64.0220   91.4550  144.4180 C.3   130  TYR130      0.1771
    119  C         62.9310   90.8210  143.5700 C.2   130  TYR130      0.2620
    120  O         62.7320   89.6010  143.6260 O.2   130  TYR130     -0.2715
    121  CB        65.4170   91.0470  143.9170 C.3   130  TYR130      0.0574
    122  CG        65.7080   91.4470  142.4760 C.ar  130  TYR130     -0.0198
    123  CD1       65.2320   90.6840  141.4060 C.ar  130  TYR130     -0.0009
    124  CD2       66.4820   92.5760  142.1940 C.ar  130  TYR130     -0.0009
    125  CE1       65.4980   91.0360  140.0950 C.ar  130  TYR130      0.0417
    126  CE2       66.7670   92.9400  140.8860 C.ar  130  TYR130      0.0417
    127  CZ        66.2710   92.1630  139.8390 C.ar  130  TYR130      0.1957
    128  OH        66.5320   92.5180  138.5420 O.3   130  TYR130     -0.2866
    129  N         62.2210   91.6420  142.8030 N.am  131  ASP131     -0.1958
    130  CA        61.1100   91.1550  142.0020 C.3   131  ASP131      0.1825
    131  C         61.6250   90.7160  140.6390 C.2   131  ASP131      0.2464
    132  O         62.2500   91.5300  139.9370 O.2   131  ASP131     -0.2730
    133  CB        60.0500   92.2420  141.8470 C.3   131  ASP131      0.1450
    134  CG        58.7690   91.7220  141.2270 C.2   131  ASP131      0.3671
    135  OD1       58.8470   91.0730  140.1730 O.co2 131  ASP131     -0.2456
    136  OD2       57.6830   91.9710  141.7930 O.co2 131  ASP131     -0.2456
    137  N         61.3790   89.4670  140.2200 N.am  132  PRO132     -0.2727
    138  CA        61.8360   89.0120  138.8910 C.3   132  PRO132      0.1402
    139  C         61.5240   89.9530  137.7330 C.2   132  PRO132      0.2269
    140  O         62.3130   90.0150  136.7780 O.2   132  PRO132     -0.2865
    141  CB        61.0990   87.6760  138.7080 C.3   132  PRO132      0.0296
    142  CG        60.8370   87.1910  140.0730 C.3   132  PRO132      0.0237
    143  CD        60.6250   88.4160  140.9330 C.3   132  PRO132      0.0939
    144  N         57.6910   95.9690  146.4870 N.3   147  PHE147     -0.1241
    145  CA        57.7140   95.8070  147.9410 C.3   147  PHE147      0.1605
    146  C         58.2910   97.0200  148.6720 C.2   147  PHE147      0.2264
    147  O         58.3230   97.0320  149.9130 O.2   147  PHE147     -0.2867
    148  CB        58.5700   94.5850  148.2900 C.3   147  PHE147      0.0534
    149  CG        59.8910   94.5880  147.5750 C.ar  147  PHE147     -0.0203
    150  CD1       60.9510   95.3640  148.0500 C.ar  147  PHE147     -0.0042
    151  CD2       60.0590   93.8700  146.4000 C.ar  147  PHE147     -0.0042
    152  CE1       62.1600   95.4170  147.3600 C.ar  147  PHE147     -0.0003
    153  CE2       61.2630   93.9130  145.7210 C.ar  147  PHE147     -0.0003
    154  CZ        62.3180   94.6950  146.2000 C.ar  147  PHE147     -0.0000
    155  N         68.2120   95.4650  150.2380 N.3   168  LYS168     -0.1245
    156  CA        68.9430   95.2210  148.9980 C.3   168  LYS168      0.1561
    157  C         68.3410   96.0330  147.8740 C.2   168  LYS168      0.2260
    158  O         67.1180   96.0540  147.6800 O.2   168  LYS168     -0.2867
    159  CB        68.9230   93.7280  148.6160 C.3   168  LYS168      0.0271
    160  CG        69.9390   93.3960  147.5300 C.3   168  LYS168      0.0035
    161  CD        69.3410   93.3850  146.1450 C.3   168  LYS168      0.0206
    162  CE        68.5180   92.0930  145.9000 C.3   168  LYS168      0.1093
    163  NZ        69.3080   90.8570  146.2420 N.3   168  LYS168     -0.1314
@<TRIPOS>BOND
     1   140   139    2
     2   139   138    1
     3   128   127    1
     4   141   138    1
     5   141   142    1
     6   138   137    1
     7   127   125   ar
     8   127   126   ar
     9   132   131    2
    10   142   143    1
    11   125   123   ar
    12   135   134   ar
    13   137   131   am
    14   137   143    1
    15   131   130    1
    16   126   124   ar
    17   134   136   ar
    18   134   133    1
    19   123   122   ar
    20   133   130    1
    21   130   129    1
    22   124   122   ar
    23   122   121    1
    24   129   119   am
    25   119   120    2
    26   119   118    1
    27   121   118    1
    28   118   117    1
    29    82    80   am
    30    81    80    2
    31    73    72    1
    32    80    79    1
    33   153   154   ar
    34   153   151   ar
    35   117   111   am
    36   162   161    1
    37   162   163    1
    38   161   160    1
    39   154   152   ar
    40   151   149   ar
    41   144   145    1
    42    36    37    2
    43    36    35    1
    44    74    72    1
    45    72    71    1
    46   112   111    2
    47    79    76    1
    48   111   110    1
    49    71    68    1
    50    94    92   ar
    51   152   150   ar
    52   160   159    1
    53    35    38    1
    54    35    34    1
    55   149   150   ar
    56   149   148    1
    57   158   157    2
    58    38    39    1
    59   157   156    1
    60     7     6    2
    61   145   148    1
    62   145   146    1
    63    76    75    1
    64    76    77    1
    65   104   103    2
    66   110   113    1
    67   110   109    1
    68    75    69   am
    69     8     6   am
    70    92    93   ar
    71    92    91    1
    72    69    70    2
    73    69    68    1
    74    68    67    1
    75    65    64   ar
    76     6     5    1
    77   159   156    1
    78    33    32    2
    79   113   114    1
    80   146   147    2
    81    34    32   am
    82     1     2    1
    83   107   106   ar
    84   156   155    1
    85    91    88    1
    86   108   106   ar
    87   103   109   am
    88   103   102    1
    89    67    61   am
    90    77    78    2
    91    32    31    1
    92    66    64   ar
    93   106   105    1
    94    64    63    1
    95    88    87    1
    96    88    89    1
    97     5     2    1
    98   114   115    1
    99     2     3    1
   100    87    85   am
   101   115   116    1
   102   102   105    1
   103   102   101    1
   104    31    30    1
   105    61    62    2
   106    61    60    1
   107    24    23    2
   108    85    84    1
   109    85    86    2
   110    22    23    1
   111    22    21    1
   112    84    83    1
   113    63    60    1
   114   100    99    1
   115    89    95   am
   116    89    90    2
   117    95    96    1
   118    30    27   am
   119    60    59    1
   120    23    25   am
   121     3     4    2
   122    45    46    1
   123    45    44    1
   124    46    40    1
   125    27    28    2
   126    27    26    1
   127    99    96    1
   128    25    26    1
   129    96    97    1
   130    17    15   ar
   131    17    19   ar
   132    44    41    1
   133    20    19    1
   134    59    53   am
   135    26    29    1
   136    97    98    2
   137    15    14   ar
   138     9    10    1
   139    19    18   ar
   140    54    53    2
   141    57    56    2
   142    40    41    1
   143    53    52    1
   144    41    42    1
   145    58    56   am
   146    56    55    1
   147    47    42   am
   148    47    48    1
   149    14    13    1
   150    14    16   ar
   151    10    13    1
   152    10    11    1
   153    18    16   ar
   154    42    43    2
   155    48    49    1
   156    52    55    1
   157    52    51    1
   158    11    12    2
   159    49    50    2
