@<TRIPOS>MOLECULE
tmp/5yntB00.pdb
 209 193 0 0 0
SMALL
GASTEIGER

@<TRIPOS>ATOM
      1  N         -5.4440  -19.2460  -45.0500 N.3    52  ARG52      -0.1245
      2  CA        -5.1050  -20.6380  -44.8430 C.3    52  ARG52       0.1563
      3  C         -3.8860  -21.0030  -45.6850 C.2    52  ARG52       0.2260
      4  O         -3.7650  -20.5370  -46.8100 O.2    52  ARG52      -0.2867
      5  CB        -6.2570  -21.5130  -45.3170 C.3    52  ARG52       0.0307
      6  CG        -5.8180  -22.9630  -45.5310 C.3    52  ARG52       0.0489
      7  CD        -6.9640  -23.8510  -45.9620 C.3    52  ARG52       0.2205
      8  NE        -7.8680  -24.1160  -44.8450 N.pl3  52  ARG52      -0.0865
      9  CZ        -8.8660  -24.9830  -44.8760 C.cat  52  ARG52       0.5346
     10  NH1       -9.1620  -25.6110  -46.0070 N.pl3  52  ARG52       0.1354
     11  NH2       -9.5760  -25.2110  -43.7760 N.pl3  52  ARG52       0.1354
     12  N         -1.9570  -24.8000  -46.7270 N.3    54  GLN54      -0.1245
     13  CA        -2.0350  -26.2380  -46.5830 C.3    54  GLN54       0.1566
     14  C         -0.8970  -26.8630  -47.3630 C.2    54  GLN54       0.2260
     15  O         -0.4020  -26.2560  -48.3020 O.2    54  GLN54      -0.2867
     16  CB        -3.3930  -26.7640  -47.0650 C.3    54  GLN54       0.0367
     17  CG        -3.7760  -26.4070  -48.4690 C.3    54  GLN54       0.0905
     18  CD        -5.1770  -26.8720  -48.8260 C.2    54  GLN54       0.2608
     19  OE1       -6.0310  -27.0450  -47.9650 O.2    54  GLN54      -0.2717
     20  NE2       -5.3990  -27.1280  -50.1150 N.am   54  GLN54      -0.0878
     21  N        -10.5710  -17.0980  -47.0360 N.3    66  ARG66      -0.1245
     22  CA       -11.9660  -17.4940  -46.8190 C.3    66  ARG66       0.1563
     23  C        -12.6800  -16.5970  -45.8490 C.2    66  ARG66       0.2260
     24  O        -12.0290  -15.9080  -45.0690 O.2    66  ARG66      -0.2867
     25  CB       -12.0190  -18.9210  -46.3220 C.3    66  ARG66       0.0307
     26  CG       -11.3120  -19.1620  -45.0240 C.3    66  ARG66       0.0489
     27  CD        -9.9280  -19.7460  -45.2810 C.3    66  ARG66       0.2205
     28  NE        -9.9780  -20.8970  -46.1860 N.pl3  66  ARG66      -0.0865
     29  CZ       -10.5100  -22.0780  -45.8600 C.cat  66  ARG66       0.5346
     30  NH1      -10.9390  -22.3170  -44.6320 N.pl3  66  ARG66       0.1354
     31  NH2      -10.6120  -23.0210  -46.7710 N.pl3  66  ARG66       0.1354
     32  N        -14.7090  -19.7510  -49.9800 N.3   112  ASP112     -0.1239
     33  CA       -13.2550  -19.7670  -49.9700 C.3   112  ASP112      0.1674
     34  C        -12.6660  -19.8000  -51.3440 C.2   112  ASP112      0.2266
     35  O        -13.3160  -20.2120  -52.2940 O.2   112  ASP112     -0.2867
     36  CB       -12.6210  -20.7840  -49.0630 C.3   112  ASP112      0.1410
     37  CG       -12.7650  -22.1740  -49.5310 C.2   112  ASP112      0.3668
     38  OD1      -11.8480  -22.7560  -50.1040 O.co2 112  ASP112     -0.2456
     39  OD2      -13.7190  -22.7960  -49.1050 O.co2 112  ASP112     -0.2456
     40  N        -13.4150  -21.5340  -54.8190 N.3   120  VAL120     -0.1231
     41  CA       -13.3420  -22.9810  -54.7230 C.3   120  VAL120      0.1692
     42  C        -14.5840  -23.5530  -54.0610 C.2   120  VAL120      0.2591
     43  O        -15.1590  -24.4730  -54.5980 O.2   120  VAL120     -0.2718
     44  CB       -12.0860  -23.4320  -53.9610 C.3   120  VAL120      0.0266
     45  CG1      -12.0940  -24.9250  -53.7130 C.3   120  VAL120      0.0020
     46  CG2      -10.8470  -23.0160  -54.7200 C.3   120  VAL120      0.0020
     47  N        -15.0100  -22.9970  -52.9240 N.am  121  LYS121     -0.1980
     48  CA       -16.1950  -23.4750  -52.2390 C.3   121  LYS121      0.1596
     49  C        -17.1510  -22.3890  -51.7890 C.2   121  LYS121      0.2287
     50  O        -16.7530  -21.2490  -51.5530 O.2   121  LYS121     -0.2864
     51  CB       -15.8560  -24.2860  -50.9870 C.3   121  LYS121      0.0298
     52  CG       -14.8460  -25.4000  -51.1820 C.3   121  LYS121      0.0038
     53  CD       -14.9850  -26.4700  -50.1070 C.3   121  LYS121      0.0206
     54  CE       -14.8000  -25.9310  -48.7070 C.3   121  LYS121      0.1093
     55  NZ       -13.3900  -25.5240  -48.4810 N.3   121  LYS121     -0.1314
     56  N        -20.1180  -22.2660  -48.6050 N.3   123  TRP123     -0.1241
     57  CA       -20.5630  -22.9600  -47.4110 C.3   123  TRP123      0.1605
     58  C        -21.9900  -22.5930  -47.0820 C.2   123  TRP123      0.2264
     59  O        -22.3850  -21.4290  -47.1660 O.2   123  TRP123     -0.2867
     60  CB       -19.7410  -22.5480  -46.2020 C.3   123  TRP123      0.0550
     61  CG       -18.2950  -22.3960  -46.4160 C.ar  123  TRP123      0.0003
     62  CD1      -17.5760  -22.7930  -47.4860 C.ar  123  TRP123      0.0946
     63  CD2      -17.3800  -21.7190  -45.5480 C.ar  123  TRP123      0.0152
     64  NE1      -16.2600  -22.4340  -47.3290 N.ar  123  TRP123     -0.2442
     65  CE2      -16.1190  -21.7660  -46.1490 C.ar  123  TRP123      0.0810
     66  CE3      -17.5210  -21.0590  -44.3170 C.ar  123  TRP123      0.0012
     67  CZ2      -14.9830  -21.2510  -45.5490 C.ar  123  TRP123      0.0191
     68  CZ3      -16.3970  -20.5080  -43.7310 C.ar  123  TRP123      0.0001
     69  CH2      -15.1380  -20.6350  -44.3310 C.ar  123  TRP123      0.0015
     70  N        -20.6860  -28.0400  -47.5190 N.3   163  THR163     -0.1218
     71  CA       -20.0320  -27.2540  -48.5520 C.3   163  THR163      0.1862
     72  C        -20.0880  -27.8720  -49.9300 C.2   163  THR163      0.2287
     73  O        -20.2060  -29.0780  -50.0820 O.2   163  THR163     -0.2866
     74  CB       -18.5660  -26.9370  -48.2200 C.3   163  THR163      0.1770
     75  OG1      -17.8150  -28.1600  -48.1460 O.3   163  THR163     -0.2211
     76  CG2      -18.4610  -26.2060  -46.8480 C.3   163  THR163      0.0375
     77  N        -17.7000  -27.8910  -53.4690 N.3   165  ASP165     -0.1239
     78  CA       -16.3910  -27.5710  -54.0110 C.3   165  ASP165      0.1674
     79  C        -16.4700  -27.6590  -55.5150 C.2   165  ASP165      0.2266
     80  O        -16.5840  -28.7410  -56.0990 O.2   165  ASP165     -0.2867
     81  CB       -15.2860  -28.4950  -53.4670 C.3   165  ASP165      0.1410
     82  CG       -13.9060  -28.1090  -53.9220 C.2   165  ASP165      0.3668
     83  OD1      -13.7220  -27.6380  -55.0750 O.co2 165  ASP165     -0.2456
     84  OD2      -12.9490  -28.3820  -53.1290 O.co2 165  ASP165     -0.2456
     85  N        -18.7550  -31.6470  -48.9310 N.3   172  ASN172     -0.1240
     86  CA       -18.3930  -32.0780  -47.5680 C.3   172  ASN172      0.1653
     87  C        -19.6110  -31.9470  -46.6610 C.2   172  ASN172      0.2266
     88  O        -20.3550  -30.9570  -46.7360 O.2   172  ASN172     -0.2867
     89  CB       -17.3230  -31.1800  -46.9600 C.3   172  ASN172      0.1155
     90  CG       -15.9750  -31.2830  -47.6350 C.2   172  ASN172      0.2627
     91  OD1      -15.6630  -32.2320  -48.3780 O.2   172  ASN172     -0.2716
     92  ND2      -15.1480  -30.2610  -47.3820 N.am  172  ASN172     -0.0877
     93  N        -20.2510  -31.7010  -42.5730 N.3   174  TYR174     -0.1241
     94  CA       -19.5300  -31.3990  -41.3410 C.3   174  TYR174      0.1605
     95  C        -20.4210  -31.7570  -40.1580 C.2   174  TYR174      0.2264
     96  O        -21.6200  -31.4580  -40.1510 O.2   174  TYR174     -0.2867
     97  CB       -19.1560  -29.9230  -41.2420 C.3   174  TYR174      0.0534
     98  CG       -18.2770  -29.4420  -42.3450 C.ar  174  TYR174     -0.0201
     99  CD1      -18.8150  -29.1990  -43.5830 C.ar  174  TYR174     -0.0009
    100  CD2      -16.9220  -29.1460  -42.1480 C.ar  174  TYR174     -0.0009
    101  CE1      -18.0270  -28.7480  -44.6070 C.ar  174  TYR174      0.0417
    102  CE2      -16.1250  -28.7230  -43.2090 C.ar  174  TYR174      0.0417
    103  CZ       -16.7010  -28.5190  -44.4270 C.ar  174  TYR174      0.1957
    104  OH       -15.9590  -28.1160  -45.5280 O.3   174  TYR174     -0.2866
    105  N        -15.2210  -30.7600  -34.5670 N.3   213  GLU213     -0.1245
    106  CA       -15.8550  -30.7810  -35.8790 C.3   213  GLU213      0.1567
    107  C        -15.1550  -31.7520  -36.7880 C.2   213  GLU213      0.2260
    108  O        -13.9380  -31.7280  -36.8920 O.2   213  GLU213     -0.2867
    109  CB       -15.8170  -29.3860  -36.4790 C.3   213  GLU213      0.0388
    110  CG       -16.6540  -29.2330  -37.7340 C.3   213  GLU213      0.1160
    111  CD       -16.6860  -27.8040  -38.2350 C.2   213  GLU213      0.3649
    112  OE1      -17.0570  -26.8600  -37.5250 O.co2 213  GLU213     -0.2457
    113  OE2      -16.0250  -27.5870  -39.2200 O.co2 213  GLU213     -0.2457
    114  N        -15.2170  -33.3330  -40.7680 N.3   215  ALA215     -0.1245
    115  CA       -15.7130  -33.2390  -42.1310 C.3   215  ALA215      0.1562
    116  C        -15.5300  -34.5690  -42.8510 C.2   215  ALA215      0.2260
    117  O        -14.5050  -35.2420  -42.6990 O.2   215  ALA215     -0.2867
    118  CB       -14.9890  -32.1670  -42.8980 C.3   215  ALA215      0.0290
    119  N        -15.7680  -36.0040  -46.8790 N.3   217  THR217     -0.1218
    120  CA       -15.8640  -35.5930  -48.2760 C.3   217  THR217      0.1862
    121  C        -16.4240  -36.6980  -49.1730 C.2   217  THR217      0.2287
    122  O        -15.9400  -37.8230  -49.1560 O.2   217  THR217     -0.2866
    123  CB       -14.4700  -35.2350  -48.7750 C.3   217  THR217      0.1770
    124  OG1      -13.9260  -34.1960  -47.9660 O.3   217  THR217     -0.2211
    125  CG2      -14.5300  -34.7680  -50.2290 C.3   217  THR217      0.0375
    126  N        -12.0900  -38.3890  -48.4790 N.3   227  ARG227     -0.1245
    127  CA       -11.1600  -38.0020  -47.4120 C.3   227  ARG227      0.1563
    128  C        -11.9970  -37.5520  -46.2280 C.2   227  ARG227      0.2260
    129  O        -13.1890  -37.2950  -46.3780 O.2   227  ARG227     -0.2867
    130  CB       -10.2070  -36.8560  -47.8420 C.3   227  ARG227      0.0307
    131  CG       -10.8750  -35.6720  -48.4770 C.3   227  ARG227      0.0489
    132  CD        -9.8250  -34.7290  -49.1180 C.3   227  ARG227      0.2205
    133  NE       -10.4040  -33.8260  -50.1310 N.pl3 227  ARG227     -0.0865
    134  CZ       -10.9630  -32.6400  -49.8820 C.cat 227  ARG227      0.5346
    135  NH1      -10.9800  -32.1290  -48.6620 N.pl3 227  ARG227      0.1354
    136  NH2      -11.5570  -31.9800  -50.8510 N.pl3 227  ARG227      0.1354
    137  N        -11.6230  -34.9910  -42.4160 N.3   229  CYS229     -0.1235
    138  CA       -10.7860  -33.9990  -41.7990 C.3   229  CYS229      0.1677
    139  C        -11.3030  -33.6710  -40.4090 C.2   229  CYS229      0.2270
    140  O        -12.5160  -33.5490  -40.1900 O.2   229  CYS229     -0.2867
    141  CB       -10.7420  -32.7370  -42.6600 C.3   229  CYS229      0.0956
    142  SG        -9.6150  -31.4510  -42.0980 S.3   229  CYS229     -0.0801
    143  N        -11.0570  -31.0220  -37.2950 N.3   231  TYR231     -0.1241
    144  CA       -10.6660  -29.6580  -36.9930 C.3   231  TYR231      0.1605
    145  C        -10.4490  -29.4440  -35.5060 C.2   231  TYR231      0.2264
    146  O        -11.2670  -29.8670  -34.6950 O.2   231  TYR231     -0.2867
    147  CB       -11.7300  -28.6900  -37.5160 C.3   231  TYR231      0.0534
    148  CG       -11.8370  -28.7450  -39.0180 C.ar  231  TYR231     -0.0201
    149  CD1      -11.0460  -27.9630  -39.8390 C.ar  231  TYR231     -0.0009
    150  CD2      -12.7490  -29.6020  -39.6070 C.ar  231  TYR231     -0.0009
    151  CE1      -11.1540  -28.0570  -41.2050 C.ar  231  TYR231      0.0417
    152  CE2      -12.8740  -29.7000  -40.9660 C.ar  231  TYR231      0.0417
    153  CZ       -12.0570  -28.9560  -41.7640 C.ar  231  TYR231      0.1957
    154  OH       -12.1960  -29.1130  -43.1220 O.3   231  TYR231     -0.2866
    155  N         -7.1590  -22.2490  -36.5840 N.3   265  LEU265     -0.1245
    156  CA        -7.8690  -23.5100  -36.7400 C.3   265  LEU265      0.1561
    157  C         -6.9750  -24.4000  -37.5630 C.2   265  LEU265      0.2260
    158  O         -6.5150  -24.0060  -38.6030 O.2   265  LEU265     -0.2867
    159  CB        -9.1860  -23.3170  -37.4920 C.3   265  LEU265      0.0270
    160  CG       -10.3610  -22.5640  -36.8600 C.3   265  LEU265      0.0019
    161  CD1      -11.6330  -22.7510  -37.6970 C.3   265  LEU265      0.0001
    162  CD2      -10.5970  -22.9770  -35.4170 C.3   265  LEU265      0.0001
    163  N         -2.7710  -34.5790  -45.0240 N.3   277  TYR277     -0.1241
    164  CA        -2.0150  -33.3310  -44.9740 C.3   277  TYR277      0.1605
    165  C         -2.6270  -32.4340  -43.8850 C.2   277  TYR277      0.2264
    166  O         -3.6020  -32.8130  -43.2610 O.2   277  TYR277     -0.2867
    167  CB        -2.0290  -32.5960  -46.3350 C.3   277  TYR277      0.0534
    168  CG        -3.3910  -32.2450  -46.8690 C.ar  277  TYR277     -0.0201
    169  CD1       -4.1690  -33.1850  -47.5180 C.ar  277  TYR277     -0.0009
    170  CD2       -3.8970  -30.9570  -46.7670 C.ar  277  TYR277     -0.0009
    171  CE1       -5.4240  -32.8570  -48.0210 C.ar  277  TYR277      0.0417
    172  CE2       -5.1650  -30.6320  -47.2230 C.ar  277  TYR277      0.0417
    173  CZ        -5.9210  -31.5720  -47.8740 C.ar  277  TYR277      0.1957
    174  OH        -7.1830  -31.2700  -48.3480 O.3   277  TYR277     -0.2866
    175  N         -4.0200  -28.3550  -42.7800 N.3   279  LYS279     -0.1245
    176  CA        -4.5550  -27.0700  -43.1840 C.3   279  LYS279      0.1561
    177  C         -4.4780  -26.1810  -41.9600 C.2   279  LYS279      0.2260
    178  O         -4.8060  -26.6160  -40.8910 O.2   279  LYS279     -0.2867
    179  CB        -6.0440  -27.1980  -43.5270 C.3   279  LYS279      0.0271
    180  CG        -6.3930  -28.3980  -44.4080 C.3   279  LYS279      0.0035
    181  CD        -7.8970  -28.5310  -44.5620 C.3   279  LYS279      0.0206
    182  CE        -8.2540  -29.9060  -45.0690 C.3   279  LYS279      0.1093
    183  NZ        -9.7170  -30.1370  -45.2500 N.3   279  LYS279     -0.1314
    184  N         -5.3960  -22.1850  -40.5660 N.3   281  ASP281     -0.1239
    185  CA        -6.0650  -20.9080  -40.8550 C.3   281  ASP281      0.1674
    186  C         -5.7740  -19.9380  -39.7170 C.2   281  ASP281      0.2266
    187  O         -5.9850  -20.2850  -38.5490 O.2   281  ASP281     -0.2867
    188  CB        -7.5790  -21.0830  -40.8460 C.3   281  ASP281      0.1410
    189  CG        -8.1190  -21.8070  -42.0530 C.2   281  ASP281      0.3668
    190  OD1       -7.4550  -22.6850  -42.6090 O.co2 281  ASP281     -0.2456
    191  OD2       -9.2840  -21.5340  -42.4060 O.co2 281  ASP281     -0.2456
    192  N        -13.1030  -15.7370  -35.8970 N.3   288  VAL288     -0.1245
    193  CA       -13.3070  -17.1300  -36.3370 C.3   288  VAL288      0.1561
    194  C        -13.2450  -18.1390  -35.1900 C.2   288  VAL288      0.2260
    195  O        -14.1240  -18.9850  -35.0710 O.2   288  VAL288     -0.2867
    196  CB       -12.3090  -17.5220  -37.4390 C.3   288  VAL288      0.0252
    197  CG1      -12.4210  -18.9930  -37.7800 C.3   288  VAL288      0.0019
    198  CG2      -12.5760  -16.6870  -38.6800 C.3   288  VAL288      0.0019
    199  N        -16.2240  -20.5320  -33.9820 N.3   292  PHE292     -0.1241
    200  CA       -16.0620  -21.9810  -34.0140 C.3   292  PHE292      0.1605
    201  C        -16.4870  -22.6040  -32.6620 C.2   292  PHE292      0.2264
    202  O        -17.2220  -23.5740  -32.6310 O.2   292  PHE292     -0.2867
    203  CB       -14.6040  -22.2880  -34.3210 C.3   292  PHE292      0.0534
    204  CG       -14.2910  -23.7510  -34.4430 C.ar  292  PHE292     -0.0203
    205  CD1      -14.6370  -24.4540  -35.5830 C.ar  292  PHE292     -0.0042
    206  CD2      -13.5930  -24.4040  -33.4470 C.ar  292  PHE292     -0.0042
    207  CE1      -14.2720  -25.7850  -35.7190 C.ar  292  PHE292     -0.0003
    208  CE2      -13.2050  -25.7200  -33.5890 C.ar  292  PHE292     -0.0003
    209  CZ       -13.5640  -26.4180  -34.7100 C.ar  292  PHE292     -0.0000
@<TRIPOS>BOND
     1    80    79    2
     2    79    78    1
     3    83    82   ar
     4    40    41    1
     5    41    42    1
     6    41    44    1
     7    46    44    1
     8    43    42    2
     9    42    47   am
    10    78    77    1
    11    78    81    1
    12    44    45    1
    13    82    81    1
    14    82    84   ar
    15    47    48    1
    16    35    34    2
    17    48    49    1
    18    48    51    1
    19    49    50    2
    20    34    33    1
    21    52    51    1
    22    52    53    1
    23   136   134    1
    24   125   123    1
    25   133   134    2
    26   133   132    1
    27    20    18   am
    28    53    54    1
    29    38    37   ar
    30    73    72    2
    31    32    33    1
    32    33    36    1
    33    72    71    1
    34   134   135    1
    35    37    39   ar
    36    37    36    1
    37   121   122    2
    38   121   120    1
    39   132   131    1
    40    85    86    1
    41    18    17    1
    42    18    19    2
    43   123   120    1
    44   123   124    1
    45    54    55    1
    46    56    57    1
    47    71    74    1
    48    71    70    1
    49   126   127    1
    50   131   130    1
    51    17    16    1
    52    91    90    2
    53   174   173    1
    54    15    14    2
    55   120   119    1
    56    74    75    1
    57    74    76    1
    58   171   173   ar
    59   171   169   ar
    60   173   172   ar
    61   130   127    1
    62    90    92   am
    63    90    89    1
    64    86    89    1
    65    86    87    1
    66   169   168   ar
    67    62    64   ar
    68    62    61   ar
    69   127   128    1
    70    57    58    1
    71    57    60    1
    72    14    13    1
    73    64    65   ar
    74   172   170   ar
    75    59    58    2
    76    16    13    1
    77    21    22    1
    78   168   170   ar
    79   168   167    1
    80    22    25    1
    81    22    23    1
    82     4     3    2
    83    31    29    1
    84    88    87    2
    85    12    13    1
    86    61    60    1
    87    61    63   ar
    88   129   128    2
    89   167   164    1
    90    25    26    1
    91    28    29    2
    92    28    27    1
    93    65    67   ar
    94    65    63   ar
    95    10     9    1
    96     7     6    1
    97     7     8    1
    98    29    30    1
    99    23    24    2
   100     3     2    1
   101    67    69   ar
   102    63    66   ar
   103     6     5    1
   104   104   103    1
   105     5     2    1
   106    27    26    1
   107   183   182    1
   108   182   181    1
   109     1     2    1
   110   163   164    1
   111   164   165    1
   112     9     8    2
   113     9    11    1
   114   101   103   ar
   115   101    99   ar
   116   181   180    1
   117   103   102   ar
   118   180   179    1
   119    69    68   ar
   120    66    68   ar
   121   165   166    2
   122    99    98   ar
   123   179   176    1
   124   102   100   ar
   125   176   175    1
   126   176   177    1
   127   154   153    1
   128   118   115    1
   129   116   117    2
   130   116   115    1
   131   141   142    1
   132   141   138    1
   133   190   189   ar
   134    93    94    1
   135   137   138    1
   136   191   189   ar
   137    98   100   ar
   138    98    97    1
   139   115   114    1
   140   189   188    1
   141   177   178    2
   142   138   139    1
   143   153   151   ar
   144   153   152   ar
   145    94    97    1
   146    94    95    1
   147   151   149   ar
   148   152   150   ar
   149   185   188    1
   150   185   184    1
   151   185   186    1
   152   139   140    2
   153    95    96    2
   154   149   148   ar
   155   186   187    2
   156   150   148   ar
   157   113   111   ar
   158   148   147    1
   159   198   196    1
   160   158   157    2
   161   111   110    1
   162   111   112   ar
   163   197   196    1
   164   110   109    1
   165   161   160    1
   166   157   156    1
   167   147   144    1
   168   159   160    1
   169   159   156    1
   170   196   193    1
   171   143   144    1
   172   144   145    1
   173   108   107    2
   174   160   162    1
   175   107   106    1
   176   156   155    1
   177   109   106    1
   178   193   192    1
   179   193   194    1
   180   106   105    1
   181   207   205   ar
   182   207   209   ar
   183   205   204   ar
   184   145   146    2
   185   194   195    2
   186   209   208   ar
   187   204   203    1
   188   204   206   ar
   189   203   200    1
   190   200   199    1
   191   200   201    1
   192   208   206   ar
   193   201   202    2
