@<TRIPOS>MOLECULE
tmp/5ynuA01.pdb
 148 139 0 0 0
SMALL
GASTEIGER

@<TRIPOS>ATOM
      1  N        -24.6530  -27.6320    0.6560 N.3    48  ARG48      -0.1245
      2  CA       -25.8690  -27.4510   -0.1420 C.3    48  ARG48       0.1563
      3  C        -27.0370  -26.9380    0.7010 C.2    48  ARG48       0.2260
      4  O        -27.2410  -27.3890    1.8330 O.2    48  ARG48      -0.2867
      5  CB       -26.2890  -28.8120   -0.7390 C.3    48  ARG48       0.0307
      6  CG       -27.6860  -28.7560   -1.3450 C.3    48  ARG48       0.0489
      7  CD       -28.1160  -30.0970   -1.8960 C.3    48  ARG48       0.2205
      8  NE       -27.4710  -30.2960   -3.1730 N.pl3  48  ARG48      -0.0865
      9  CZ       -27.7720  -31.2780   -4.0210 C.cat  48  ARG48       0.5346
     10  NH1      -28.6900  -32.2010   -3.6830 N.pl3  48  ARG48       0.1354
     11  NH2      -27.2020  -31.2920   -5.2250 N.pl3  48  ARG48       0.1354
     12  N        -31.3430  -26.5800   -0.0730 N.3    50  GLN50      -0.1245
     13  CA       -32.4000  -26.8360   -1.0400 C.3    50  GLN50       0.1566
     14  C        -33.7020  -26.4510   -0.4220 C.2    50  GLN50       0.2260
     15  O        -33.8410  -26.5290    0.8080 O.2    50  GLN50      -0.2867
     16  CB       -32.4100  -28.3000   -1.5020 C.3    50  GLN50       0.0367
     17  CG       -32.5730  -29.3270   -0.4040 C.3    50  GLN50       0.0905
     18  CD       -32.5010  -30.7680   -0.9030 C.2    50  GLN50       0.2608
     19  OE1      -31.9740  -31.0500   -1.9850 O.2    50  GLN50      -0.2717
     20  NE2      -33.1370  -31.6720   -0.1650 N.am   50  GLN50      -0.0878
     21  N        -21.4160  -32.5920    1.5500 N.3    62  ARG62      -0.1245
     22  CA       -21.0240  -33.6810    0.6490 C.3    62  ARG62       0.1563
     23  C        -19.5980  -33.5000    0.1850 C.2    62  ARG62       0.2260
     24  O        -19.0330  -32.3960    0.2510 O.2    62  ARG62      -0.2867
     25  CB       -21.9630  -33.7340   -0.5680 C.3    62  ARG62       0.0307
     26  CG       -22.0660  -32.4130   -1.2860 C.3    62  ARG62       0.0489
     27  CD       -23.2990  -31.5830   -0.9460 C.3    62  ARG62       0.2205
     28  NE       -24.5180  -32.3410   -1.1090 N.pl3  62  ARG62      -0.0865
     29  CZ       -25.0460  -32.6830   -2.2680 C.cat  62  ARG62       0.5346
     30  NH1      -24.5380  -32.2010   -3.4010 N.pl3  62  ARG62       0.1354
     31  NH2      -26.0680  -33.5330   -2.2670 N.pl3  62  ARG62       0.1354
     32  N        -22.9570  -37.9700    0.6740 N.3   108  ASP108     -0.1239
     33  CA       -23.8090  -36.8620    0.9520 C.3   108  ASP108      0.1674
     34  C        -24.5690  -37.0770    2.2560 C.2   108  ASP108      0.2266
     35  O        -25.0730  -38.1680    2.5080 O.2   108  ASP108     -0.2867
     36  CB       -24.7870  -36.8100   -0.2090 C.3   108  ASP108      0.1410
     37  CG       -25.7730  -35.7890   -0.0170 C.2   108  ASP108      0.3668
     38  OD1      -25.3620  -34.6910    0.4920 O.co2 108  ASP108     -0.2456
     39  OD2      -26.9190  -36.1210   -0.3630 O.co2 108  ASP108     -0.2456
     40  N        -27.1030  -39.8370    3.5850 N.3   116  VAL116     -0.1231
     41  CA       -28.2470  -39.9550    2.6630 C.3   116  VAL116      0.1692
     42  C        -27.8480  -40.7540    1.4240 C.2   116  VAL116      0.2591
     43  O        -28.5700  -41.6820    1.0700 O.2   116  VAL116     -0.2718
     44  CB       -28.8680  -38.5750    2.3250 C.3   116  VAL116      0.0266
     45  CG1      -29.9940  -38.6680    1.3060 C.3   116  VAL116      0.0020
     46  CG2      -29.4210  -37.9590    3.6000 C.3   116  VAL116      0.0020
     47  N        -26.7190  -40.4080    0.7940 N.am  117  LYS117     -0.1980
     48  CA       -26.2850  -41.0680   -0.4310 C.3   117  LYS117      0.1596
     49  C        -24.8010  -41.4070   -0.4190 C.2   117  LYS117      0.2287
     50  O        -23.9750  -40.7170    0.1880 O.2   117  LYS117     -0.2864
     51  CB       -26.5440  -40.2250   -1.6870 C.3   117  LYS117      0.0298
     52  CG       -27.9550  -39.7450   -1.8320 C.3   117  LYS117      0.0038
     53  CD       -28.2860  -39.4200   -3.2600 C.3   117  LYS117      0.0206
     54  CE       -27.3680  -38.3940   -3.8570 C.3   117  LYS117      0.1093
     55  NZ       -27.6430  -37.0620   -3.2430 N.3   117  LYS117     -0.1314
     56  N        -22.1200  -42.0970   -3.7870 N.3   119  TRP119     -0.1241
     57  CA       -21.9960  -41.9410   -5.2250 C.3   119  TRP119      0.1605
     58  C        -20.8770  -42.8500   -5.7350 C.2   119  TRP119      0.2264
     59  O        -19.8100  -42.9660   -5.1100 O.2   119  TRP119     -0.2867
     60  CB       -21.6070  -40.5120   -5.6610 C.3   119  TRP119      0.0550
     61  CG       -22.0960  -39.3880   -4.8170 C.ar  119  TRP119      0.0003
     62  CD1      -23.1710  -39.3980   -3.9590 C.ar  119  TRP119      0.0946
     63  CD2      -21.4510  -38.1220   -4.6350 C.ar  119  TRP119      0.0152
     64  NE1      -23.3030  -38.1640   -3.3500 N.ar  119  TRP119     -0.2442
     65  CE2      -22.2350  -37.3840   -3.7070 C.ar  119  TRP119      0.0810
     66  CE3      -20.3560  -37.4880   -5.2600 C.ar  119  TRP119      0.0012
     67  CZ2      -21.9980  -36.0340   -3.4380 C.ar  119  TRP119      0.0191
     68  CZ3      -20.0800  -36.1550   -4.9350 C.ar  119  TRP119      0.0001
     69  CH2      -20.8990  -35.4470   -4.0310 C.ar  119  TRP119      0.0015
     70  N        -25.9440  -43.0610   -8.0020 N.3   159  THR159     -0.1218
     71  CA       -26.0370  -42.8840   -6.5680 C.3   159  THR159      0.1862
     72  C        -27.1160  -43.7710   -5.9610 C.2   159  THR159      0.2287
     73  O        -28.0970  -44.1540   -6.6290 O.2   159  THR159     -0.2866
     74  CB       -26.3190  -41.4390   -6.1140 C.3   159  THR159      0.1770
     75  OG1      -27.6460  -41.0160   -6.5530 O.3   159  THR159     -0.2211
     76  CG2      -25.2600  -40.4930   -6.6480 C.3   159  THR159      0.0375
     77  N        -29.6710  -43.7180   -2.6360 N.3   161  ASP161     -0.1239
     78  CA       -30.2490  -42.8970   -1.5850 C.3   161  ASP161      0.1674
     79  C        -30.8880  -43.7910   -0.5680 C.2   161  ASP161      0.2266
     80  O        -31.9390  -44.3860   -0.8340 O.2   161  ASP161     -0.2867
     81  CB       -31.2800  -41.8910   -2.1330 C.3   161  ASP161      0.1410
     82  CG       -31.7680  -40.8940   -1.0850 C.2   161  ASP161      0.3668
     83  OD1      -31.8790  -41.3100    0.0910 O.co2 161  ASP161     -0.2456
     84  OD2      -32.0690  -39.7080   -1.4450 O.co2 161  ASP161     -0.2456
     85  N        -30.2820  -42.7930   -8.4180 N.3   168  ASN168     -0.1240
     86  CA       -30.2180  -41.8790   -9.5400 C.3   168  ASN168      0.1653
     87  C        -29.1950  -42.3760  -10.5370 C.2   168  ASN168      0.2266
     88  O        -28.0990  -42.8210  -10.1470 O.2   168  ASN168     -0.2867
     89  CB       -29.7490  -40.4940   -9.1150 C.3   168  ASN168      0.1155
     90  CG       -30.6860  -39.7940   -8.1560 C.2   168  ASN168      0.2627
     91  OD1      -31.8770  -40.0810   -8.1010 O.2   168  ASN168     -0.2716
     92  ND2      -30.1650  -38.7290   -7.5320 N.am  168  ASN168     -0.0877
     93  N        -27.0370  -40.6220  -13.5720 N.3   170  TYR170     -0.1241
     94  CA       -26.5930  -39.3010  -14.0460 C.3   170  TYR170      0.1605
     95  C        -25.9980  -39.4440  -15.4330 C.2   170  TYR170      0.2264
     96  O        -25.2570  -40.3980  -15.7110 O.2   170  TYR170     -0.2867
     97  CB       -25.5240  -38.7090  -13.1200 C.3   170  TYR170      0.0534
     98  CG       -25.9950  -38.4720  -11.7080 C.ar  170  TYR170     -0.0201
     99  CD1      -26.1020  -39.5290  -10.8240 C.ar  170  TYR170     -0.0009
    100  CD2      -26.3390  -37.2130  -11.2570 C.ar  170  TYR170     -0.0009
    101  CE1      -26.5080  -39.3350   -9.5360 C.ar  170  TYR170      0.0417
    102  CE2      -26.8060  -37.0210   -9.9610 C.ar  170  TYR170      0.0417
    103  CZ       -26.9080  -38.1040   -9.1000 C.ar  170  TYR170      0.1957
    104  OH       -27.3530  -38.0040   -7.7770 O.3   170  TYR170     -0.2866
    105  N        -38.4010  -38.2700  -10.2870 N.3   223  ARG223     -0.1245
    106  CA       -38.0500  -36.8710  -10.4680 C.3   223  ARG223      0.1563
    107  C        -36.8220  -36.8430  -11.3440 C.2   223  ARG223      0.2260
    108  O        -36.1970  -37.8850  -11.5830 O.2   223  ARG223     -0.2867
    109  CB       -37.7770  -36.1390   -9.1440 C.3   223  ARG223      0.0307
    110  CG       -36.8460  -36.8130   -8.1940 C.3   223  ARG223      0.0489
    111  CD       -36.8470  -36.1460   -6.7940 C.3   223  ARG223      0.2205
    112  NE       -36.2900  -37.0400   -5.7650 N.pl3 223  ARG223     -0.0865
    113  CZ       -34.9740  -37.2060   -5.5200 C.cat 223  ARG223      0.5346
    114  NH1      -34.0390  -36.5010   -6.1620 N.pl3 223  ARG223      0.1354
    115  NH2      -34.5820  -38.0690   -4.6090 N.pl3 223  ARG223      0.1354
    116  N        -28.3800  -30.0160  -13.8180 N.3   227  TYR227     -0.1241
    117  CA       -27.3350  -29.3170  -13.0920 C.3   227  TYR227      0.1605
    118  C        -26.6160  -28.3290  -13.9640 C.2   227  TYR227      0.2264
    119  O        -26.1810  -28.7180  -15.0370 O.2   227  TYR227     -0.2867
    120  CB       -26.3370  -30.3290  -12.5220 C.3   227  TYR227      0.0534
    121  CG       -26.9630  -31.2270  -11.4920 C.ar  227  TYR227     -0.0201
    122  CD1      -27.0800  -30.8610  -10.1520 C.ar  227  TYR227     -0.0009
    123  CD2      -27.4220  -32.4680  -11.8780 C.ar  227  TYR227     -0.0009
    124  CE1      -27.7110  -31.7050   -9.2340 C.ar  227  TYR227      0.0417
    125  CE2      -28.0640  -33.2850  -10.9980 C.ar  227  TYR227      0.0417
    126  CZ       -28.2000  -32.9170   -9.6850 C.ar  227  TYR227      0.1957
    127  OH       -28.8070  -33.8460   -8.8620 O.3   227  TYR227     -0.2866
    128  N        -38.0450  -28.0240   -7.2670 N.3   272  TYR272     -0.1241
    129  CA       -37.3550  -27.1480   -6.3360 C.3   272  TYR272      0.1605
    130  C        -35.9290  -26.9660   -6.8210 C.2   272  TYR272      0.2264
    131  O        -35.5640  -27.5120   -7.8510 O.2   272  TYR272     -0.2867
    132  CB       -37.3640  -27.7550   -4.9310 C.3   272  TYR272      0.0534
    133  CG       -36.7420  -29.1310   -4.8090 C.ar  272  TYR272     -0.0201
    134  CD1      -37.4750  -30.2680   -5.0890 C.ar  272  TYR272     -0.0009
    135  CD2      -35.4060  -29.2950   -4.3970 C.ar  272  TYR272     -0.0009
    136  CE1      -36.9060  -31.5280   -4.9790 C.ar  272  TYR272      0.0417
    137  CE2      -34.8380  -30.5510   -4.2790 C.ar  272  TYR272      0.0417
    138  CZ       -35.5840  -31.6750   -4.5770 C.ar  272  TYR272      0.1957
    139  OH       -35.0100  -32.9550   -4.4950 O.3   272  TYR272     -0.2866
    140  N        -31.6910  -26.7330   -5.8040 N.3   274  LYS274     -0.1245
    141  CA       -30.5980  -27.1500   -4.9370 C.3   274  LYS274      0.1561
    142  C        -29.4190  -26.2520   -5.3070 C.2   274  LYS274      0.2260
    143  O        -29.1600  -26.0460   -6.5030 O.2   274  LYS274     -0.2867
    144  CB       -30.2110  -28.6010   -5.2880 C.3   274  LYS274      0.0271
    145  CG       -31.3510  -29.5900   -5.3810 C.3   274  LYS274      0.0035
    146  CD       -30.8630  -30.9090   -5.9880 C.3   274  LYS274      0.0206
    147  CE       -32.0050  -31.7540   -6.5100 C.3   274  LYS274      0.1093
    148  NZ       -31.5950  -33.0900   -7.0540 N.3   274  LYS274     -0.1314
@<TRIPOS>BOND
     1    96    95    2
     2    95    94    1
     3   119   118    2
     4    94    93    1
     5    94    97    1
     6   118   117    1
     7   116   117    1
     8    97    98    1
     9   117   120    1
    10   120   121    1
    11   123   121   ar
    12   123   125   ar
    13    98   100   ar
    14    98    99   ar
    15   108   107    2
    16   121   122   ar
    17   107   106    1
    18   100   102   ar
    19   125   126   ar
    20    99   101   ar
    21    87    88    2
    22    87    86    1
    23   106   105    1
    24   106   109    1
    25   122   124   ar
    26   102   103   ar
    27   126   124   ar
    28   126   127    1
    29    86    89    1
    30    86    85    1
    31   101   103   ar
    32   109   110    1
    33    89    90    1
    34   103   104    1
    35   110   111    1
    36    90    91    2
    37    90    92   am
    38    70    71    1
    39   131   130    2
    40   128   129    1
    41   148   147    1
    42   130   129    1
    43   111   112    1
    44    76    74    1
    45    73    72    2
    46    71    74    1
    47    71    72    1
    48    75    74    1
    49   147   146    1
    50   143   142    2
    51   129   132    1
    52   114   113    1
    53   146   145    1
    54   140   141    1
    55   112   113    2
    56    58    57    1
    57    58    59    2
    58    60    57    1
    59    60    61    1
    60   113   115    1
    61   145   144    1
    62   142   141    1
    63   144   141    1
    64    66    68   ar
    65    66    63   ar
    66    57    56    1
    67    11     9    1
    68   134   136   ar
    69   134   133   ar
    70   136   138   ar
    71    68    69   ar
    72   132   133    1
    73    61    63   ar
    74    61    62   ar
    75   133   135   ar
    76    63    65   ar
    77   138   139    1
    78   138   137   ar
    79   135   137   ar
    80    69    67   ar
    81     9    10    1
    82     9     8    2
    83    62    64   ar
    84    54    53    1
    85    54    55    1
    86    65    67   ar
    87    65    64   ar
    88    30    29    1
    89    53    52    1
    90     8     7    1
    91    77    78    1
    92    29    31    1
    93    29    28    2
    94    81    78    1
    95    81    82    1
    96    19    18    2
    97     7     6    1
    98    52    51    1
    99    51    48    1
   100    78    79    1
   101    16    13    1
   102    16    17    1
   103    84    82   ar
   104     6     5    1
   105    26    27    1
   106    26    25    1
   107    28    27    1
   108    82    83   ar
   109    13    14    1
   110    13    12    1
   111    18    17    1
   112    18    20   am
   113    80    79    2
   114     5     2    1
   115    25    22    1
   116    48    49    1
   117    48    47    1
   118    14    15    2
   119    49    50    2
   120    39    37   ar
   121    36    37    1
   122    36    33    1
   123     2     1    1
   124     2     3    1
   125    37    38   ar
   126    23    24    2
   127    23    22    1
   128    22    21    1
   129    32    33    1
   130     3     4    2
   131    47    42   am
   132    33    34    1
   133    43    42    2
   134    45    44    1
   135    42    41    1
   136    34    35    2
   137    44    41    1
   138    44    46    1
   139    41    40    1
