@<TRIPOS>MOLECULE
tmp/5ynuA00.pdb
 160 150 0 0 0
SMALL
GASTEIGER

@<TRIPOS>ATOM
      1  N        -12.8390  -32.4700   -2.5490 N.3    44  GLY44      -0.1225
      2  CA       -13.9030  -31.6170   -3.0590 C.3    44  GLY44       0.1811
      3  C        -15.1570  -31.6580   -2.2050 C.2    44  GLY44       0.2280
      4  O        -16.0460  -32.4770   -2.4210 O.2    44  GLY44      -0.2866
      5  N        -18.6060  -29.6860   -0.4750 N.3    46  ALA46      -0.1245
      6  CA       -19.6010  -28.6580   -0.7460 C.3    46  ALA46       0.1562
      7  C        -20.6660  -28.6110    0.3320 C.2    46  ALA46       0.2260
      8  O        -20.9730  -29.6430    0.9370 O.2    46  ALA46      -0.2867
      9  CB       -20.2470  -28.8720   -2.1140 C.3    46  ALA46       0.0290
     10  N        -24.6530  -27.6320    0.6560 N.3    48  ARG48      -0.1245
     11  CA       -25.8690  -27.4510   -0.1420 C.3    48  ARG48       0.1563
     12  C        -27.0370  -26.9380    0.7010 C.2    48  ARG48       0.2260
     13  O        -27.2410  -27.3890    1.8330 O.2    48  ARG48      -0.2867
     14  CB       -26.2890  -28.8120   -0.7390 C.3    48  ARG48       0.0307
     15  CG       -27.6860  -28.7560   -1.3450 C.3    48  ARG48       0.0489
     16  CD       -28.1160  -30.0970   -1.8960 C.3    48  ARG48       0.2205
     17  NE       -27.4710  -30.2960   -3.1730 N.pl3  48  ARG48      -0.0865
     18  CZ       -27.7720  -31.2780   -4.0210 C.cat  48  ARG48       0.5346
     19  NH1      -28.6900  -32.2010   -3.6830 N.pl3  48  ARG48       0.1354
     20  NH2      -27.2020  -31.2920   -5.2250 N.pl3  48  ARG48       0.1354
     21  N        -21.4160  -32.5920    1.5500 N.3    62  ARG62      -0.1231
     22  CA       -21.0240  -33.6810    0.6490 C.3    62  ARG62       0.1694
     23  C        -19.5980  -33.5000    0.1850 C.2    62  ARG62       0.2592
     24  O        -19.0330  -32.3960    0.2510 O.2    62  ARG62      -0.2718
     25  CB       -21.9630  -33.7340   -0.5680 C.3    62  ARG62       0.0321
     26  CG       -22.0660  -32.4130   -1.2860 C.3    62  ARG62       0.0489
     27  CD       -23.2990  -31.5830   -0.9460 C.3    62  ARG62       0.2205
     28  NE       -24.5180  -32.3410   -1.1090 N.pl3  62  ARG62      -0.0865
     29  CZ       -25.0460  -32.6830   -2.2680 C.cat  62  ARG62       0.5346
     30  NH1      -24.5380  -32.2010   -3.4010 N.pl3  62  ARG62       0.1354
     31  NH2      -26.0680  -33.5330   -2.2670 N.pl3  62  ARG62       0.1354
     32  N        -19.0050  -34.6080   -0.2040 N.am   63  TYR63      -0.1962
     33  CA       -17.6710  -34.5940   -0.7530 C.3    63  TYR63       0.1771
     34  C        -17.4990  -35.7310   -1.7440 C.2    63  TYR63       0.2620
     35  O        -18.2680  -36.7020   -1.7640 O.2    63  TYR63      -0.2715
     36  CB       -16.6330  -34.7070    0.3760 C.3    63  TYR63       0.0574
     37  CG       -16.3650  -36.1230    0.8220 C.ar   63  TYR63      -0.0198
     38  CD1      -17.2390  -36.7780    1.6600 C.ar   63  TYR63      -0.0009
     39  CD2      -15.2870  -36.8400    0.3050 C.ar   63  TYR63      -0.0009
     40  CE1      -17.0500  -38.1130    1.9710 C.ar   63  TYR63       0.0417
     41  CE2      -15.0230  -38.1460    0.7140 C.ar   63  TYR63       0.0417
     42  CZ       -15.9220  -38.7730    1.5370 C.ar   63  TYR63       0.1957
     43  OH       -15.7370  -40.0660    1.9440 O.3    63  TYR63      -0.2866
     44  N        -16.4830  -35.5870   -2.5820 N.am   64  GLY64      -0.1954
     45  CA       -16.0450  -36.6480   -3.4750 C.3    64  GLY64       0.1869
     46  C        -14.5390  -36.6690   -3.5380 C.2    64  GLY64       0.2309
     47  O        -13.8880  -35.6380   -3.3380 O.2    64  GLY64      -0.2863
     48  N        -26.7190  -40.4080    0.7940 N.3   117  LYS117     -0.1245
     49  CA       -26.2850  -41.0680   -0.4310 C.3   117  LYS117      0.1561
     50  C        -24.8010  -41.4070   -0.4190 C.2   117  LYS117      0.2260
     51  O        -23.9750  -40.7170    0.1880 O.2   117  LYS117     -0.2867
     52  CB       -26.5440  -40.2250   -1.6870 C.3   117  LYS117      0.0271
     53  CG       -27.9550  -39.7450   -1.8320 C.3   117  LYS117      0.0035
     54  CD       -28.2860  -39.4200   -3.2600 C.3   117  LYS117      0.0206
     55  CE       -27.3680  -38.3940   -3.8570 C.3   117  LYS117      0.1093
     56  NZ       -27.6430  -37.0620   -3.2430 N.3   117  LYS117     -0.1314
     57  N        -22.1200  -42.0970   -3.7870 N.3   119  TRP119     -0.1241
     58  CA       -21.9960  -41.9410   -5.2250 C.3   119  TRP119      0.1605
     59  C        -20.8770  -42.8500   -5.7350 C.2   119  TRP119      0.2264
     60  O        -19.8100  -42.9660   -5.1100 O.2   119  TRP119     -0.2867
     61  CB       -21.6070  -40.5120   -5.6610 C.3   119  TRP119      0.0550
     62  CG       -22.0960  -39.3880   -4.8170 C.ar  119  TRP119      0.0003
     63  CD1      -23.1710  -39.3980   -3.9590 C.ar  119  TRP119      0.0946
     64  CD2      -21.4510  -38.1220   -4.6350 C.ar  119  TRP119      0.0152
     65  NE1      -23.3030  -38.1640   -3.3500 N.ar  119  TRP119     -0.2442
     66  CE2      -22.2350  -37.3840   -3.7070 C.ar  119  TRP119      0.0810
     67  CE3      -20.3560  -37.4880   -5.2600 C.ar  119  TRP119      0.0012
     68  CZ2      -21.9980  -36.0340   -3.4380 C.ar  119  TRP119      0.0191
     69  CZ3      -20.0800  -36.1550   -4.9350 C.ar  119  TRP119      0.0001
     70  CH2      -20.8990  -35.4470   -4.0310 C.ar  119  TRP119      0.0015
     71  N        -18.6790  -42.9220   -9.3890 N.3   121  LEU121     -0.1245
     72  CA       -18.3760  -42.1980  -10.6180 C.3   121  LEU121      0.1561
     73  C        -17.4600  -43.0450  -11.4890 C.2   121  LEU121      0.2260
     74  O        -16.2920  -43.2140  -11.1520 O.2   121  LEU121     -0.2867
     75  CB       -17.6890  -40.8670  -10.3110 C.3   121  LEU121      0.0270
     76  CG       -18.6340  -39.7330   -9.9210 C.3   121  LEU121      0.0019
     77  CD1      -18.9320  -39.8010   -8.4190 C.3   121  LEU121      0.0001
     78  CD2      -18.0170  -38.3840  -10.3130 C.3   121  LEU121      0.0001
     79  N        -25.9440  -43.0610   -8.0020 N.3   159  THR159     -0.1218
     80  CA       -26.0370  -42.8840   -6.5680 C.3   159  THR159      0.1862
     81  C        -27.1160  -43.7710   -5.9610 C.2   159  THR159      0.2287
     82  O        -28.0970  -44.1540   -6.6290 O.2   159  THR159     -0.2866
     83  CB       -26.3190  -41.4390   -6.1140 C.3   159  THR159      0.1770
     84  OG1      -27.6460  -41.0160   -6.5530 O.3   159  THR159     -0.2211
     85  CG2      -25.2600  -40.4930   -6.6480 C.3   159  THR159      0.0375
     86  N        -27.0370  -40.6220  -13.5720 N.3   170  TYR170     -0.1241
     87  CA       -26.5930  -39.3010  -14.0460 C.3   170  TYR170      0.1605
     88  C        -25.9980  -39.4440  -15.4330 C.2   170  TYR170      0.2264
     89  O        -25.2570  -40.3980  -15.7110 O.2   170  TYR170     -0.2867
     90  CB       -25.5240  -38.7090  -13.1200 C.3   170  TYR170      0.0534
     91  CG       -25.9950  -38.4720  -11.7080 C.ar  170  TYR170     -0.0201
     92  CD1      -26.1020  -39.5290  -10.8240 C.ar  170  TYR170     -0.0009
     93  CD2      -26.3390  -37.2130  -11.2570 C.ar  170  TYR170     -0.0009
     94  CE1      -26.5080  -39.3350   -9.5360 C.ar  170  TYR170      0.0417
     95  CE2      -26.8060  -37.0210   -9.9610 C.ar  170  TYR170      0.0417
     96  CZ       -26.9080  -38.1040   -9.1000 C.ar  170  TYR170      0.1957
     97  OH       -27.3530  -38.0040   -7.7770 O.3   170  TYR170     -0.2866
     98  N        -25.2080  -31.9400  -17.1160 N.3   209  GLU209     -0.1245
     99  CA       -25.4880  -33.1600  -16.3880 C.3   209  GLU209      0.1567
    100  C        -26.9560  -33.2670  -16.0560 C.2   209  GLU209      0.2260
    101  O        -27.5370  -32.3190  -15.5360 O.2   209  GLU209     -0.2867
    102  CB       -24.6160  -33.2550  -15.1000 C.3   209  GLU209      0.0388
    103  CG       -24.6920  -34.6420  -14.4740 C.3   209  GLU209      0.1160
    104  CD       -23.6940  -34.9220  -13.3710 C.2   209  GLU209      0.3649
    105  OE1      -22.5410  -34.4570  -13.4460 O.co2 209  GLU209     -0.2457
    106  OE2      -23.9850  -35.8540  -12.5950 O.co2 209  GLU209     -0.2457
    107  N        -28.3800  -30.0160  -13.8180 N.3   227  TYR227     -0.1241
    108  CA       -27.3350  -29.3170  -13.0920 C.3   227  TYR227      0.1605
    109  C        -26.6160  -28.3290  -13.9640 C.2   227  TYR227      0.2264
    110  O        -26.1810  -28.7180  -15.0370 O.2   227  TYR227     -0.2867
    111  CB       -26.3370  -30.3290  -12.5220 C.3   227  TYR227      0.0534
    112  CG       -26.9630  -31.2270  -11.4920 C.ar  227  TYR227     -0.0201
    113  CD1      -27.0800  -30.8610  -10.1520 C.ar  227  TYR227     -0.0009
    114  CD2      -27.4220  -32.4680  -11.8780 C.ar  227  TYR227     -0.0009
    115  CE1      -27.7110  -31.7050   -9.2340 C.ar  227  TYR227      0.0417
    116  CE2      -28.0640  -33.2850  -10.9980 C.ar  227  TYR227      0.0417
    117  CZ       -28.2000  -32.9170   -9.6850 C.ar  227  TYR227      0.1957
    118  OH       -28.8070  -33.8460   -8.8620 O.3   227  TYR227     -0.2866
    119  N        -22.7630  -24.9780   -7.8430 N.3   261  LEU261     -0.1245
    120  CA       -23.5500  -25.8590   -8.6970 C.3   261  LEU261      0.1561
    121  C        -25.0020  -25.7030   -8.3110 C.2   261  LEU261      0.2260
    122  O        -25.3600  -25.8130   -7.1360 O.2   261  LEU261     -0.2867
    123  CB       -23.1520  -27.3130   -8.4500 C.3   261  LEU261      0.0270
    124  CG       -22.0620  -27.8970   -9.3180 C.3   261  LEU261      0.0019
    125  CD1      -21.5870  -29.2050   -8.7500 C.3   261  LEU261      0.0001
    126  CD2      -22.6940  -28.1370  -10.6810 C.3   261  LEU261      0.0001
    127  N        -25.2060  -25.6030   -4.3110 N.3   276  ASP276     -0.1239
    128  CA       -24.0230  -26.0540   -3.5820 C.3   276  ASP276      0.1674
    129  C        -22.9520  -24.9880   -3.7100 C.2   276  ASP276      0.2266
    130  O        -22.6570  -24.5730   -4.8270 O.2   276  ASP276     -0.2867
    131  CB       -23.4570  -27.3450   -4.1950 C.3   276  ASP276      0.1410
    132  CG       -24.2500  -28.5690   -3.8550 C.2   276  ASP276      0.3668
    133  OD1      -25.4870  -28.4940   -3.9090 O.co2 276  ASP276     -0.2456
    134  OD2      -23.6200  -29.6310   -3.6010 O.co2 276  ASP276     -0.2456
    135  N        -14.6340  -28.4450   -6.7310 N.3   283  VAL283     -0.1245
    136  CA       -15.7900  -29.1080   -7.3360 C.3   283  VAL283      0.1561
    137  C        -16.1270  -28.5990   -8.7210 C.2   283  VAL283      0.2260
    138  O        -16.3480  -29.3930   -9.6380 O.2   283  VAL283     -0.2867
    139  CB       -16.9970  -29.0460   -6.3980 C.3   283  VAL283      0.0252
    140  CG1      -18.2130  -29.7080   -7.0200 C.3   283  VAL283      0.0019
    141  CG2      -16.6390  -29.7260   -5.0930 C.3   283  VAL283      0.0019
    142  N        -16.1870  -30.6720  -12.1730 N.3   287  PHE287     -0.1241
    143  CA       -17.4550  -30.8710  -12.8900 C.3   287  PHE287      0.1605
    144  C        -17.3650  -30.6070  -14.3930 C.2   287  PHE287      0.2264
    145  O        -17.7680  -31.4410  -15.2130 O.2   287  PHE287     -0.2867
    146  CB       -18.5000  -29.9810  -12.2540 C.3   287  PHE287      0.0534
    147  CG       -19.8540  -30.0430  -12.9040 C.ar  287  PHE287     -0.0203
    148  CD1      -20.7140  -31.0800  -12.6230 C.ar  287  PHE287     -0.0042
    149  CD2      -20.2990  -29.0070  -13.6920 C.ar  287  PHE287     -0.0042
    150  CE1      -22.0000  -31.0800  -13.1090 C.ar  287  PHE287     -0.0003
    151  CE2      -21.6040  -28.9820  -14.1730 C.ar  287  PHE287     -0.0003
    152  CZ       -22.4280  -30.0650  -13.9360 C.ar  287  PHE287     -0.0000
    153  N        -15.0510  -33.4780  -15.9140 N.3   290  MET290     -0.1245
    154  CA       -15.7020  -34.7730  -16.0540 C.3   290  MET290      0.1570
    155  C        -16.7260  -34.7950  -17.1890 C.2   290  MET290      0.2261
    156  O        -17.0500  -35.8710  -17.6870 O.2   290  MET290     -0.2867
    157  CB       -16.3320  -35.2220  -14.7370 C.3   290  MET290      0.0387
    158  CG       -17.6930  -34.6330  -14.4470 C.3   290  MET290      0.0595
    159  SD       -18.5240  -35.3110  -12.9780 S.3   290  MET290     -0.1393
    160  CE       -19.4220  -36.7320  -13.6160 C.3   290  MET290      0.0692
@<TRIPOS>BOND
     1   156   155    2
     2   155   154    1
     3    98    99    1
     4    99   100    1
     5    99   102    1
     6   100   101    2
     7   154   153    1
     8   154   157    1
     9    89    88    2
    10    88    87    1
    11   145   144    2
    12   102   103    1
    13   110   109    2
    14   157   158    1
    15   103   104    1
    16   158   159    1
    17   144   143    1
    18   151   152   ar
    19   151   149   ar
    20    87    86    1
    21    87    90    1
    22   109   108    1
    23   152   150   ar
    24   107   108    1
    25   149   147   ar
    26   160   159    1
    27   105   104   ar
    28   104   106   ar
    29    90    91    1
    30   150   148   ar
    31   108   111    1
    32   147   148   ar
    33   147   146    1
    34   143   146    1
    35   143   142    1
    36   111   112    1
    37   114   112   ar
    38   114   116   ar
    39    91    93   ar
    40    91    92   ar
    41   112   113   ar
    42    73    74    2
    43    73    72    1
    44    93    95   ar
    45   116   117   ar
    46    92    94   ar
    47   126   124    1
    48    72    75    1
    49    72    71    1
    50    78    76    1
    51    75    76    1
    52   113   115   ar
    53    95    96   ar
    54    76    77    1
    55   117   115   ar
    56   117   118    1
    57   138   137    2
    58    94    96   ar
    59   124   125    1
    60   124   123    1
    61    96    97    1
    62   137   136    1
    63   120   123    1
    64   120   121    1
    65   120   119    1
    66   121   122    2
    67    79    80    1
    68   136   135    1
    69   136   139    1
    70   140   139    1
    71    85    83    1
    72    82    81    2
    73    80    83    1
    74    80    81    1
    75    84    83    1
    76   139   141    1
    77    59    58    1
    78    59    60    2
    79    61    58    1
    80    61    62    1
    81    67    69   ar
    82    67    64   ar
    83    20    18    1
    84    58    57    1
    85    69    70   ar
    86   130   129    2
    87    62    64   ar
    88    62    63   ar
    89    64    66   ar
    90   127   128    1
    91   131   132    1
    92   131   128    1
    93    70    68   ar
    94    18    19    1
    95    18    17    2
    96    63    65   ar
    97   133   132   ar
    98    55    54    1
    99    55    56    1
   100   132   134   ar
   101   129   128    1
   102    66    68   ar
   103    66    65   ar
   104    46    45    1
   105    46    47    2
   106    45    44    1
   107    30    29    1
   108    54    53    1
   109    17    16    1
   110     2     1    1
   111     2     3    1
   112    44    34   am
   113     4     3    2
   114    29    31    1
   115    29    28    2
   116     9     6    1
   117    16    15    1
   118    53    52    1
   119    35    34    2
   120    34    33    1
   121    52    49    1
   122    15    14    1
   123    26    27    1
   124    26    25    1
   125    28    27    1
   126    33    32    1
   127    33    36    1
   128     6     5    1
   129     6     7    1
   130    14    11    1
   131    25    22    1
   132    49    50    1
   133    49    48    1
   134    50    51    2
   135    32    23   am
   136    11    10    1
   137    11    12    1
   138    23    24    2
   139    23    22    1
   140    39    41   ar
   141    39    37   ar
   142     7     8    2
   143    36    37    1
   144    22    21    1
   145    12    13    2
   146    41    42   ar
   147    37    38   ar
   148    42    43    1
   149    42    40   ar
   150    38    40   ar
