@<TRIPOS>MOLECULE
tmp/5ynvB00.pdb
 209 193 0 0 0
SMALL
GASTEIGER

@<TRIPOS>ATOM
      1  N         -5.4440  -19.2630  -45.0660 N.3    51  ARG51      -0.1245
      2  CA        -5.0790  -20.6640  -44.8410 C.3    51  ARG51       0.1563
      3  C         -3.8260  -20.9960  -45.6440 C.2    51  ARG51       0.2260
      4  O         -3.7050  -20.5530  -46.7970 O.2    51  ARG51      -0.2867
      5  CB        -6.2110  -21.5800  -45.3300 C.3    51  ARG51       0.0307
      6  CG        -5.7330  -23.0480  -45.4760 C.3    51  ARG51       0.0489
      7  CD        -6.8350  -23.9810  -45.9450 C.3    51  ARG51       0.2205
      8  NE        -7.7870  -24.2570  -44.8640 N.pl3  51  ARG51      -0.0865
      9  CZ        -8.7190  -25.2030  -44.9400 C.cat  51  ARG51       0.5346
     10  NH1       -8.9110  -25.8240  -46.1190 N.pl3  51  ARG51       0.1354
     11  NH2       -9.4770  -25.4890  -43.8690 N.pl3  51  ARG51       0.1354
     12  N         -1.8840  -24.8500  -46.6680 N.3    53  GLN53      -0.1245
     13  CA        -1.9970  -26.2970  -46.5090 C.3    53  GLN53       0.1566
     14  C         -0.8980  -26.9310  -47.3320 C.2    53  GLN53       0.2260
     15  O         -0.3700  -26.2920  -48.2520 O.2    53  GLN53      -0.2867
     16  CB        -3.3690  -26.7870  -46.9880 C.3    53  GLN53       0.0367
     17  CG        -3.6440  -26.4950  -48.4600 C.3    53  GLN53       0.0905
     18  CD        -5.0620  -26.8870  -48.8790 C.2    53  GLN53       0.2608
     19  OE1       -5.9270  -27.1530  -48.0470 O.2    53  GLN53      -0.2717
     20  NE2       -5.2690  -27.0140  -50.1780 N.am   53  GLN53      -0.0878
     21  N        -10.5810  -16.9840  -47.0630 N.3    65  ARG65      -0.1245
     22  CA       -11.9720  -17.4090  -46.9090 C.3    65  ARG65       0.1563
     23  C        -12.6660  -16.5190  -45.8910 C.2    65  ARG65       0.2260
     24  O        -12.0030  -15.8540  -45.0910 O.2    65  ARG65      -0.2867
     25  CB       -12.0140  -18.8860  -46.4720 C.3    65  ARG65       0.0307
     26  CG       -11.1920  -19.2050  -45.2280 C.3    65  ARG65       0.0489
     27  CD        -9.8160  -19.8260  -45.5740 C.3    65  ARG65       0.2205
     28  NE        -9.9940  -21.0280  -46.4020 N.pl3  65  ARG65      -0.0865
     29  CZ       -10.4000  -22.2090  -45.9290 C.cat  65  ARG65       0.5346
     30  NH1      -10.5690  -22.3740  -44.6090 N.pl3  65  ARG65       0.1354
     31  NH2      -10.7090  -23.1970  -46.7830 N.pl3  65  ARG65       0.1354
     32  N        -13.2200  -21.4470  -54.8510 N.3   119  VAL119     -0.1231
     33  CA       -13.1690  -22.9060  -54.7580 C.3   119  VAL119      0.1692
     34  C        -14.4350  -23.4770  -54.1200 C.2   119  VAL119      0.2591
     35  O        -14.9730  -24.4620  -54.6190 O.2   119  VAL119     -0.2718
     36  CB       -11.9010  -23.3680  -53.9840 C.3   119  VAL119      0.0266
     37  CG1      -11.8880  -24.8860  -53.7630 C.3   119  VAL119      0.0020
     38  CG2      -10.6690  -22.9050  -54.7660 C.3   119  VAL119      0.0020
     39  N        -14.8970  -22.9000  -53.0020 N.am  120  LYS120     -0.1980
     40  CA       -16.0730  -23.4620  -52.3110 C.3   120  LYS120      0.1596
     41  C        -17.0300  -22.3630  -51.8910 C.2   120  LYS120      0.2287
     42  O        -16.6330  -21.2060  -51.6620 O.2   120  LYS120     -0.2864
     43  CB       -15.6870  -24.2720  -51.0490 C.3   120  LYS120      0.0298
     44  CG       -14.5910  -25.3180  -51.2500 C.3   120  LYS120      0.0038
     45  CD       -14.7210  -26.4160  -50.1950 C.3   120  LYS120      0.0206
     46  CE       -14.4700  -25.8920  -48.7700 C.3   120  LYS120      0.1093
     47  NZ       -13.0260  -25.5090  -48.5800 N.3   120  LYS120     -0.1314
     48  N        -19.8750  -22.3140  -48.5270 N.3   122  TRP122     -0.1241
     49  CA       -20.3690  -23.0550  -47.3620 C.3   122  TRP122      0.1605
     50  C        -21.8160  -22.6910  -47.0780 C.2   122  TRP122      0.2264
     51  O        -22.2010  -21.5200  -47.1650 O.2   122  TRP122     -0.2867
     52  CB       -19.5380  -22.6840  -46.1220 C.3   122  TRP122      0.0550
     53  CG       -18.1830  -23.3400  -46.0530 C.ar  122  TRP122      0.0003
     54  CD1      -17.9170  -24.6580  -45.7140 C.ar  122  TRP122      0.0946
     55  CD2      -16.8990  -22.7050  -46.1960 C.ar  122  TRP122      0.0152
     56  NE1      -16.5650  -24.8600  -45.6430 N.ar  122  TRP122     -0.2442
     57  CE2      -15.9160  -23.6850  -45.9400 C.ar  122  TRP122      0.0810
     58  CE3      -16.4910  -21.4040  -46.4690 C.ar  122  TRP122      0.0012
     59  CZ2      -14.5390  -23.4070  -46.0060 C.ar  122  TRP122      0.0191
     60  CZ3      -15.1540  -21.1040  -46.4670 C.ar  122  TRP122      0.0001
     61  CH2      -14.1770  -22.1050  -46.2650 C.ar  122  TRP122      0.0015
     62  N        -24.2160  -23.0340  -43.5680 N.3   124  LEU124     -0.1245
     63  CA       -24.2400  -23.4510  -42.1560 C.3   124  LEU124      0.1561
     64  C        -25.6650  -23.3580  -41.6630 C.2   124  LEU124      0.2260
     65  O        -26.1960  -22.2440  -41.5160 O.2   124  LEU124     -0.2867
     66  CB       -23.3740  -22.5350  -41.2810 C.3   124  LEU124      0.0270
     67  CG       -21.8830  -22.8680  -41.1820 C.3   124  LEU124      0.0019
     68  CD1      -21.2090  -22.3940  -42.4540 C.3   124  LEU124      0.0001
     69  CD2      -21.2660  -22.2090  -39.9530 C.3   124  LEU124      0.0001
     70  N        -22.6220  -28.1150  -40.9210 N.3   160  ALA160     -0.1245
     71  CA       -22.2920  -27.3380  -42.1120 C.3   160  ALA160      0.1562
     72  C        -22.2330  -28.2670  -43.3250 C.2   160  ALA160      0.2260
     73  O        -22.1610  -29.5220  -43.1980 O.2   160  ALA160     -0.2867
     74  CB       -20.9440  -26.6160  -41.9630 C.3   160  ALA160      0.0290
     75  N        -17.5160  -27.9350  -53.4480 N.3   164  ASP164     -0.1239
     76  CA       -16.1850  -27.5960  -53.9690 C.3   164  ASP164      0.1674
     77  C        -16.2640  -27.6590  -55.4720 C.2   164  ASP164      0.2266
     78  O        -16.3730  -28.7480  -56.0480 O.2   164  ASP164     -0.2867
     79  CB       -15.0980  -28.5530  -53.4470 C.3   164  ASP164      0.1410
     80  CG       -13.7010  -28.1380  -53.8810 C.2   164  ASP164      0.3668
     81  OD1      -13.5250  -27.6290  -55.0180 O.co2 164  ASP164     -0.2456
     82  OD2      -12.7530  -28.4030  -53.1010 O.co2 164  ASP164     -0.2456
     83  N        -18.5920  -31.6210  -48.9180 N.3   171  ASN171     -0.1240
     84  CA       -18.2560  -32.1490  -47.5620 C.3   171  ASN171      0.1653
     85  C        -19.4920  -32.0210  -46.7120 C.2   171  ASN171      0.2266
     86  O        -20.1850  -31.0010  -46.7880 O.2   171  ASN171     -0.2867
     87  CB       -17.1810  -31.2960  -46.8660 C.3   171  ASN171      0.1155
     88  CG       -15.8530  -31.3440  -47.5570 C.2   171  ASN171      0.2627
     89  OD1      -15.5640  -32.2610  -48.3360 O.2   171  ASN171     -0.2716
     90  ND2      -15.0290  -30.3340  -47.2930 N.am  171  ASN171     -0.0877
     91  N        -20.2160  -31.6880  -42.6290 N.3   173  TYR173     -0.1241
     92  CA       -19.4670  -31.4030  -41.3860 C.3   173  TYR173      0.1605
     93  C        -20.3670  -31.7650  -40.1970 C.2   173  TYR173      0.2264
     94  O        -21.5790  -31.4650  -40.2010 O.2   173  TYR173     -0.2867
     95  CB       -19.0900  -29.9180  -41.2730 C.3   173  TYR173      0.0534
     96  CG       -18.2420  -29.4200  -42.4070 C.ar  173  TYR173     -0.0201
     97  CD1      -18.8130  -29.1190  -43.6490 C.ar  173  TYR173     -0.0009
     98  CD2      -16.8520  -29.2070  -42.2400 C.ar  173  TYR173     -0.0009
     99  CE1      -18.0170  -28.6680  -44.7010 C.ar  173  TYR173      0.0417
    100  CE2      -16.0590  -28.7630  -43.2890 C.ar  173  TYR173      0.0417
    101  CZ       -16.6520  -28.4920  -44.5110 C.ar  173  TYR173      0.1957
    102  OH       -15.8800  -28.0720  -45.5690 O.3   173  TYR173     -0.2866
    103  N        -15.2090  -30.7750  -34.5490 N.3   212  GLU212     -0.1245
    104  CA       -15.8650  -30.7950  -35.8560 C.3   212  GLU212      0.1567
    105  C        -15.1640  -31.7760  -36.7760 C.2   212  GLU212      0.2260
    106  O        -13.9280  -31.7880  -36.8270 O.2   212  GLU212     -0.2867
    107  CB       -15.8260  -29.3940  -36.4810 C.3   212  GLU212      0.0388
    108  CG       -16.7130  -29.2950  -37.7280 C.3   212  GLU212      0.1160
    109  CD       -16.8150  -27.8760  -38.2700 C.2   212  GLU212      0.3649
    110  OE1      -17.0750  -26.9040  -37.5210 O.co2 212  GLU212     -0.2457
    111  OE2      -16.5240  -27.6990  -39.4430 O.co2 212  GLU212     -0.2457
    112  N        -15.2010  -33.3860  -40.7640 N.3   214  ALA214     -0.1245
    113  CA       -15.6830  -33.2990  -42.1580 C.3   214  ALA214      0.1562
    114  C        -15.5060  -34.6320  -42.8540 C.2   214  ALA214      0.2260
    115  O        -14.4960  -35.3240  -42.6340 O.2   214  ALA214     -0.2867
    116  CB       -14.9310  -32.2350  -42.9370 C.3   214  ALA214      0.0290
    117  N        -15.6760  -36.0770  -46.9160 N.3   216  THR216     -0.1218
    118  CA       -15.7360  -35.6360  -48.3120 C.3   216  THR216      0.1862
    119  C        -16.2960  -36.7390  -49.2080 C.2   216  THR216      0.2287
    120  O        -15.7960  -37.8810  -49.1850 O.2   216  THR216     -0.2866
    121  CB       -14.3200  -35.3070  -48.8120 C.3   216  THR216      0.1770
    122  OG1      -13.7780  -34.2720  -47.9820 O.3   216  THR216     -0.2211
    123  CG2      -14.3850  -34.7930  -50.2710 C.3   216  THR216      0.0375
    124  N        -11.9280  -38.4860  -48.5000 N.3   226  ARG226     -0.1245
    125  CA       -10.9960  -38.1080  -47.4200 C.3   226  ARG226      0.1563
    126  C        -11.8500  -37.6330  -46.2500 C.2   226  ARG226      0.2260
    127  O        -13.0570  -37.3620  -46.4170 O.2   226  ARG226     -0.2867
    128  CB       -10.0370  -36.9460  -47.8600 C.3   226  ARG226      0.0307
    129  CG       -10.7300  -35.7560  -48.5650 C.3   226  ARG226      0.0489
    130  CD        -9.6990  -34.8330  -49.2270 C.3   226  ARG226      0.2205
    131  NE       -10.2970  -33.9270  -50.2320 N.pl3 226  ARG226     -0.0865
    132  CZ       -10.8930  -32.7710  -49.9470 C.cat 226  ARG226      0.5346
    133  NH1      -10.8610  -32.2700  -48.6980 N.pl3 226  ARG226      0.1354
    134  NH2      -11.5410  -32.1110  -50.9050 N.pl3 226  ARG226      0.1354
    135  N        -11.0660  -31.0930  -37.2460 N.3   230  TYR230     -0.1241
    136  CA       -10.6430  -29.7170  -36.9740 C.3   230  TYR230      0.1605
    137  C        -10.4620  -29.4610  -35.4790 C.2   230  TYR230      0.2264
    138  O        -11.3090  -29.8500  -34.6660 O.2   230  TYR230     -0.2867
    139  CB       -11.7040  -28.7410  -37.5060 C.3   230  TYR230      0.0534
    140  CG       -11.8550  -28.8360  -39.0030 C.ar  230  TYR230     -0.0201
    141  CD1      -12.7570  -29.7490  -39.5590 C.ar  230  TYR230     -0.0009
    142  CD2      -11.0650  -28.0550  -39.8590 C.ar  230  TYR230     -0.0009
    143  CE1      -12.8350  -29.9480  -40.9330 C.ar  230  TYR230      0.0417
    144  CE2      -11.1810  -28.1770  -41.2530 C.ar  230  TYR230      0.0417
    145  CZ       -12.0680  -29.1380  -41.7730 C.ar  230  TYR230      0.1957
    146  OH       -12.1760  -29.3210  -43.1230 O.3   230  TYR230     -0.2866
    147  N         -7.2290  -22.2640  -36.6290 N.3   264  LEU264     -0.1245
    148  CA        -7.9680  -23.5410  -36.7390 C.3   264  LEU264      0.1561
    149  C         -7.0660  -24.4520  -37.5580 C.2   264  LEU264      0.2260
    150  O         -6.6000  -24.0490  -38.6320 O.2   264  LEU264     -0.2867
    151  CB        -9.2640  -23.3300  -37.5410 C.3   264  LEU264      0.0270
    152  CG       -10.4010  -22.5660  -36.8650 C.3   264  LEU264      0.0019
    153  CD1      -11.6670  -22.7940  -37.6750 C.3   264  LEU264      0.0001
    154  CD2      -10.5920  -22.9880  -35.4060 C.3   264  LEU264      0.0001
    155  N         -2.7710  -34.5900  -45.0520 N.3   278  TYR278     -0.1241
    156  CA        -1.9920  -33.3510  -44.9770 C.3   278  TYR278      0.1605
    157  C         -2.6260  -32.4800  -43.8870 C.2   278  TYR278      0.2264
    158  O         -3.5970  -32.8880  -43.2490 O.2   278  TYR278     -0.2867
    159  CB        -1.9920  -32.6160  -46.3450 C.3   278  TYR278      0.0534
    160  CG        -3.3850  -32.2760  -46.8780 C.ar  278  TYR278     -0.0201
    161  CD1       -4.1430  -33.2360  -47.5510 C.ar  278  TYR278     -0.0009
    162  CD2       -3.9410  -30.9920  -46.7150 C.ar  278  TYR278     -0.0009
    163  CE1       -5.4000  -32.9360  -48.0710 C.ar  278  TYR278      0.0417
    164  CE2       -5.1940  -30.6730  -47.2440 C.ar  278  TYR278      0.0417
    165  CZ        -5.9300  -31.6480  -47.9160 C.ar  278  TYR278      0.1957
    166  OH        -7.1880  -31.3790  -48.4400 O.3   278  TYR278     -0.2866
    167  N         -4.0140  -28.4550  -42.7010 N.3   280  LYS280     -0.1245
    168  CA        -4.5550  -27.1710  -43.1440 C.3   280  LYS280      0.1561
    169  C         -4.4590  -26.2630  -41.9140 C.2   280  LYS280      0.2260
    170  O         -4.7760  -26.7010  -40.8100 O.2   280  LYS280     -0.2867
    171  CB        -6.0530  -27.3440  -43.4580 C.3   280  LYS280      0.0271
    172  CG        -6.3540  -28.5080  -44.3820 C.3   280  LYS280      0.0035
    173  CD        -7.8550  -28.7130  -44.4840 C.3   280  LYS280      0.0206
    174  CE        -8.1860  -30.0880  -45.0610 C.3   280  LYS280      0.1093
    175  NZ        -9.6600  -30.2860  -45.2780 N.3   280  LYS280     -0.1314
    176  N         -5.4420  -22.2280  -40.5510 N.3   282  ASP282     -0.1239
    177  CA        -6.0640  -20.9140  -40.8560 C.3   282  ASP282      0.1674
    178  C         -5.7380  -19.9780  -39.7090 C.2   282  ASP282      0.2266
    179  O         -5.9580  -20.3380  -38.5400 O.2   282  ASP282     -0.2867
    180  CB        -7.5990  -21.0760  -40.8360 C.3   282  ASP282      0.1410
    181  CG        -8.1370  -21.6880  -42.1320 C.2   282  ASP282      0.3668
    182  OD1       -7.6410  -22.7340  -42.5740 O.co2 282  ASP282     -0.2456
    183  OD2       -9.0760  -21.1210  -42.7040 O.co2 282  ASP282     -0.2456
    184  N        -13.1090  -15.7380  -35.8480 N.3   289  VAL289     -0.1245
    185  CA       -13.3440  -17.1250  -36.3330 C.3   289  VAL289      0.1561
    186  C        -13.2990  -18.1260  -35.1810 C.2   289  VAL289      0.2260
    187  O        -14.1700  -19.0000  -35.0820 O.2   289  VAL289     -0.2867
    188  CB       -12.3460  -17.5390  -37.4560 C.3   289  VAL289      0.0252
    189  CG1      -12.4220  -19.0320  -37.7680 C.3   289  VAL289      0.0019
    190  CG2      -12.5910  -16.7090  -38.7030 C.3   289  VAL289      0.0019
    191  N        -16.2640  -20.5440  -33.9820 N.3   293  PHE293     -0.1241
    192  CA       -16.0880  -21.9920  -34.0240 C.3   293  PHE293      0.1605
    193  C        -16.5260  -22.6300  -32.6910 C.2   293  PHE293      0.2264
    194  O        -17.2910  -23.6010  -32.6870 O.2   293  PHE293     -0.2867
    195  CB       -14.6200  -22.3110  -34.3270 C.3   293  PHE293      0.0534
    196  CG       -14.3230  -23.7850  -34.4350 C.ar  293  PHE293     -0.0203
    197  CD1      -14.6690  -24.4980  -35.5860 C.ar  293  PHE293     -0.0042
    198  CD2      -13.6410  -24.4530  -33.4160 C.ar  293  PHE293     -0.0042
    199  CE1      -14.3330  -25.8480  -35.7140 C.ar  293  PHE293     -0.0003
    200  CE2      -13.2730  -25.7990  -33.5550 C.ar  293  PHE293     -0.0003
    201  CZ       -13.6200  -26.5000  -34.7140 C.ar  293  PHE293     -0.0000
    202  N        -20.4600  -22.1560  -32.3710 N.3   296  MET296     -0.1245
    203  CA       -21.2970  -22.9920  -33.2150 C.3   296  MET296      0.1570
    204  C        -21.2850  -24.4500  -32.7350 C.2   296  MET296      0.2261
    205  O        -22.1500  -25.2500  -33.1420 O.2   296  MET296     -0.2867
    206  CB       -20.8890  -22.8530  -34.6880 C.3   296  MET296      0.0387
    207  CG       -19.6360  -23.5960  -35.0480 C.3   296  MET296      0.0595
    208  SD       -19.2660  -23.5890  -36.8410 S.3   296  MET296     -0.1393
    209  CE       -20.1880  -25.0180  -37.4210 C.3   296  MET296      0.0692
@<TRIPOS>BOND
     1    78    77    2
     2    77    76    1
     3    81    80   ar
     4    32    33    1
     5    38    36    1
     6    33    34    1
     7    33    36    1
     8    35    34    2
     9    34    39   am
    10    36    37    1
    11    76    75    1
    12    76    79    1
    13    80    79    1
    14    80    82   ar
    15    39    40    1
    16    40    41    1
    17    40    43    1
    18    41    42    2
    19    44    43    1
    20    44    45    1
    21   134   132    1
    22   123   121    1
    23   131   132    2
    24   131   130    1
    25    45    46    1
    26    20    18   am
    27   132   133    1
    28   130   129    1
    29   119   120    2
    30   119   118    1
    31    83    84    1
    32    18    17    1
    33    18    19    2
    34   121   118    1
    35   121   122    1
    36    46    47    1
    37   129   128    1
    38    48    49    1
    39   124   125    1
    40    17    16    1
    41   166   165    1
    42    89    88    2
    43   118   117    1
    44    15    14    2
    45   163   165   ar
    46   163   161   ar
    47   165   164   ar
    48   128   125    1
    49    84    87    1
    50    84    85    1
    51    88    90   am
    52    88    87    1
    53   161   160   ar
    54   125   126    1
    55    49    50    1
    56    49    52    1
    57    14    13    1
    58   164   162   ar
    59    51    50    2
    60    21    22    1
    61    16    13    1
    62    22    25    1
    63    22    23    1
    64   160   162   ar
    65   160   159    1
    66     4     3    2
    67    86    85    2
    68    31    29    1
    69    12    13    1
    70    25    26    1
    71    58    60   ar
    72    58    55   ar
    73    60    61   ar
    74   127   126    2
    75    28    29    2
    76    28    27    1
    77   159   156    1
    78    61    59   ar
    79    55    53   ar
    80    55    57   ar
    81    52    53    1
    82    10     9    1
    83    53    54   ar
    84    59    57   ar
    85     7     6    1
    86     7     8    1
    87    57    56   ar
    88    29    30    1
    89    23    24    2
    90    54    56   ar
    91     3     2    1
    92    27    26    1
    93   102   101    1
    94     6     5    1
    95     5     2    1
    96   175   174    1
    97     1     2    1
    98   174   173    1
    99   155   156    1
   100   156   157    1
   101     9     8    2
   102     9    11    1
   103    99   101   ar
   104    99    97   ar
   105   101   100   ar
   106   173   172    1
   107   172   171    1
   108   157   158    2
   109    97    96   ar
   110    62    63    1
   111   171   168    1
   112    72    73    2
   113    72    71    1
   114   100    98   ar
   115   168   167    1
   116   168   169    1
   117   146   145    1
   118   116   113    1
   119   114   115    2
   120   114   113    1
   121   183   181   ar
   122    91    92    1
   123   182   181   ar
   124    68    67    1
   125    96    98   ar
   126    96    95    1
   127   113   112    1
   128    63    64    1
   129    63    66    1
   130   181   180    1
   131    71    74    1
   132    71    70    1
   133   169   170    2
   134   145   144   ar
   135   145   143   ar
   136    64    65    2
   137    92    95    1
   138    92    93    1
   139    66    67    1
   140   144   142   ar
   141    67    69    1
   142   143   141   ar
   143   177   180    1
   144   177   176    1
   145   177   178    1
   146    94    93    2
   147   142   140   ar
   148   178   179    2
   149   141   140   ar
   150   111   109   ar
   151   140   139    1
   152   190   188    1
   153   150   149    2
   154   109   108    1
   155   109   110   ar
   156   189   188    1
   157   108   107    1
   158   153   152    1
   159   149   148    1
   160   151   152    1
   161   151   148    1
   162   139   136    1
   163   188   185    1
   164   209   208    1
   165   135   136    1
   166   136   137    1
   167   152   154    1
   168   208   207    1
   169   106   105    2
   170   105   104    1
   171   148   147    1
   172   107   104    1
   173   185   184    1
   174   185   186    1
   175   104   103    1
   176   199   197   ar
   177   199   201   ar
   178   197   196   ar
   179   137   138    2
   180   186   187    2
   181   207   206    1
   182   201   200   ar
   183   206   203    1
   184   196   195    1
   185   196   198   ar
   186   195   192    1
   187   192   191    1
   188   192   193    1
   189   200   198   ar
   190   203   204    1
   191   203   202    1
   192   205   204    2
   193   193   194    2
