@<TRIPOS>MOLECULE
tmp/5ynxB00.pdb
 84 81 0 0 0
SMALL
GASTEIGER

@<TRIPOS>ATOM
      1  N         -8.1770   -5.4870   17.6890 N.3    19  LEU19      -0.1231
      2  CA        -9.1950   -4.5610   17.1650 C.3    19  LEU19       0.1693
      3  C         -9.8220   -4.9780   15.8870 C.2    19  LEU19       0.2591
      4  O        -11.0120   -4.7470   15.6550 O.2    19  LEU19      -0.2718
      5  CB        -8.6190   -3.1610   16.9830 C.3    19  LEU19       0.0284
      6  CG        -8.1770   -2.4310   18.2500 C.3    19  LEU19       0.0019
      7  CD1       -7.4110   -1.1670   17.9000 C.3    19  LEU19       0.0001
      8  CD2       -9.3510   -2.0870   19.1810 C.3    19  LEU19       0.0001
      9  N         -9.0640   -5.6260   15.0330 N.am   20  MET20      -0.1979
     10  CA        -9.5200   -5.9120   13.6710 C.3    20  MET20       0.1605
     11  C         -9.9170   -7.3260   13.3350 C.2    20  MET20       0.2287
     12  O        -10.5330   -7.5490   12.2880 O.2    20  MET20      -0.2864
     13  CB        -8.4200   -5.5460   12.7270 C.3    20  MET20       0.0413
     14  CG        -8.0540   -4.1170   12.7020 C.3    20  MET20       0.0598
     15  SD        -9.3730   -2.9940   12.1880 S.3    20  MET20      -0.1393
     16  CE        -9.5520   -3.4230   10.4420 C.3    20  MET20       0.0692
     17  N        -13.4720   -7.6640   12.6460 N.3    23  PHE23      -0.1241
     18  CA       -14.0560   -6.4240   12.1390 C.3    23  PHE23       0.1605
     19  C        -15.2340   -6.5860   11.1340 C.2    23  PHE23       0.2264
     20  O        -16.2660   -5.9700   11.1910 O.2    23  PHE23      -0.2867
     21  CB       -12.9410   -5.5970   11.4640 C.3    23  PHE23       0.0534
     22  CG       -13.4510   -4.4680   10.6410 C.ar   23  PHE23      -0.0203
     23  CD1      -13.7780   -3.2750   11.2620 C.ar   23  PHE23      -0.0042
     24  CD2      -13.7120   -4.6240    9.3100 C.ar   23  PHE23      -0.0042
     25  CE1      -14.2970   -2.2340   10.5500 C.ar   23  PHE23      -0.0003
     26  CE2      -14.2360   -3.5440    8.5850 C.ar   23  PHE23      -0.0003
     27  CZ       -14.5360   -2.3650    9.2290 C.ar   23  PHE23      -0.0000
     28  N        -18.3130   -7.7300   12.7520 N.3    26  LYS26      -0.1231
     29  CA       -18.9840   -6.6640   13.4860 C.3    26  LYS26       0.1693
     30  C        -19.7280   -5.7720   12.4900 C.2    26  LYS26       0.2591
     31  O        -20.8200   -5.2860   12.7700 O.2    26  LYS26      -0.2718
     32  CB       -18.0090   -5.8340   14.2840 C.3    26  LYS26       0.0285
     33  CG       -17.1670   -6.6020   15.2880 C.3    26  LYS26       0.0035
     34  CD       -17.9030   -7.0900   16.4550 C.3    26  LYS26       0.0206
     35  CE       -16.9040   -7.7320   17.4240 C.3    26  LYS26       0.1093
     36  NZ       -17.5980   -8.6610   18.3060 N.3    26  LYS26      -0.1314
     37  N        -19.1230   -5.4950   11.3580 N.am   27  MET27      -0.1979
     38  CA       -19.7940   -4.6490   10.3570 C.3    27  MET27       0.1605
     39  C        -21.0360   -5.3670    9.8080 C.2    27  MET27       0.2287
     40  O        -22.0830   -4.7120    9.5340 O.2    27  MET27      -0.2864
     41  CB       -18.8370   -4.2640    9.2600 C.3    27  MET27       0.0413
     42  CG       -17.7680   -3.3040    9.7060 C.3    27  MET27       0.0598
     43  SD       -18.2850   -1.7690   10.4630 S.3    27  MET27      -0.1393
     44  CE       -18.0510   -2.2620   12.2010 C.3    27  MET27       0.0692
     45  N        -21.3940    6.5540   14.8000 N.3    66  TYR66      -0.1241
     46  CA       -20.4170    5.5380   15.0060 C.3    66  TYR66       0.1605
     47  C        -19.6120    5.3350   13.7270 C.2    66  TYR66       0.2264
     48  O        -18.3690    5.3520   13.7410 O.2    66  TYR66      -0.2867
     49  CB       -21.0180    4.2260   15.4680 C.3    66  TYR66       0.0534
     50  CG       -20.0370    3.1410   15.4430 C.ar   66  TYR66      -0.0201
     51  CD1      -19.0380    3.0450   16.3950 C.ar   66  TYR66      -0.0009
     52  CD2      -19.9440    2.3330   14.3530 C.ar   66  TYR66      -0.0009
     53  CE1      -18.0430    2.1090   16.2750 C.ar   66  TYR66       0.0417
     54  CE2      -18.9630    1.4040   14.2150 C.ar   66  TYR66       0.0417
     55  CZ       -18.0020    1.2900   15.1900 C.ar   66  TYR66       0.1957
     56  OH       -16.9780    0.3750   15.0000 O.3    66  TYR66      -0.2866
     57  N        -17.1280    8.0620   12.6280 N.3    69  GLY69      -0.1210
     58  CA       -15.9420    7.9960   13.4180 C.3    69  GLY69       0.1956
     59  C        -15.0410    6.8160   13.0640 C.2    69  GLY69       0.2611
     60  O        -13.7910    6.9530   12.9460 O.2    69  GLY69      -0.2717
     61  N        -15.6220    5.6510   12.8230 N.am   70  ALA70      -0.1979
     62  CA       -14.8770    4.4490   12.4270 C.3    70  ALA70       0.1597
     63  C        -14.2220    4.6770   11.0640 C.2    70  ALA70       0.2287
     64  O        -13.0790    4.2460   10.8820 O.2    70  ALA70      -0.2864
     65  CB       -15.7930    3.2670   12.3420 C.3    70  ALA70       0.0319
     66  N        -11.1520    6.9410   11.4050 N.3    73  PHE73      -0.1227
     67  CA       -10.1360    6.1040   12.0710 C.3    73  PHE73       0.1736
     68  C         -9.4160    5.2100   11.0410 C.2    73  PHE73       0.2595
     69  O         -8.1950    5.1400   11.0180 O.2    73  PHE73      -0.2718
     70  CB       -10.7210    5.2940   13.2320 C.3    73  PHE73       0.0547
     71  CG        -9.7670    4.3260   13.8860 C.ar   73  PHE73      -0.0202
     72  CD1       -9.5090    3.0660   13.3660 C.ar   73  PHE73      -0.0042
     73  CD2       -9.0930    4.6950   15.0870 C.ar   73  PHE73      -0.0042
     74  CE1       -8.6340    2.1660   13.9870 C.ar   73  PHE73      -0.0003
     75  CE2       -8.2170    3.8060   15.7130 C.ar   73  PHE73      -0.0003
     76  CZ        -8.0100    2.5310   15.2020 C.ar   73  PHE73      -0.0000
     77  N        -10.1910    4.4560   10.2720 N.am   74  MET74      -0.1979
     78  CA        -9.6240    3.4710    9.3200 C.3    74  MET74       0.1605
     79  C         -8.8720    4.1720    8.2000 C.2    74  MET74       0.2287
     80  O         -7.8430    3.6750    7.7670 O.2    74  MET74      -0.2864
     81  CB       -10.6600    2.5670    8.7170 C.3    74  MET74       0.0413
     82  CG       -11.3040    1.6370    9.6920 C.3    74  MET74       0.0598
     83  SD       -10.1330    0.4990   10.4170 S.3    74  MET74      -0.1393
     84  CE       -11.3080   -0.1700   11.6140 C.3    74  MET74       0.0692
@<TRIPOS>BOND
     1    80    79    2
     2    79    78    1
     3    26    27   ar
     4    26    24   ar
     5    81    78    1
     6    81    82    1
     7    27    25   ar
     8    41    42    1
     9    41    38    1
    10    24    22   ar
    11    78    77    1
    12    40    39    2
    13    82    83    1
    14    42    43    1
    15    39    38    1
    16    77    68   am
    17    38    37    1
    18    83    84    1
    19    16    15    1
    20    43    44    1
    21    25    23   ar
    22    22    23   ar
    23    22    21    1
    24    64    63    2
    25    69    68    2
    26    68    67    1
    27    63    62    1
    28    19    20    2
    29    19    18    1
    30    37    30   am
    31    66    67    1
    32    21    18    1
    33    67    70    1
    34    18    17    1
    35    15    14    1
    36    12    11    2
    37    65    62    1
    38    62    61    1
    39    30    31    2
    40    30    29    1
    41    57    58    1
    42    14    13    1
    43    13    10    1
    44    28    29    1
    45    61    59   am
    46    60    59    2
    47    59    58    1
    48    70    71    1
    49    11    10    1
    50    72    71   ar
    51    72    74   ar
    52    29    32    1
    53    10     9    1
    54    47    48    2
    55    47    46    1
    56    71    73   ar
    57    74    76   ar
    58    54    52   ar
    59    54    55   ar
    60    32    33    1
    61    52    50   ar
    62    45    46    1
    63    56    55    1
    64    46    49    1
    65     9     3   am
    66    73    75   ar
    67    55    53   ar
    68    76    75   ar
    69    33    34    1
    70    50    49    1
    71    50    51   ar
    72     4     3    2
    73     3     2    1
    74    53    51   ar
    75    34    35    1
    76     5     2    1
    77     5     6    1
    78     2     1    1
    79    35    36    1
    80     7     6    1
    81     6     8    1
