@<TRIPOS>MOLECULE
tmp/5yo1A01.pdb
 155 142 0 0 0
SMALL
GASTEIGER

@<TRIPOS>ATOM
      1  N         50.8600  -18.8070   32.8590 N.3   257  GLY257     -0.1225
      2  CA        51.1320  -18.9620   31.4410 C.3   257  GLY257      0.1811
      3  C         51.8700  -20.2640   31.1690 C.2   257  GLY257      0.2280
      4  O         51.4540  -21.0460   30.3270 O.2   257  GLY257     -0.2866
      5  N         50.1010  -20.2260   24.9710 N.3   271  TYR271     -0.1241
      6  CA        51.5010  -19.9930   24.7300 C.3   271  TYR271      0.1605
      7  C         52.1920  -21.2180   24.1480 C.2   271  TYR271      0.2264
      8  O         53.4260  -21.3810   24.2800 O.2   271  TYR271     -0.2867
      9  CB        52.1840  -19.5780   26.0440 C.3   271  TYR271      0.0534
     10  CG        51.5950  -18.3430   26.5840 C.ar  271  TYR271     -0.0201
     11  CD1       51.6960  -17.1690   25.8650 C.ar  271  TYR271     -0.0009
     12  CD2       50.8640  -18.3400   27.7780 C.ar  271  TYR271     -0.0009
     13  CE1       51.1300  -16.0140   26.2940 C.ar  271  TYR271      0.0417
     14  CE2       50.2760  -17.1690   28.2180 C.ar  271  TYR271      0.0417
     15  CZ        50.4350  -16.0000   27.4650 C.ar  271  TYR271      0.1957
     16  OH        49.8770  -14.7920   27.8400 O.3   271  TYR271     -0.2866
     17  N         55.0920  -14.0340   21.4920 N.3   286  ASP286     -0.1239
     18  CA        54.7210  -14.4750   22.8370 C.3   286  ASP286      0.1674
     19  C         55.0420  -15.9190   23.0870 C.2   286  ASP286      0.2266
     20  O         55.5740  -16.2580   24.1560 O.2   286  ASP286     -0.2867
     21  CB        53.2250  -14.2590   23.1060 C.3   286  ASP286      0.1410
     22  CG        52.8540  -12.7860   23.4250 C.2   286  ASP286      0.3668
     23  OD1       53.7570  -11.9560   23.6220 O.co2 286  ASP286     -0.2456
     24  OD2       51.6300  -12.4580   23.4990 O.co2 286  ASP286     -0.2456
     25  N         58.6950  -16.2090   23.5500 N.3   289  ARG289     -0.1231
     26  CA        59.1400  -15.6020   24.8050 C.3   289  ARG289      0.1694
     27  C         58.8480  -16.4830   26.0280 C.2   289  ARG289      0.2591
     28  O         59.7130  -16.6380   26.9190 O.2   289  ARG289     -0.2718
     29  CB        58.5340  -14.1900   24.9170 C.3   289  ARG289      0.0321
     30  CG        57.9370  -13.7240   26.2310 C.3   289  ARG289      0.0489
     31  CD        57.4310  -12.2580   26.1850 C.3   289  ARG289      0.2205
     32  NE        56.7420  -11.8910   24.9270 N.pl3 289  ARG289     -0.0865
     33  CZ        57.2500  -11.1920   23.8760 C.cat 289  ARG289      0.5346
     34  NH1       58.5050  -10.7030   23.8390 N.pl3 289  ARG289      0.1354
     35  NH2       56.4720  -10.9760   22.8140 N.pl3 289  ARG289      0.1354
     36  N         57.6570  -17.0780   26.0340 N.am  290  VAL290     -0.1980
     37  CA        57.1850  -17.9020   27.1480 C.3   290  VAL290      0.1595
     38  C         57.8480  -19.2690   27.1410 C.2   290  VAL290      0.2287
     39  O         58.2800  -19.7260   28.1870 O.2   290  VAL290     -0.2864
     40  CB        55.6500  -17.9730   27.1410 C.3   290  VAL290      0.0276
     41  CG1       55.1110  -18.9420   28.1510 C.3   290  VAL290      0.0022
     42  CG2       55.0930  -16.5780   27.4050 C.3   290  VAL290      0.0022
     43  N         58.2820   -2.0890   24.2250 N.3   339  ASN339     -0.1225
     44  CA        57.1370   -2.7480   24.8280 C.3   339  ASN339      0.1785
     45  C         57.3040   -3.1290   26.3040 C.2   339  ASN339      0.2597
     46  O         56.3380   -3.0920   27.0780 O.2   339  ASN339     -0.2718
     47  CB        56.7140   -3.9780   23.9960 C.3   339  ASN339      0.1169
     48  CG        56.0600   -3.5690   22.7000 C.2   339  ASN339      0.2627
     49  OD1       55.1010   -2.7680   22.6780 O.2   339  ASN339     -0.2716
     50  ND2       56.6130   -4.0370   21.6030 N.am  339  ASN339     -0.0877
     51  N         58.5130   -3.4670   26.7040 N.am  340  ASN340     -0.1974
     52  CA        58.7420   -3.7440   28.1060 C.3   340  ASN340      0.1688
     53  C         58.6150   -2.4370   28.9240 C.2   340  ASN340      0.2292
     54  O         58.0460   -2.4210   30.0290 O.2   340  ASN340     -0.2864
     55  CB        60.0890   -4.4530   28.2950 C.3   340  ASN340      0.1181
     56  CG        60.0750   -5.8720   27.7340 C.2   340  ASN340      0.2629
     57  OD1       59.0760   -6.5870   27.8200 O.2   340  ASN340     -0.2716
     58  ND2       61.1640   -6.2740   27.1650 N.am  340  ASN340     -0.0877
     59  N         54.9740   -1.5150   29.3990 N.3   343  THR343     -0.1218
     60  CA        54.3830   -2.3080   30.4570 C.3   343  THR343      0.1862
     61  C         54.8110   -1.7710   31.7890 C.2   343  THR343      0.2287
     62  O         54.0190   -1.7250   32.7110 O.2   343  THR343     -0.2866
     63  CB        54.7770   -3.8000   30.3260 C.3   343  THR343      0.1770
     64  OG1       54.2650   -4.3220   29.0970 O.3   343  THR343     -0.2211
     65  CG2       54.2050   -4.6100   31.5020 C.3   343  THR343      0.0375
     66  N         51.4070   -0.3020   33.5050 N.3   347  LEU347     -0.1245
     67  CA        50.7720   -1.2190   34.4210 C.3   347  LEU347      0.1561
     68  C         51.5160   -1.3480   35.7270 C.2   347  LEU347      0.2260
     69  O         50.8980   -1.2770   36.8130 O.2   347  LEU347     -0.2867
     70  CB        50.6210   -2.5590   33.7690 C.3   347  LEU347      0.0270
     71  CG        49.6510   -2.5770   32.5790 C.3   347  LEU347      0.0019
     72  CD1       49.8710   -3.8140   31.7310 C.3   347  LEU347      0.0001
     73  CD2       48.1980   -2.5090   33.0190 C.3   347  LEU347      0.0001
     74  N         50.6970   -0.3900   39.7660 N.3   351  GLU351     -0.1245
     75  CA        50.7110   -1.3210   40.8800 C.3   351  GLU351      0.1567
     76  C         51.5290   -0.7610   42.0760 C.2   351  GLU351      0.2260
     77  O         51.1260   -0.9110   43.2700 O.2   351  GLU351     -0.2867
     78  CB        51.1940   -2.6700   40.4160 C.3   351  GLU351      0.0388
     79  CG        51.4780   -3.6950   41.5120 C.3   351  GLU351      0.1160
     80  CD        51.8530   -5.0600   40.9590 C.2   351  GLU351      0.3649
     81  OE1       53.0490   -5.3130   40.6460 O.co2 351  GLU351     -0.2457
     82  OE2       50.9340   -5.8760   40.8360 O.co2 351  GLU351     -0.2457
     83  N         53.4860   -7.9540   38.2840 N.3   374  LEU374     -0.1245
     84  CA        54.1790   -7.0820   37.3880 C.3   374  LEU374      0.1561
     85  C         55.4190   -6.6110   38.1120 C.2   374  LEU374      0.2260
     86  O         56.5090   -6.5100   37.5220 O.2   374  LEU374     -0.2867
     87  CB        53.2930   -5.8850   37.0500 C.3   374  LEU374      0.0270
     88  CG        52.0520   -6.1050   36.1410 C.3   374  LEU374      0.0019
     89  CD1       51.0310   -4.9910   36.3180 C.3   374  LEU374      0.0001
     90  CD2       52.4460   -6.1490   34.6890 C.3   374  LEU374      0.0001
     91  N         58.4150   -7.7770   36.2170 N.3   378  GLU378     -0.1245
     92  CA        58.8850   -6.7470   35.2920 C.3   378  GLU378      0.1567
     93  C         59.7820   -5.7810   35.9870 C.2   378  GLU378      0.2260
     94  O         60.8510   -5.4920   35.4860 O.2   378  GLU378     -0.2867
     95  CB        57.7250   -6.0000   34.6360 C.3   378  GLU378      0.0388
     96  CG        56.6340   -6.9150   34.0690 C.3   378  GLU378      0.1160
     97  CD        57.0520   -7.7110   32.8450 C.2   378  GLU378      0.3649
     98  OE1       58.1800   -7.6220   32.3950 O.co2 378  GLU378     -0.2457
     99  OE2       56.2250   -8.4600   32.3230 O.co2 378  GLU378     -0.2457
    100  N         46.0260    2.7760   29.6200 N.3   619  ASN619     -0.1240
    101  CA        46.8090    2.4940   30.8160 C.3   619  ASN619      0.1653
    102  C         48.1030    3.3190   30.9350 C.2   619  ASN619      0.2266
    103  O         48.3800    3.8870   31.9960 O.2   619  ASN619     -0.2867
    104  CB        47.0070    0.9730   30.9400 C.3   619  ASN619      0.1155
    105  CG        45.6760    0.2650   31.1350 C.2   619  ASN619      0.2627
    106  OD1       44.9900    0.4430   32.1300 O.2   619  ASN619     -0.2716
    107  ND2       45.2670   -0.4580   30.1420 N.am  619  ASN619     -0.0877
    108  N         39.7730   -4.4000   32.9900 N.3   787  GLY787     -0.1210
    109  CA        41.1570   -3.8880   32.8850 C.3   787  GLY787      0.1956
    110  C         41.4480   -2.9600   31.7160 C.2   787  GLY787      0.2612
    111  O         42.2270   -1.9670   31.8480 O.2   787  GLY787     -0.2717
    112  N         40.8140   -3.2720   30.5890 N.am  788  SER788     -0.1952
    113  CA        41.1490   -2.6300   29.3380 C.3   788  SER788      0.1924
    114  C         40.0120   -1.8460   28.7520 C.2   788  SER788      0.2314
    115  O         40.1800   -1.2850   27.6780 O.2   788  SER788     -0.2863
    116  CB        41.6580   -3.6620   28.3180 C.3   788  SER788      0.2116
    117  OG        42.5420   -4.6040   28.9160 O.3   788  SER788     -0.2180
    118  N         43.0820  -11.7420   40.3010 N.3   821  ARG821     -0.1245
    119  CA        43.5240  -10.9400   39.1620 C.3   821  ARG821      0.1563
    120  C         42.4190   -9.9420   38.7020 C.2   821  ARG821      0.2260
    121  O         42.6750   -8.7900   38.4350 O.2   821  ARG821     -0.2867
    122  CB        43.9880  -11.8670   38.0320 C.3   821  ARG821      0.0307
    123  CG        45.4670  -12.1770   38.0720 C.3   821  ARG821      0.0489
    124  CD        45.8540  -13.6120   38.3770 C.3   821  ARG821      0.2205
    125  NE        45.5070  -14.6200   37.3490 N.pl3 821  ARG821     -0.0865
    126  CZ        46.2520  -15.6930   37.0100 C.cat 821  ARG821      0.5346
    127  NH1       47.4770  -15.9410   37.5180 N.pl3 821  ARG821      0.1354
    128  NH2       45.7600  -16.5250   36.1040 N.pl3 821  ARG821      0.1354
    129  N         41.7330   -6.5250   40.5190 N.3   824  GLU824     -0.1231
    130  CA        42.7750   -5.5640   40.5810 C.3   824  GLU824      0.1684
    131  C         42.3090   -4.1350   40.1180 C.2   824  GLU824      0.2434
    132  O         42.6910   -3.1430   40.6740 O.2   824  GLU824     -0.2733
    133  CB        43.9730   -6.0840   39.8380 C.3   824  GLU824      0.0402
    134  CG        45.2570   -5.3940   40.2190 C.3   824  GLU824      0.1161
    135  CD        45.9150   -5.8910   41.4920 C.2   824  GLU824      0.3649
    136  OE1       45.5970   -6.9700   42.0190 O.co2 824  GLU824     -0.2457
    137  OE2       46.8070   -5.1750   41.9710 O.co2 824  GLU824     -0.2457
    138  N         41.4280   -4.0370   39.1550 N.am  825  PRO825     -0.2729
    139  CA        40.9260   -2.7390   38.7790 C.3   825  PRO825      0.1401
    140  C         40.0870   -1.9820   39.8480 C.2   825  PRO825      0.2269
    141  O         39.9640   -0.7760   39.7710 O.2   825  PRO825     -0.2865
    142  CB        40.0070   -3.0970   37.6100 C.3   825  PRO825      0.0296
    143  CG        40.6390   -4.2730   37.0150 C.3   825  PRO825      0.0237
    144  CD        41.0780   -5.0680   38.1740 C.3   825  PRO825      0.0939
    145  N         42.1200    0.0330   42.7600 N.3   828  ARG828     -0.1245
    146  CA        42.7480    1.2850   42.3500 C.3   828  ARG828      0.1563
    147  C         41.8710    2.5070   42.6480 C.2   828  ARG828      0.2260
    148  O         42.1670    3.6040   42.1590 O.2   828  ARG828     -0.2867
    149  CB        43.0130    1.2410   40.8440 C.3   828  ARG828      0.0307
    150  CG        43.7540    0.0160   40.3680 C.3   828  ARG828      0.0489
    151  CD        45.1350    0.0510   40.9230 C.3   828  ARG828      0.2205
    152  NE        45.9450   -1.0850   40.5200 N.pl3 828  ARG828     -0.0865
    153  CZ        46.4240   -1.3130   39.3030 C.cat 828  ARG828      0.5346
    154  NH1       46.1270   -0.5390   38.2510 N.pl3 828  ARG828      0.1354
    155  NH2       47.1860   -2.3660   39.1410 N.pl3 828  ARG828      0.1354
@<TRIPOS>BOND
     1    17    18    1
     2    50    48   am
     3    49    48    2
     4    48    47    1
     5    35    33    1
     6    18    19    1
     7    18    21    1
     8    19    20    2
     9    21    22    1
    10    22    24   ar
    11    22    23   ar
    12    25    26    1
    13    34    33    1
    14    33    32    2
    15    47    44    1
    16     7     8    2
    17     7     6    1
    18    43    44    1
    19     6     5    1
    20     6     9    1
    21    26    29    1
    22    26    27    1
    23    44    45    1
    24    29    30    1
    25    32    31    1
    26    11    13   ar
    27    11    10   ar
    28    27    36   am
    29    27    28    2
    30    36    37    1
    31     9    10    1
    32    31    30    1
    33    13    15   ar
    34    45    51   am
    35    45    46    2
    36    10    12   ar
    37    51    52    1
    38    38    37    1
    39    38    39    2
    40    40    37    1
    41    40    42    1
    42    40    41    1
    43    58    56   am
    44    15    16    1
    45    15    14   ar
    46   115   114    2
    47    56    57    2
    48    56    55    1
    49    12    14   ar
    50    52    55    1
    51    52    53    1
    52   116   117    1
    53   116   113    1
    54   114   113    1
    55    53    54    2
    56    64    63    1
    57   113   112    1
    58    59    60    1
    59   100   101    1
    60   107   105   am
    61    63    60    1
    62    63    65    1
    63     4     3    2
    64    60    61    1
    65   112   110   am
    66   101   102    1
    67   101   104    1
    68   102   103    2
    69   104   105    1
    70   105   106    2
    71     3     2    1
    72     2     1    1
    73   110   111    2
    74   110   109    1
    75    72    71    1
    76    61    62    2
    77    99    97   ar
    78    98    97   ar
    79    71    73    1
    80    71    70    1
    81    97    96    1
    82   109   108    1
    83    66    67    1
    84    70    67    1
    85    96    95    1
    86    67    68    1
    87    95    92    1
    88    90    88    1
    89    92    93    1
    90    92    91    1
    91    94    93    2
    92    68    69    2
    93   128   126    1
    94    88    89    1
    95    88    87    1
    96   126   125    2
    97   126   127    1
    98   143   142    1
    99   143   144    1
   100    87    84    1
   101   125   124    1
   102    84    85    1
   103    84    83    1
   104    86    85    2
   105   142   139    1
   106   122   123    1
   107   122   119    1
   108   123   124    1
   109   144   138    1
   110   154   153    1
   111   121   120    2
   112   120   119    1
   113   139   138    1
   114   139   140    1
   115   155   153    1
   116   138   131   am
   117   119   118    1
   118   153   152    2
   119    74    75    1
   120   141   140    2
   121   133   134    1
   122   133   130    1
   123   131   130    1
   124   131   132    2
   125   134   135    1
   126   150   149    1
   127   150   151    1
   128    78    75    1
   129    78    79    1
   130   129   130    1
   131   152   151    1
   132    81    80   ar
   133    82    80   ar
   134   149   146    1
   135    75    76    1
   136    80    79    1
   137   135   137   ar
   138   135   136   ar
   139    76    77    2
   140   148   147    2
   141   146   147    1
   142   146   145    1
