@<TRIPOS>MOLECULE
tmp/5yo1A00.pdb
 196 188 0 0 0
SMALL
GASTEIGER

@<TRIPOS>ATOM
      1  N         46.0070  -21.6180   35.1580 N.3   255  ASN255     -0.1225
      2  CA        46.0600  -20.2670   35.7130 C.3   255  ASN255      0.1785
      3  C         47.2800  -19.4850   35.3200 C.2   255  ASN255      0.2597
      4  O         47.1370  -18.3170   35.0420 O.2   255  ASN255     -0.2718
      5  CB        46.0130  -20.3210   37.2210 C.3   255  ASN255      0.1169
      6  CG        44.6520  -20.7350   37.7210 C.2   255  ASN255      0.2627
      7  OD1       43.6620  -20.5340   37.0310 O.2   255  ASN255     -0.2716
      8  ND2       44.5910  -21.2800   38.9320 N.am  255  ASN255     -0.0877
      9  N         48.4780  -20.0710   35.3010 N.am  256  MET256     -0.1965
     10  CA        49.6420  -19.2790   34.8980 C.3   256  MET256      0.1736
     11  C         49.7340  -19.2820   33.3570 C.2   256  MET256      0.2617
     12  O         48.7750  -19.6520   32.6080 O.2   256  MET256     -0.2715
     13  CB        50.9330  -19.7600   35.5760 C.3   256  MET256      0.0427
     14  CG        50.8570  -20.0420   37.0970 C.3   256  MET256      0.0599
     15  SD        50.0370  -18.8320   38.2250 S.3   256  MET256     -0.1393
     16  CE        51.3080  -17.6320   38.5420 C.3   256  MET256      0.0692
     17  N         50.8600  -18.8070   32.8590 N.am  257  GLY257     -0.1940
     18  CA        51.1320  -18.9620   31.4410 C.3   257  GLY257      0.2014
     19  C         51.8700  -20.2640   31.1690 C.2   257  GLY257      0.2638
     20  O         51.4540  -21.0460   30.3270 O.2   257  GLY257     -0.2714
     21  N         52.9700  -20.4470   31.9020 N.am  258  ALA258     -0.1977
     22  CA        53.7530  -21.6240   31.8010 C.3   258  ALA258      0.1597
     23  C         54.4950  -21.9240   33.1070 C.2   258  ALA258      0.2287
     24  O         54.9230  -21.0120   33.8150 O.2   258  ALA258     -0.2864
     25  CB        54.7400  -21.4840   30.6410 C.3   258  ALA258      0.0319
     26  N         47.4740  -21.5040   25.1650 N.3   270  LYS270     -0.1231
     27  CA        47.6910  -20.1740   24.5730 C.3   270  LYS270      0.1693
     28  C         49.1320  -19.8130   24.1790 C.2   270  LYS270      0.2592
     29  O         49.3430  -19.1320   23.1960 O.2   270  LYS270     -0.2718
     30  CB        47.2080  -19.1140   25.5450 C.3   270  LYS270      0.0285
     31  CG        47.1530  -17.7370   24.9790 C.3   270  LYS270      0.0035
     32  CD        46.4540  -16.8170   25.9530 C.3   270  LYS270      0.0206
     33  CE        47.4100  -16.4560   27.0520 C.3   270  LYS270      0.1093
     34  NZ        46.9770  -15.3080   27.8960 N.3   270  LYS270     -0.1314
     35  N         50.1010  -20.2260   24.9710 N.am  271  TYR271     -0.1976
     36  CA        51.5010  -19.9930   24.7300 C.3   271  TYR271      0.1639
     37  C         52.1920  -21.2180   24.1480 C.2   271  TYR271      0.2290
     38  O         53.4260  -21.3810   24.2800 O.2   271  TYR271     -0.2864
     39  CB        52.1840  -19.5780   26.0440 C.3   271  TYR271      0.0560
     40  CG        51.5950  -18.3430   26.5840 C.ar  271  TYR271     -0.0198
     41  CD1       51.6960  -17.1690   25.8650 C.ar  271  TYR271     -0.0009
     42  CD2       50.8640  -18.3400   27.7780 C.ar  271  TYR271     -0.0009
     43  CE1       51.1300  -16.0140   26.2940 C.ar  271  TYR271      0.0417
     44  CE2       50.2760  -17.1690   28.2180 C.ar  271  TYR271      0.0417
     45  CZ        50.4350  -16.0000   27.4650 C.ar  271  TYR271      0.1957
     46  OH        49.8770  -14.7920   27.8400 O.3   271  TYR271     -0.2866
     47  N         58.6950  -16.2090   23.5500 N.3   289  ARG289     -0.1231
     48  CA        59.1400  -15.6020   24.8050 C.3   289  ARG289      0.1694
     49  C         58.8480  -16.4830   26.0280 C.2   289  ARG289      0.2591
     50  O         59.7130  -16.6380   26.9190 O.2   289  ARG289     -0.2718
     51  CB        58.5340  -14.1900   24.9170 C.3   289  ARG289      0.0321
     52  CG        57.9370  -13.7240   26.2310 C.3   289  ARG289      0.0489
     53  CD        57.4310  -12.2580   26.1850 C.3   289  ARG289      0.2205
     54  NE        56.7420  -11.8910   24.9270 N.pl3 289  ARG289     -0.0865
     55  CZ        57.2500  -11.1920   23.8760 C.cat 289  ARG289      0.5346
     56  NH1       58.5050  -10.7030   23.8390 N.pl3 289  ARG289      0.1354
     57  NH2       56.4720  -10.9760   22.8140 N.pl3 289  ARG289      0.1354
     58  N         57.6570  -17.0780   26.0340 N.am  290  VAL290     -0.1980
     59  CA        57.1850  -17.9020   27.1480 C.3   290  VAL290      0.1595
     60  C         57.8480  -19.2690   27.1410 C.2   290  VAL290      0.2287
     61  O         58.2800  -19.7260   28.1870 O.2   290  VAL290     -0.2864
     62  CB        55.6500  -17.9730   27.1410 C.3   290  VAL290      0.0276
     63  CG1       55.1110  -18.9420   28.1510 C.3   290  VAL290      0.0022
     64  CG2       55.0930  -16.5780   27.4050 C.3   290  VAL290      0.0022
     65  N         61.2220  -18.4730   28.4070 N.3   293  HIS293     -0.1241
     66  CA        61.1130  -18.2120   29.8300 C.3   293  HIS293      0.1621
     67  C         61.1370  -19.5110   30.6050 C.2   293  HIS293      0.2264
     68  O         61.9430  -19.6700   31.5120 O.2   293  HIS293     -0.2867
     69  CB        59.7940  -17.4350   30.1050 C.3   293  HIS293      0.0745
     70  CG        59.6350  -16.9800   31.5190 C.ar  293  HIS293      0.0817
     71  ND1       60.1090  -15.7700   31.9580 N.ar  293  HIS293     -0.2268
     72  CD2       59.0940  -17.5870   32.6020 C.ar  293  HIS293      0.1154
     73  CE1       59.8430  -15.6320   33.2440 C.ar  293  HIS293      0.1986
     74  NE2       59.2500  -16.7280   33.6630 N.ar  293  HIS293     -0.2212
     75  N         62.8140  -13.3630   33.6470 N.3   320  VAL320     -0.1245
     76  CA        62.2550  -12.3930   32.7020 C.3   320  VAL320      0.1561
     77  C         63.3860  -11.6350   31.9970 C.2   320  VAL320      0.2260
     78  O         63.3270  -11.4360   30.8040 O.2   320  VAL320     -0.2867
     79  CB        61.2770  -11.4070   33.3630 C.3   320  VAL320      0.0252
     80  CG1       60.8940  -10.2340   32.4410 C.3   320  VAL320      0.0019
     81  CG2       60.0500  -12.1620   33.8520 C.3   320  VAL320      0.0019
     82  N         64.3970  -13.9070   29.2780 N.3   323  ASP323     -0.1239
     83  CA        63.4740  -13.9940   28.1270 C.3   323  ASP323      0.1674
     84  C         63.4680  -12.6840   27.3160 C.2   323  ASP323      0.2266
     85  O         63.3350  -12.7330   26.1240 O.2   323  ASP323     -0.2867
     86  CB        62.0620  -14.5370   28.4710 C.3   323  ASP323      0.1410
     87  CG        61.0720  -13.4770   29.0010 C.2   323  ASP323      0.3668
     88  OD1       60.7550  -12.4450   28.3170 O.co2 323  ASP323     -0.2456
     89  OD2       60.5650  -13.7280   30.1280 O.co2 323  ASP323     -0.2456
     90  N         52.6380  -13.0450   42.3320 N.3   372  TYR372     -0.1227
     91  CA        53.0750  -13.3430   40.9750 C.3   372  TYR372      0.1736
     92  C         52.6890  -12.1160   40.1540 C.2   372  TYR372      0.2596
     93  O         51.6540  -12.0990   39.4630 O.2   372  TYR372     -0.2718
     94  CB        52.4990  -14.6770   40.4650 C.3   372  TYR372      0.0548
     95  CG        53.2680  -15.8210   41.0950 C.ar  372  TYR372     -0.0200
     96  CD1       53.0540  -16.1490   42.4160 C.ar  372  TYR372     -0.0009
     97  CD2       54.2440  -16.4920   40.4180 C.ar  372  TYR372     -0.0009
     98  CE1       53.7760  -17.1190   43.0330 C.ar  372  TYR372      0.0417
     99  CE2       55.0090  -17.4350   41.0520 C.ar  372  TYR372      0.0417
    100  CZ        54.7510  -17.7490   42.3710 C.ar  372  TYR372      0.1957
    101  OH        55.4430  -18.6880   43.0820 O.3   372  TYR372     -0.2866
    102  N         53.5260  -11.0910   40.2660 N.am  373  THR373     -0.1939
    103  CA        53.1400   -9.7270   39.8930 C.3   373  THR373      0.2028
    104  C         54.0360   -9.0240   38.8590 C.2   373  THR373      0.2642
    105  O         55.1500   -9.4420   38.6010 O.2   373  THR373     -0.2714
    106  CB        53.1200   -8.8090   41.1140 C.3   373  THR373      0.1808
    107  OG1       54.3960   -8.8650   41.7530 O.3   373  THR373     -0.2208
    108  CG2       51.9750   -9.2000   42.0750 C.3   373  THR373      0.0379
    109  N         53.4860   -7.9540   38.2840 N.am  374  LEU374     -0.1977
    110  CA        54.1790   -7.0820   37.3880 C.3   374  LEU374      0.1596
    111  C         55.4190   -6.6110   38.1120 C.2   374  LEU374      0.2287
    112  O         56.5090   -6.5100   37.5220 O.2   374  LEU374     -0.2864
    113  CB        53.2930   -5.8850   37.0500 C.3   374  LEU374      0.0297
    114  CG        52.0520   -6.1050   36.1410 C.3   374  LEU374      0.0022
    115  CD1       51.0310   -4.9910   36.3180 C.3   374  LEU374      0.0001
    116  CD2       52.4460   -6.1490   34.6890 C.3   374  LEU374      0.0001
    117  N         57.9440   -9.6620   38.5730 N.3   377  TYR377     -0.1227
    118  CA        58.4020  -10.0500   37.2420 C.3   377  TYR377      0.1736
    119  C         59.1270   -8.8580   36.4770 C.2   377  TYR377      0.2595
    120  O         60.3290   -8.9090   36.1770 O.2   377  TYR377     -0.2718
    121  CB        57.2440  -10.6550   36.4250 C.3   377  TYR377      0.0548
    122  CG        56.8690  -12.0960   36.7550 C.ar  377  TYR377     -0.0200
    123  CD1       56.2220  -12.4300   37.9400 C.ar  377  TYR377     -0.0009
    124  CD2       57.1450  -13.1140   35.8650 C.ar  377  TYR377     -0.0009
    125  CE1       55.8650  -13.7560   38.2200 C.ar  377  TYR377      0.0417
    126  CE2       56.8390  -14.4440   36.1200 C.ar  377  TYR377      0.0417
    127  CZ        56.1900  -14.7710   37.2800 C.ar  377  TYR377      0.1957
    128  OH        55.8690  -16.0710   37.5030 O.3   377  TYR377     -0.2866
    129  N         58.4150   -7.7770   36.2170 N.am  378  GLU378     -0.1979
    130  CA        58.8850   -6.7470   35.2920 C.3   378  GLU378      0.1602
    131  C         59.7820   -5.7810   35.9870 C.2   378  GLU378      0.2287
    132  O         60.8510   -5.4920   35.4860 O.2   378  GLU378     -0.2864
    133  CB        57.7250   -6.0000   34.6360 C.3   378  GLU378      0.0415
    134  CG        56.6340   -6.9150   34.0690 C.3   378  GLU378      0.1163
    135  CD        57.0520   -7.7110   32.8450 C.2   378  GLU378      0.3649
    136  OE1       58.1800   -7.6220   32.3950 O.co2 378  GLU378     -0.2457
    137  OE2       56.2250   -8.4600   32.3230 O.co2 378  GLU378     -0.2457
    138  N         39.4860  -14.3340   31.4820 N.3   779  ARG779     -0.1245
    139  CA        40.3910  -13.2020   31.3040 C.3   779  ARG779      0.1563
    140  C         40.0800  -12.4070   30.0240 C.2   779  ARG779      0.2260
    141  O         40.1660  -11.2080   30.0160 O.2   779  ARG779     -0.2867
    142  CB        41.8610  -13.6600   31.4140 C.3   779  ARG779      0.0307
    143  CG        42.2670  -14.0960   32.8700 C.3   779  ARG779      0.0489
    144  CD        43.0960  -15.4050   33.0920 C.3   779  ARG779      0.2205
    145  NE        44.2690  -15.6000   32.2070 N.pl3 779  ARG779     -0.0865
    146  CZ        44.9870  -16.7300   32.0690 C.cat 779  ARG779      0.5346
    147  NH1       44.7300  -17.8310   32.7680 N.pl3 779  ARG779      0.1354
    148  NH2       46.0080  -16.7440   31.2130 N.pl3 779  ARG779      0.1354
    149  N         37.9270   -9.9630   32.2270 N.3   783  GLY783     -0.1225
    150  CA        39.1320   -9.3270   32.6550 C.3   783  GLY783      0.1811
    151  C         39.4400   -8.1820   31.7130 C.2   783  GLY783      0.2280
    152  O         39.8520   -7.1040   32.1720 O.2   783  GLY783     -0.2866
    153  N         37.0240   -5.1730   32.5020 N.3   786  ALA786     -0.1231
    154  CA        37.4280   -4.4430   33.7190 C.3   786  ALA786      0.1694
    155  C         38.7990   -3.7480   33.6150 C.2   786  ALA786      0.2592
    156  O         38.9670   -2.6610   34.1200 O.2   786  ALA786     -0.2718
    157  CB        37.4320   -5.3980   34.9230 C.3   786  ALA786      0.0304
    158  N         39.7730   -4.4000   32.9900 N.am  787  GLY787     -0.1957
    159  CA        41.1570   -3.8880   32.8850 C.3   787  GLY787      0.1869
    160  C         41.4480   -2.9600   31.7160 C.2   787  GLY787      0.2309
    161  O         42.2270   -1.9670   31.8480 O.2   787  GLY787     -0.2863
    162  N         43.0820  -11.7420   40.3010 N.3   821  ARG821     -0.1231
    163  CA        43.5240  -10.9400   39.1620 C.3   821  ARG821      0.1694
    164  C         42.4190   -9.9420   38.7020 C.2   821  ARG821      0.2591
    165  O         42.6750   -8.7900   38.4350 O.2   821  ARG821     -0.2718
    166  CB        43.9880  -11.8670   38.0320 C.3   821  ARG821      0.0321
    167  CG        45.4670  -12.1770   38.0720 C.3   821  ARG821      0.0489
    168  CD        45.8540  -13.6120   38.3770 C.3   821  ARG821      0.2205
    169  NE        45.5070  -14.6200   37.3490 N.pl3 821  ARG821     -0.0865
    170  CZ        46.2520  -15.6930   37.0100 C.cat 821  ARG821      0.5346
    171  NH1       47.4770  -15.9410   37.5180 N.pl3 821  ARG821      0.1354
    172  NH2       45.7600  -16.5250   36.1040 N.pl3 821  ARG821      0.1354
    173  N         41.1930  -10.4270   38.6240 N.am  822  LEU822     -0.1980
    174  CA        40.0570   -9.6280   38.2030 C.3   822  LEU822      0.1596
    175  C         39.6770   -8.4880   39.1770 C.2   822  LEU822      0.2287
    176  O         39.0630   -7.4990   38.7590 O.2   822  LEU822     -0.2864
    177  CB        38.8340  -10.5150   37.9810 C.3   822  LEU822      0.0297
    178  CG        38.5830  -10.9180   36.5480 C.3   822  LEU822      0.0022
    179  CD1       39.8150  -11.4320   35.8400 C.3   822  LEU822      0.0001
    180  CD2       37.5180  -12.0070   36.5950 C.3   822  LEU822      0.0001
    181  N         41.7330   -6.5250   40.5190 N.3   824  GLU824     -0.1231
    182  CA        42.7750   -5.5640   40.5810 C.3   824  GLU824      0.1684
    183  C         42.3090   -4.1350   40.1180 C.2   824  GLU824      0.2434
    184  O         42.6910   -3.1430   40.6740 O.2   824  GLU824     -0.2733
    185  CB        43.9730   -6.0840   39.8380 C.3   824  GLU824      0.0402
    186  CG        45.2570   -5.3940   40.2190 C.3   824  GLU824      0.1161
    187  CD        45.9150   -5.8910   41.4920 C.2   824  GLU824      0.3649
    188  OE1       45.5970   -6.9700   42.0190 O.co2 824  GLU824     -0.2457
    189  OE2       46.8070   -5.1750   41.9710 O.co2 824  GLU824     -0.2457
    190  N         41.4280   -4.0370   39.1550 N.am  825  PRO825     -0.2729
    191  CA        40.9260   -2.7390   38.7790 C.3   825  PRO825      0.1401
    192  C         40.0870   -1.9820   39.8480 C.2   825  PRO825      0.2269
    193  O         39.9640   -0.7760   39.7710 O.2   825  PRO825     -0.2865
    194  CB        40.0070   -3.0970   37.6100 C.3   825  PRO825      0.0296
    195  CG        40.6390   -4.2730   37.0150 C.3   825  PRO825      0.0237
    196  CD        41.0780   -5.0680   38.1740 C.3   825  PRO825      0.0939
@<TRIPOS>BOND
     1    57    55    1
     2    29    28    2
     3    47    48    1
     4    56    55    1
     5    55    54    2
     6    37    38    2
     7    37    36    1
     8    28    27    1
     9    28    35   am
    10    27    26    1
    11    27    30    1
    12    36    35    1
    13    36    39    1
    14    48    51    1
    15    48    49    1
    16    51    52    1
    17    54    53    1
    18    31    30    1
    19    31    32    1
    20    41    43   ar
    21    41    40   ar
    22    32    33    1
    23    49    58   am
    24    49    50    2
    25    58    59    1
    26    39    40    1
    27    85    84    2
    28    53    52    1
    29    43    45   ar
    30    40    42   ar
    31    33    34    1
    32    60    59    1
    33    60    61    2
    34    62    59    1
    35    62    64    1
    36    62    63    1
    37    84    83    1
    38    45    46    1
    39    45    44   ar
    40    42    44   ar
    41    83    86    1
    42    83    82    1
    43    88    87   ar
    44    65    66    1
    45    86    87    1
    46    87    89   ar
    47    66    69    1
    48    66    67    1
    49   141   140    2
    50   140   139    1
    51    69    70    1
    52    20    19    2
    53    67    68    2
    54    25    22    1
    55    78    77    2
    56    19    18    1
    57    19    21   am
    58   148   146    1
    59   139   142    1
    60   139   138    1
    61   142   143    1
    62    18    17    1
    63    70    71   ar
    64    70    72   ar
    65   151   152    2
    66   151   150    1
    67   160   161    2
    68   160   159    1
    69    22    21    1
    70    22    23    1
    71    71    73   ar
    72    77    76    1
    73   146   145    2
    74   146   147    1
    75   145   144    1
    76   149   150    1
    77   137   135   ar
    78   136   135   ar
    79    80    79    1
    80   153   154    1
    81    72    74   ar
    82    12    11    2
    83    76    79    1
    84    76    75    1
    85   135   134    1
    86    17    11   am
    87   143   144    1
    88   159   158    1
    89   158   155   am
    90    23    24    2
    91    73    74   ar
    92    11    10    1
    93    79    81    1
    94   155   154    1
    95   155   156    2
    96   154   157    1
    97   134   133    1
    98   133   130    1
    99   116   114    1
   100    10     9    1
   101    10    13    1
   102     4     3    2
   103     1     2    1
   104   130   131    1
   105   130   129    1
   106     9     3   am
   107     3     2    1
   108   132   131    2
   109    13    14    1
   110     2     5    1
   111   179   178    1
   112   124   126   ar
   113   124   122   ar
   114   172   170    1
   115   126   127   ar
   116   114   115    1
   117   114   113    1
   118   120   119    2
   119   129   119   am
   120   121   122    1
   121   121   118    1
   122   119   118    1
   123   178   180    1
   124   178   177    1
   125   122   123   ar
   126   170   169    2
   127   170   171    1
   128   195   194    1
   129   195   196    1
   130     7     6    2
   131   113   110    1
   132    14    15    1
   133     5     6    1
   134   118   117    1
   135   127   128    1
   136   127   125   ar
   137   169   168    1
   138   110   111    1
   139   110   109    1
   140   112   111    2
   141   194   191    1
   142     6     8   am
   143   123   125   ar
   144   177   174    1
   145   166   167    1
   146   166   163    1
   147   167   168    1
   148   196   190    1
   149   174   173    1
   150   174   175    1
   151    15    16    1
   152   109   104   am
   153   165   164    2
   154   105   104    2
   155   173   164   am
   156   164   163    1
   157   176   175    2
   158   191   190    1
   159   191   192    1
   160   104   103    1
   161   190   183   am
   162   163   162    1
   163    93    92    2
   164   193   192    2
   165   185   186    1
   166   185   182    1
   167   103   102    1
   168   103   106    1
   169   183   182    1
   170   183   184    2
   171    92   102   am
   172    92    91    1
   173   186   187    1
   174    97    99   ar
   175    97    95   ar
   176    94    91    1
   177    94    95    1
   178   181   182    1
   179    91    90    1
   180    99   100   ar
   181    95    96   ar
   182   106   107    1
   183   106   108    1
   184   187   189   ar
   185   187   188   ar
   186   100    98   ar
   187   100   101    1
   188    96    98   ar
