@<TRIPOS>MOLECULE
tmp/5yo2B00.pdb
 140 132 0 0 0
SMALL
GASTEIGER

@<TRIPOS>ATOM
      1  N         31.1710   41.2740   43.2320 N.3    23  GLY23      -0.1210
      2  CA        31.0970   42.5620   42.5650 C.3    23  GLY23       0.1956
      3  C         30.7090   42.5110   41.1000 C.2    23  GLY23       0.2612
      4  O         30.3390   43.5360   40.5190 O.2    23  GLY23      -0.2717
      5  N         30.7980   41.3320   40.4840 N.am   24  LYS24      -0.1965
      6  CA        30.3050   41.1790   39.1190 C.3    24  LYS24       0.1728
      7  C         28.7890   41.3090   39.0710 C.2    24  LYS24       0.2616
      8  O         28.2410   41.9610   38.1740 O.2    24  LYS24      -0.2715
      9  CB        30.7480   39.8330   38.5460 C.3    24  LYS24       0.0311
     10  CG        30.3740   39.5470   37.1190 C.3    24  LYS24       0.0038
     11  CD        31.2130   40.3860   36.2100 C.3    24  LYS24       0.0206
     12  CE        31.0740   39.9210   34.7570 C.3    24  LYS24       0.1093
     13  NZ        29.7900   40.2870   34.1890 N.3    24  LYS24      -0.1314
     14  N         28.1010   40.7180   40.0440 N.am   25  ILE25      -0.1963
     15  CA        26.6440   40.6700   40.0610 C.3    25  ILE25       0.1727
     16  C         26.1160   41.8250   40.9010 C.2    25  ILE25       0.2616
     17  O         25.4640   42.7360   40.3790 O.2    25  ILE25      -0.2715
     18  CB        26.1600   39.3140   40.6050 C.3    25  ILE25       0.0290
     19  CG1       26.6610   38.1810   39.7040 C.3    25  ILE25       0.0022
     20  CG2       24.6400   39.2830   40.7160 C.3    25  ILE25       0.0023
     21  CD1       26.4580   36.7950   40.2750 C.3    25  ILE25       0.0001
     22  N         26.3850   41.7950   42.2020 N.am   26  LEU26      -0.1963
     23  CA        25.9430   42.8470   43.1040 C.3    26  LEU26       0.1728
     24  C         27.0460   43.8770   43.2900 C.2    26  LEU26       0.2616
     25  O         28.2350   43.5570   43.2440 O.2    26  LEU26      -0.2715
     26  CB        25.5410   42.2810   44.4690 C.3    26  LEU26       0.0311
     27  CG        24.2450   41.4780   44.5760 C.3    26  LEU26       0.0022
     28  CD1       23.9240   41.2470   46.0340 C.3    26  LEU26       0.0001
     29  CD2       23.0750   42.1740   43.8810 C.3    26  LEU26       0.0001
     30  N         26.6350   45.1200   43.5120 N.am   27  LEU27      -0.1977
     31  CA        27.5800   46.1710   43.8610 C.3    27  LEU27       0.1596
     32  C         28.0530   45.9760   45.2980 C.2    27  LEU27       0.2287
     33  O         27.2390   45.9040   46.2260 O.2    27  LEU27      -0.2864
     34  CB        26.9320   47.5400   43.6720 C.3    27  LEU27       0.0297
     35  CG        27.7870   48.7720   43.9740 C.3    27  LEU27       0.0022
     36  CD1       29.1480   48.6910   43.3100 C.3    27  LEU27       0.0001
     37  CD2       27.0560   50.0250   43.5150 C.3    27  LEU27       0.0001
     38  N         29.4090   46.3340   49.0280 N.3    29  LYS29      -0.1245
     39  CA        29.0680   47.2810   50.0840 C.3    29  LYS29       0.1561
     40  C         29.8600   46.9040   51.3240 C.2    29  LYS29       0.2260
     41  O         29.6570   45.8210   51.8800 O.2    29  LYS29      -0.2867
     42  CB        27.5650   47.2630   50.3790 C.3    29  LYS29       0.0271
     43  CG        26.6940   47.6370   49.1910 C.3    29  LYS29       0.0035
     44  CD        26.9160   49.0780   48.7620 C.3    29  LYS29       0.0206
     45  CE        25.6370   49.7000   48.2220 C.3    29  LYS29       0.1093
     46  NZ        25.2420   49.1080   46.9070 N.3    29  LYS29      -0.1314
     47  N         15.0080   52.9700   43.5280 N.3    68  GLU68      -0.1231
     48  CA        15.7740   51.8590   42.9830 C.3    68  GLU68       0.1699
     49  C         15.7070   50.6740   43.9320 C.2    68  GLU68       0.2592
     50  O         15.5990   50.8360   45.1500 O.2    68  GLU68      -0.2718
     51  CB        17.2410   52.2440   42.7450 C.3    68  GLU68       0.0402
     52  CG        18.1280   51.0950   42.2770 C.3    68  GLU68       0.1161
     53  CD        19.5730   51.5080   42.0950 C.2    68  GLU68       0.3649
     54  OE1       20.0650   51.4710   40.9450 O.co2  68  GLU68      -0.2457
     55  OE2       20.2100   51.8870   43.1000 O.co2  68  GLU68      -0.2457
     56  N         15.7650   49.4780   43.3570 N.am   69  ILE69      -0.1966
     57  CA        15.9330   48.2440   44.1120 C.3    69  ILE69       0.1727
     58  C         17.3720   47.7890   43.9250 C.2    69  ILE69       0.2616
     59  O         17.8340   47.6130   42.7910 O.2    69  ILE69      -0.2715
     60  CB        14.9300   47.1690   43.6600 C.3    69  ILE69       0.0290
     61  CG1       13.5740   47.4300   44.3330 C.3    69  ILE69       0.0022
     62  CG2       15.4630   45.7550   43.9540 C.3    69  ILE69       0.0023
     63  CD1       12.5270   46.3550   44.1110 C.3    69  ILE69       0.0001
     64  N         18.0800   47.6040   45.0360 N.am   70  ARG70      -0.1963
     65  CA        19.5050   47.3170   45.0080 C.3    70  ARG70       0.1729
     66  C         19.8410   46.2970   46.0840 C.2    70  ARG70       0.2617
     67  O         19.0620   46.0580   47.0090 O.2    70  ARG70      -0.2715
     68  CB        20.3460   48.5820   45.2240 C.3    70  ARG70       0.0348
     69  CG        19.9800   49.3430   46.4850 C.3    70  ARG70       0.0492
     70  CD        21.0530   50.3470   46.8680 C.3    70  ARG70       0.2205
     71  NE        21.2670   51.3560   45.8370 N.pl3  70  ARG70      -0.0865
     72  CZ        22.1100   52.3760   45.9550 C.cat  70  ARG70       0.5346
     73  NH1       22.8250   52.5270   47.0620 N.pl3  70  ARG70       0.1354
     74  NH2       22.2380   53.2480   44.9640 N.pl3  70  ARG70       0.1354
     75  N         21.0240   45.7050   45.9520 N.am   71  THR71      -0.1937
     76  CA        21.5520   44.7580   46.9280 C.3    71  THR71       0.2028
     77  C         20.4890   43.7420   47.3470 C.2    71  THR71       0.2642
     78  O         20.1460   43.6000   48.5210 O.2    71  THR71      -0.2714
     79  CB        22.1020   45.5100   48.1440 C.3    71  THR71       0.1808
     80  OG1       23.0110   46.5280   47.7040 O.3    71  THR71      -0.2208
     81  CG2       22.8370   44.5640   49.0820 C.3    71  THR71       0.0379
     82  N         19.9660   43.0310   46.3530 N.am   72  VAL72      -0.1977
     83  CA        19.0660   41.9050   46.5810 C.3    72  VAL72       0.1596
     84  C         19.8950   40.6310   46.5050 C.2    72  VAL72       0.2287
     85  O         20.4720   40.3180   45.4560 O.2    72  VAL72      -0.2864
     86  CB        17.9160   41.8840   45.5610 C.3    72  VAL72       0.0276
     87  CG1       16.9350   40.7640   45.8910 C.3    72  VAL72       0.0022
     88  CG2       17.2020   43.2290   45.5300 C.3    72  VAL72       0.0022
     89  N         19.0390   47.6220   37.8460 N.3   106  LEU106     -0.1231
     90  CA        20.1300   47.2830   36.9390 C.3   106  LEU106      0.1693
     91  C         20.6280   45.9010   37.3330 C.2   106  LEU106      0.2592
     92  O         21.2530   45.7420   38.3870 O.2   106  LEU106     -0.2718
     93  CB        21.2530   48.3170   37.0100 C.3   106  LEU106      0.0284
     94  CG        22.4490   48.0810   36.0830 C.3   106  LEU106      0.0019
     95  CD1       22.0200   48.0340   34.6260 C.3   106  LEU106      0.0001
     96  CD2       23.5050   49.1550   36.2900 C.3   106  LEU106      0.0001
     97  N         20.3680   44.9060   36.4890 N.am  107  THR107     -0.1953
     98  CA        20.5890   43.5210   36.8810 C.3   107  THR107      0.1897
     99  C         20.7750   42.6570   35.6440 C.2   107  THR107      0.2313
    100  O         20.4830   43.0670   34.5190 O.2   107  THR107     -0.2863
    101  CB        19.4170   42.9960   37.7160 C.3   107  THR107      0.1794
    102  OG1       19.7390   41.7020   38.2420 O.3   107  THR107     -0.2208
    103  CG2       18.1460   42.9000   36.8640 C.3   107  THR107      0.0378
    104  N         25.9130   53.4960   43.2170 N.3   141  GLY141     -0.1225
    105  CA        24.7140   52.9600   42.5970 C.3   141  GLY141      0.1811
    106  C         23.9760   53.9910   41.7670 C.2   141  GLY141      0.2280
    107  O         23.3400   53.6500   40.7670 O.2   141  GLY141     -0.2866
    108  N         25.8530   54.2150   38.4380 N.3   144  GLU144     -0.1245
    109  CA        25.5040   53.1080   37.5540 C.3   144  GLU144      0.1567
    110  C         24.1360   53.3210   36.9230 C.2   144  GLU144      0.2260
    111  O         23.8960   52.8730   35.7970 O.2   144  GLU144     -0.2867
    112  CB        25.5360   51.7830   38.3170 C.3   144  GLU144      0.0388
    113  CG        26.9290   51.3360   38.7270 C.3   144  GLU144      0.1160
    114  CD        26.9230   50.0030   39.4550 C.2   144  GLU144      0.3649
    115  OE1       25.8250   49.5230   39.8170 O.co2 144  GLU144     -0.2457
    116  OE2       28.0180   49.4330   39.6550 O.co2 144  GLU144     -0.2457
    117  N         32.0700   48.4520   34.8240 N.3   154  ASN154     -0.1225
    118  CA        31.5870   47.5800   35.8850 C.3   154  ASN154      0.1785
    119  C         30.1640   47.0770   35.6700 C.2   154  ASN154      0.2597
    120  O         29.6800   46.2890   36.4910 O.2   154  ASN154     -0.2718
    121  CB        31.6580   48.3050   37.2340 C.3   154  ASN154      0.1169
    122  CG        33.0450   48.8320   37.5410 C.2   154  ASN154      0.2627
    123  OD1       33.2260   50.0200   37.8090 O.2   154  ASN154     -0.2716
    124  ND2       34.0310   47.9450   37.5160 N.am  154  ASN154     -0.0877
    125  N         29.4780   47.5010   34.6080 N.am  155  ILE155     -0.1980
    126  CA        28.0550   47.1960   34.4870 C.3   155  ILE155      0.1595
    127  C         27.6590   46.7520   33.0840 C.2   155  ILE155      0.2287
    128  O         26.4680   46.5810   32.8000 O.2   155  ILE155     -0.2864
    129  CB        27.2130   48.4110   34.9150 C.3   155  ILE155      0.0276
    130  CG1       27.5520   49.6270   34.0470 C.3   155  ILE155      0.0022
    131  CG2       27.4330   48.7150   36.3940 C.3   155  ILE155      0.0022
    132  CD1       26.5150   50.7240   34.1050 C.3   155  ILE155      0.0001
    133  N         24.7260   44.0470   32.0820 N.3   158  ASN158     -0.1240
    134  CA        23.5320   44.2290   32.8900 C.3   158  ASN158      0.1653
    135  C         22.4250   44.8540   32.0540 C.2   158  ASN158      0.2266
    136  O         22.6740   45.6320   31.1310 O.2   158  ASN158     -0.2867
    137  CB        23.8310   45.1120   34.1010 C.3   158  ASN158      0.1155
    138  CG        24.6420   44.3950   35.1610 C.2   158  ASN158      0.2627
    139  OD1       25.8680   44.3170   35.0760 O.2   158  ASN158     -0.2716
    140  ND2       23.9590   43.8680   36.1700 N.am  158  ASN158     -0.0877
@<TRIPOS>BOND
     1   136   135    2
     2   135   134    1
     3   133   134    1
     4   128   127    2
     5   134   137    1
     6   127   126    1
     7   130   132    1
     8   130   129    1
     9   137   138    1
    10    13    12    1
    11   126   125    1
    12   126   129    1
    13   100    99    2
    14   125   119   am
    15    95    94    1
    16    12    11    1
    17   117   118    1
    18   129   131    1
    19   139   138    2
    20   138   140   am
    21    99    98    1
    22   119   118    1
    23   119   120    2
    24   111   110    2
    25   118   121    1
    26    94    96    1
    27    94    93    1
    28    11    10    1
    29    97    98    1
    30    97    91   am
    31   103   101    1
    32    98   101    1
    33   110   109    1
    34    90    93    1
    35    90    91    1
    36    90    89    1
    37    10     9    1
    38   121   122    1
    39    91    92    2
    40   124   122   am
    41   122   123    2
    42   109   112    1
    43   109   108    1
    44   101   102    1
    45     8     7    2
    46   112   113    1
    47     9     6    1
    48   113   114    1
    49     7     6    1
    50     7    14   am
    51     6     5    1
    52   114   116   ar
    53   114   115   ar
    54    19    21    1
    55    19    18    1
    56    14    15    1
    57    15    18    1
    58    15    16    1
    59    17    16    2
    60     5     3   am
    61     4     3    2
    62    18    20    1
    63   107   106    2
    64    16    22   am
    65    54    53   ar
    66     3     2    1
    67   106   105    1
    68    53    52    1
    69    53    55   ar
    70    22    23    1
    71    52    51    1
    72     2     1    1
    73   105   104    1
    74    51    48    1
    75    59    58    2
    76    48    47    1
    77    48    49    1
    78    23    24    1
    79    23    26    1
    80    25    24    2
    81    24    30   am
    82    36    35    1
    83    56    49   am
    84    56    57    1
    85    30    31    1
    86    37    35    1
    87    60    62    1
    88    60    57    1
    89    60    61    1
    90    34    31    1
    91    34    35    1
    92    31    32    1
    93    29    27    1
    94    58    57    1
    95    58    64   am
    96    49    50    2
    97    63    61    1
    98    26    27    1
    99    27    28    1
   100    74    72    1
   101    65    64    1
   102    65    68    1
   103    65    66    1
   104    68    69    1
   105    32    33    2
   106    85    84    2
   107    88    86    1
   108    86    87    1
   109    86    83    1
   110    71    72    2
   111    71    70    1
   112    75    66   am
   113    75    76    1
   114    72    73    1
   115    66    67    2
   116    82    83    1
   117    82    77   am
   118    69    70    1
   119    84    83    1
   120    46    45    1
   121    76    77    1
   122    76    79    1
   123    77    78    2
   124    80    79    1
   125    79    81    1
   126    45    44    1
   127    44    43    1
   128    38    39    1
   129    43    42    1
   130    39    42    1
   131    39    40    1
   132    40    41    2
