@<TRIPOS>MOLECULE
tmp/5yo9B00.pdb
 204 195 0 0 0
SMALL
GASTEIGER

@<TRIPOS>ATOM
      1  N         43.4610   43.4610   14.8330 N.3    49  ARG49      -0.1231
      2  CA        43.4120   44.5190   13.8330 C.3    49  ARG49       0.1694
      3  C         42.2370   45.4510   14.1000 C.2    49  ARG49       0.2593
      4  O         41.2010   45.0320   14.6290 O.2    49  ARG49      -0.2718
      5  CB        43.2920   43.9370   12.4230 C.3    49  ARG49       0.0321
      6  CG        44.3440   42.8950   12.0950 C.3    49  ARG49       0.0489
      7  CD        44.5740   42.7900   10.5890 C.3    49  ARG49       0.2205
      8  NE        43.7290   41.7730    9.9600 N.pl3  49  ARG49      -0.0865
      9  CZ        44.0480   41.1230    8.8420 C.cat  49  ARG49       0.5346
     10  NH1       43.2190   40.2160    8.3320 N.pl3  49  ARG49       0.1354
     11  NH2       45.1990   41.3800    8.2320 N.pl3  49  ARG49       0.1354
     12  N         42.4050   46.7170   13.7100 N.am   50  GLY50      -0.1942
     13  CA        41.4140   47.7450   13.9500 C.3    50  GLY50       0.2014
     14  C         40.3840   47.8470   12.8390 C.2    50  GLY50       0.2640
     15  O         40.3230   47.0280   11.9240 O.2    50  GLY50      -0.2714
     16  N         39.5590   48.8890   12.9320 N.am   51  SER51      -0.1935
     17  CA        38.4270   49.0920   12.0350 C.3    51  SER51       0.2055
     18  C         38.4690   50.5120   11.4850 C.2    51  SER51       0.2643
     19  O         39.1920   51.3740   11.9900 O.2    51  SER51      -0.2714
     20  CB        37.0930   48.8260   12.7640 C.3    51  SER51       0.2130
     21  OG        35.9710   48.9650   11.9070 O.3    51  SER51      -0.2179
     22  N         37.6890   50.7640   10.4340 N.am   52  SER52      -0.1949
     23  CA        37.6180   52.1090    9.8820 C.3    52  SER52       0.1924
     24  C         36.2010   52.4070    9.4090 C.2    52  SER52       0.2314
     25  O         35.5300   51.5400    8.8360 O.2    52  SER52      -0.2863
     26  CB        38.6440   52.3070    8.7410 C.3    52  SER52       0.2116
     27  OG        38.1050   52.0860    7.4520 O.3    52  SER52      -0.2180
     28  N         35.5730   51.9450    5.5870 N.3    55  PHE55      -0.1227
     29  CA        35.2730   50.5840    5.1520 C.3    55  PHE55       0.1736
     30  C         33.8200   50.2210    5.4420 C.2    55  PHE55       0.2595
     31  O         33.1110   49.7210    4.5610 O.2    55  PHE55      -0.2718
     32  CB        36.2140   49.5890    5.8320 C.3    55  PHE55       0.0547
     33  CG        35.8740   48.1480    5.5540 C.ar   55  PHE55      -0.0202
     34  CD1       36.3570   47.5180    4.4180 C.ar   55  PHE55      -0.0042
     35  CD2       35.0620   47.4330    6.4140 C.ar   55  PHE55      -0.0042
     36  CE1       36.0440   46.1940    4.1500 C.ar   55  PHE55      -0.0003
     37  CE2       34.7420   46.1060    6.1530 C.ar   55  PHE55      -0.0003
     38  CZ        35.2420   45.4850    5.0240 C.ar   55  PHE55      -0.0000
     39  N         33.3630   50.4750    6.6790 N.am   56  ILE56      -0.1980
     40  CA        32.0050   50.1100    7.0950 C.3    56  ILE56       0.1595
     41  C         30.9860   50.5590    6.0600 C.2    56  ILE56       0.2287
     42  O         30.1620   49.7630    5.5780 O.2    56  ILE56      -0.2864
     43  CB        31.6620   50.7210    8.4680 C.3    56  ILE56       0.0276
     44  CG1       32.6280   50.2900    9.5830 C.3    56  ILE56       0.0022
     45  CG2       30.1930   50.4520    8.8070 C.3    56  ILE56       0.0022
     46  CD1       33.2780   48.9470    9.3970 C.3    56  ILE56       0.0001
     47  N         31.4760   49.1650    2.3740 N.3    59  ALA59      -0.1231
     48  CA        31.2090   47.7330    2.2610 C.3    59  ALA59       0.1694
     49  C         29.7280   47.4090    2.4220 C.2    59  ALA59       0.2592
     50  O         29.2340   46.4760    1.7880 O.2    59  ALA59      -0.2718
     51  CB        32.0260   46.9470    3.2930 C.3    59  ALA59       0.0304
     52  N         29.0020   48.1630    3.2520 N.am   60  SER60      -0.1952
     53  CA        27.6570   47.7660    3.6590 C.3    60  SER60       0.1924
     54  C         26.5880   48.8360    3.4690 C.2    60  SER60       0.2314
     55  O         25.4050   48.4780    3.3750 O.2    60  SER60      -0.2863
     56  CB        27.6530   47.3390    5.1380 C.3    60  SER60       0.2116
     57  OG        27.8750   48.4480    6.0000 O.3    60  SER60      -0.2180
     58  N         36.4200   43.3320   14.6600 N.3   192  ARG192     -0.1231
     59  CA        36.2870   44.2680   13.5490 C.3   192  ARG192      0.1694
     60  C         35.4190   43.7140   12.4190 C.2   192  ARG192      0.2592
     61  O         34.8230   44.4870   11.6590 O.2   192  ARG192     -0.2718
     62  CB        37.6720   44.6310   13.0200 C.3   192  ARG192      0.0321
     63  CG        38.1630   43.7000   11.9160 C.3   192  ARG192      0.0489
     64  CD        39.0220   44.4490   10.9230 C.3   192  ARG192      0.2205
     65  NE        39.7450   43.5690   10.0190 N.pl3 192  ARG192     -0.0865
     66  CZ        40.7680   43.9680    9.2790 C.cat 192  ARG192      0.5346
     67  NH1       41.3740   43.1180    8.4670 N.pl3 192  ARG192      0.1354
     68  NH2       41.1830   45.2220    9.3550 N.pl3 192  ARG192      0.1354
     69  N         35.3290   42.3880   12.2860 N.am  193  ASP193     -0.1974
     70  CA        34.5560   41.8240   11.1790 C.3   193  ASP193      0.1709
     71  C         33.0540   42.0720   11.3310 C.2   193  ASP193      0.2293
     72  O         32.3500   42.2020   10.3240 O.2   193  ASP193     -0.2864
     73  CB        34.8220   40.3240   11.0540 C.3   193  ASP193      0.1436
     74  CG        36.2430   40.0090   10.6040 C.2   193  ASP193      0.3671
     75  OD1       36.8800   40.8350    9.8990 O.co2 193  ASP193     -0.2456
     76  OD2       36.7140   38.9050   10.9560 O.co2 193  ASP193     -0.2456
     77  N         30.0980   46.4260   13.5910 N.3   196  PHE196     -0.1227
     78  CA        29.3040   47.4930   12.9840 C.3   196  PHE196      0.1736
     79  C         27.9900   47.0180   12.3770 C.2   196  PHE196      0.2595
     80  O         27.2170   47.8490   11.8900 O.2   196  PHE196     -0.2718
     81  CB        30.1080   48.1570   11.8640 C.3   196  PHE196      0.0547
     82  CG        30.4610   47.2040   10.7530 C.ar  196  PHE196     -0.0202
     83  CD1       31.5950   46.4080   10.8450 C.ar  196  PHE196     -0.0042
     84  CD2       29.6340   47.0630    9.6410 C.ar  196  PHE196     -0.0042
     85  CE1       31.9090   45.5140    9.8290 C.ar  196  PHE196     -0.0003
     86  CE2       29.9470   46.1880    8.6410 C.ar  196  PHE196     -0.0003
     87  CZ        31.0790   45.4030    8.7300 C.ar  196  PHE196     -0.0000
     88  N         27.7300   45.7110   12.3580 N.am  197  ILE197     -0.1980
     89  CA        26.6840   45.1820   11.4840 C.3   197  ILE197      0.1595
     90  C         25.2900   45.4790   12.0260 C.2   197  ILE197      0.2287
     91  O         24.3870   45.8300   11.2620 O.2   197  ILE197     -0.2864
     92  CB        26.8990   43.6680   11.2600 C.3   197  ILE197      0.0276
     93  CG1       28.1350   43.4260   10.3900 C.3   197  ILE197      0.0022
     94  CG2       25.6740   43.0340   10.6020 C.3   197  ILE197      0.0022
     95  CD1       28.4930   41.9550   10.2440 C.3   197  ILE197      0.0001
     96  N         30.3100   35.2080   12.4270 N.3   253  GLN253     -0.1245
     97  CA        29.9330   34.8620   11.0650 C.3   253  GLN253      0.1566
     98  C         31.1490   34.9300   10.1570 C.2   253  GLN253      0.2260
     99  O         32.1110   35.6530   10.4290 O.2   253  GLN253     -0.2867
    100  CB        28.8260   35.7840   10.5200 C.3   253  GLN253      0.0367
    101  CG        29.3270   37.0580    9.8770 C.3   253  GLN253      0.0905
    102  CD        28.2790   37.7710    9.0190 C.2   253  GLN253      0.2608
    103  OE1       27.2590   37.2000    8.6210 O.2   253  GLN253     -0.2717
    104  NE2       28.5320   39.0370    8.7450 N.am  253  GLN253     -0.0878
    105  N         31.3990   36.3110    6.7950 N.3   255  GLY255     -0.1210
    106  CA        30.5310   37.1310    5.9600 C.3   255  GLY255      0.1956
    107  C         30.6500   36.8340    4.4770 C.2   255  GLY255      0.2611
    108  O         29.6500   36.8350    3.7580 O.2   255  GLY255     -0.2717
    109  N         31.8720   36.5880    3.9950 N.am  256  ARG256     -0.1979
    110  CA        32.0460   36.2620    2.5830 C.3   256  ARG256      0.1597
    111  C         31.3380   34.9580    2.2190 C.2   256  ARG256      0.2287
    112  O         30.6650   34.8870    1.1850 O.2   256  ARG256     -0.2864
    113  CB        33.5330   36.1890    2.2260 C.3   256  ARG256      0.0334
    114  CG        33.7830   36.0000    0.7260 C.3   256  ARG256      0.0492
    115  CD        35.0970   36.6180    0.2490 C.3   256  ARG256      0.2205
    116  NE        35.1590   38.0690    0.4560 N.pl3 256  ARG256     -0.0865
    117  CZ        34.8110   38.9990   -0.4430 C.cat 256  ARG256      0.5346
    118  NH1       34.3530   38.6560   -1.6410 N.pl3 256  ARG256      0.1354
    119  NH2       34.9190   40.2910   -0.1330 N.pl3 256  ARG256      0.1354
    120  N         28.7620   33.6360    3.7290 N.3   258  VAL258     -0.1231
    121  CA        27.3300   33.9030    3.7590 C.3   258  VAL258      0.1692
    122  C         26.8820   34.5270    2.4440 C.2   258  VAL258      0.2592
    123  O         25.8830   34.1030    1.8530 O.2   258  VAL258     -0.2718
    124  CB        26.9630   34.7790    4.9690 C.3   258  VAL258      0.0266
    125  CG1       25.5220   35.2470    4.8490 C.3   258  VAL258      0.0020
    126  CG2       27.1490   33.9840    6.2580 C.3   258  VAL258      0.0020
    127  N         27.6370   35.5110    1.9400 N.am  259  PHE259     -0.1976
    128  CA        27.2670   36.1320    0.6660 C.3   259  PHE259      0.1639
    129  C         27.2110   35.1010   -0.4560 C.2   259  PHE259      0.2290
    130  O         26.2610   35.0850   -1.2490 O.2   259  PHE259     -0.2864
    131  CB        28.2350   37.2660    0.2890 C.3   259  PHE259      0.0560
    132  CG        28.1570   37.6680   -1.1820 C.ar  259  PHE259     -0.0200
    133  CD1       27.2630   38.6440   -1.6070 C.ar  259  PHE259     -0.0042
    134  CD2       28.9600   37.0550   -2.1380 C.ar  259  PHE259     -0.0042
    135  CE1       27.1750   39.0100   -2.9680 C.ar  259  PHE259     -0.0003
    136  CE2       28.8790   37.4120   -3.4890 C.ar  259  PHE259     -0.0003
    137  CZ        27.9830   38.3980   -3.9040 C.ar  259  PHE259     -0.0000
    138  N         23.9370   32.7740    0.1790 N.3   262  VAL262     -0.1231
    139  CA        22.5770   33.2740    0.3600 C.3   262  VAL262      0.1692
    140  C         22.1260   34.1330   -0.8190 C.2   262  VAL262      0.2592
    141  O         20.9510   34.0870   -1.2040 O.2   262  VAL262     -0.2718
    142  CB        22.4650   34.0200    1.7040 C.3   262  VAL262      0.0266
    143  CG1       21.0530   34.5990    1.8840 C.3   262  VAL262      0.0020
    144  CG2       22.7950   33.0680    2.8410 C.3   262  VAL262      0.0020
    145  N         23.0240   34.9330   -1.4070 N.am  263  CYS263     -0.1970
    146  CA        22.6240   35.7880   -2.5290 C.3   263  CYS263      0.1712
    147  C         21.9760   35.0270   -3.6770 C.2   263  CYS263      0.2296
    148  O         20.8720   35.4210   -4.0950 O.2   263  CYS263     -0.2864
    149  CB        23.8230   36.5890   -3.0430 C.3   263  CYS263      0.0983
    150  SG        24.0320   38.1420   -2.2290 S.3   263  CYS263     -0.0798
    151  N         15.7430   42.1290    3.1490 N.3   290  HIS290     -0.1241
    152  CA        16.5450   42.1340    4.3630 C.3   290  HIS290      0.1621
    153  C         17.4850   43.3270    4.3740 C.2   290  HIS290      0.2264
    154  O         18.0470   43.7090    3.3420 O.2   290  HIS290     -0.2867
    155  CB        17.3610   40.8390    4.4800 C.3   290  HIS290      0.0745
    156  CG        17.7110   40.4980    5.8890 C.ar  290  HIS290      0.0817
    157  ND1       16.7700   40.0680    6.8020 N.ar  290  HIS290     -0.2268
    158  CD2       18.8840   40.5710    6.5580 C.ar  290  HIS290      0.1154
    159  CE1       17.3560   39.8680    7.9680 C.ar  290  HIS290      0.1986
    160  NE2       18.6380   40.1690    7.8480 N.ar  290  HIS290     -0.2212
    161  N         20.5180   44.2930    5.7720 N.3   292  ALA292     -0.1231
    162  CA        21.8270   43.9600    6.2980 C.3   292  ALA292      0.1694
    163  C         22.9570   44.6220    5.5300 C.2   292  ALA292      0.2592
    164  O         23.9090   45.1110    6.1390 O.2   292  ALA292     -0.2718
    165  CB        22.0260   42.4370    6.2710 C.3   292  ALA292      0.0304
    166  N         22.8590   44.6630    4.2080 N.am  293  ASN293     -0.1974
    167  CA        23.9620   45.1190    3.3770 C.3   293  ASN293      0.1688
    168  C         23.4030   45.6840    2.0740 C.2   293  ASN293      0.2292
    169  O         22.8020   44.9510    1.2860 O.2   293  ASN293     -0.2864
    170  CB        24.9290   43.9600    3.1200 C.3   293  ASN293      0.1181
    171  CG        26.1690   44.3950    2.3740 C.2   293  ASN293      0.2629
    172  OD1       26.0960   44.8200    1.2220 O.2   293  ASN293     -0.2716
    173  ND2       27.3150   44.3010    3.0310 N.am  293  ASN293     -0.0877
    174  N         24.6850   44.1580   -1.3820 N.3   296  MET296     -0.1245
    175  CA        24.0980   42.8650   -1.6990 C.3   296  MET296      0.1570
    176  C         22.6550   42.9980   -2.1510 C.2   296  MET296      0.2261
    177  O         22.2430   42.3410   -3.1140 O.2   296  MET296     -0.2867
    178  CB        24.2290   41.9580   -0.4890 C.3   296  MET296      0.0387
    179  CG        25.6630   42.0160   -0.0410 C.3   296  MET296      0.0595
    180  SD        26.3180   40.7100    0.9820 S.3   296  MET296     -0.1393
    181  CE        28.0570   41.1580    0.8710 C.3   296  MET296      0.0692
    182  N         21.2420   41.7100   -5.6830 N.3   300  ILE300     -0.1245
    183  CA        20.0890   40.8170   -5.7600 C.3   300  ILE300      0.1561
    184  C         19.0210   41.4160   -6.6740 C.2   300  ILE300      0.2260
    185  O         18.4350   40.7160   -7.5110 O.2   300  ILE300     -0.2867
    186  CB        19.5350   40.5180   -4.3490 C.3   300  ILE300      0.0252
    187  CG1       20.4410   39.5360   -3.5870 C.3   300  ILE300      0.0019
    188  CG2       18.1260   39.9660   -4.4400 C.3   300  ILE300      0.0019
    189  CD1       20.0460   39.3180   -2.0990 C.3   300  ILE300      0.0001
    190  N         16.3020   37.2630    4.8730 N.3   351  PHE351     -0.1227
    191  CA        17.2760   36.2000    4.6630 C.3   351  PHE351      0.1736
    192  C         18.4520   36.3870    5.6110 C.2   351  PHE351      0.2596
    193  O         18.8440   37.5120    5.9220 O.2   351  PHE351     -0.2718
    194  CB        17.7700   36.1420    3.1990 C.3   351  PHE351      0.0547
    195  CG        18.0110   37.5090    2.5480 C.ar  351  PHE351     -0.0202
    196  CD1       19.2570   38.1050    2.5940 C.ar  351  PHE351     -0.0042
    197  CD2       17.0020   38.1540    1.8500 C.ar  351  PHE351     -0.0042
    198  CE1       19.4930   39.3410    1.9790 C.ar  351  PHE351     -0.0003
    199  CE2       17.2290   39.3990    1.2380 C.ar  351  PHE351     -0.0003
    200  CZ        18.4720   39.9820    1.3000 C.ar  351  PHE351     -0.0000
    201  N         19.0240   35.2660    6.0380 N.am  352  GLY352     -0.1957
    202  CA        20.2440   35.2850    6.8240 C.3   352  GLY352      0.1869
    203  C         20.4520   34.0190    7.6380 C.2   352  GLY352      0.2309
    204  O         20.3250   32.9100    7.1110 O.2   352  GLY352     -0.2863
@<TRIPOS>BOND
     1   185   184    2
     2   184   183    1
     3   183   182    1
     4   183   186    1
     5   188   186    1
     6   186   187    1
     7   148   147    2
     8   137   136   ar
     9   137   135   ar
    10   147   146    1
    11   187   189    1
    12   136   134   ar
    13   177   176    2
    14   149   146    1
    15   149   150    1
    16   135   133   ar
    17   146   145    1
    18   176   175    1
    19   134   132   ar
    20   175   174    1
    21   175   178    1
    22   118   117    1
    23   133   132   ar
    24   145   140   am
    25   130   129    2
    26   141   140    2
    27   132   131    1
    28   140   139    1
    29   178   179    1
    30   129   128    1
    31   117   119    1
    32   117   116    2
    33   179   180    1
    34   138   139    1
    35   115   116    1
    36   115   114    1
    37   131   128    1
    38   139   142    1
    39   128   127    1
    40   114   113    1
    41   181   180    1
    42   112   111    2
    43   172   171    2
    44   199   200   ar
    45   199   197   ar
    46   169   168    2
    47   200   198   ar
    48   142   143    1
    49   142   144    1
    50    50    49    2
    51   197   195   ar
    52   123   122    2
    53   127   122   am
    54   198   196   ar
    55   168   167    1
    56   111   110    1
    57   113   110    1
    58    48    47    1
    59    48    49    1
    60    48    51    1
    61   171   173   am
    62   171   170    1
    63    49    52   am
    64   122   121    1
    65   195   196   ar
    66   195   194    1
    67   110   109    1
    68   170   167    1
    69   151   152    1
    70   194   191    1
    71    52    53    1
    72   154   153    2
    73    55    54    2
    74   167   166    1
    75    54    53    1
    76    53    56    1
    77   120   121    1
    78   108   107    2
    79   121   124    1
    80   109   107   am
    81    36    34   ar
    82    36    38   ar
    83   166   163   am
    84   152   153    1
    85   152   155    1
    86    34    33   ar
    87   107   106    1
    88   155   156    1
    89    31    30    2
    90   191   190    1
    91   191   192    1
    92   125   124    1
    93   124   126    1
    94    38    37   ar
    95    56    57    1
    96    29    30    1
    97    29    28    1
    98    29    32    1
    99    30    39   am
   100   163   164    2
   101   163   162    1
   102    33    32    1
   103    33    35   ar
   104    42    41    2
   105   192   193    2
   106   192   201   am
   107   161   162    1
   108   156   158   ar
   109   156   157   ar
   110   106   105    1
   111   201   202    1
   112    41    40    1
   113    37    35   ar
   114   165   162    1
   115   158   160   ar
   116    39    40    1
   117   157   159   ar
   118   202   203    1
   119    40    43    1
   120   204   203    2
   121    27    26    1
   122   160   159   ar
   123    11     9    1
   124    10     9    1
   125    67    66    1
   126    43    45    1
   127    43    44    1
   128   103   102    2
   129    86    87   ar
   130    86    84   ar
   131    87    85   ar
   132    26    23    1
   133   104   102   am
   134    25    24    2
   135     9     8    2
   136   102   101    1
   137    66    68    1
   138    66    65    2
   139    46    44    1
   140    24    23    1
   141    84    82   ar
   142    85    83   ar
   143   101   100    1
   144    23    22    1
   145    75    74   ar
   146     8     7    1
   147    65    64    1
   148    98    99    2
   149    98    97    1
   150    95    93    1
   151    72    71    2
   152    93    92    1
   153    22    18   am
   154   100    97    1
   155     7     6    1
   156    94    92    1
   157    74    76   ar
   158    74    73    1
   159    82    83   ar
   160    82    81    1
   161    64    63    1
   162    73    70    1
   163    97    96    1
   164    70    71    1
   165    70    69    1
   166    92    89    1
   167    91    90    2
   168    89    90    1
   169    89    88    1
   170    18    19    2
   171    18    17    1
   172    61    60    2
   173    81    78    1
   174    80    79    2
   175    21    20    1
   176    63    62    1
   177    15    14    2
   178    17    20    1
   179    17    16    1
   180     6     5    1
   181    69    60   am
   182    88    79   am
   183    79    78    1
   184    60    59    1
   185     5     2    1
   186    14    16   am
   187    14    13    1
   188    78    77    1
   189    62    59    1
   190    59    58    1
   191    12    13    1
   192    12     3   am
   193     2     3    1
   194     2     1    1
   195     3     4    2
