@<TRIPOS>MOLECULE
tmp/5yofB00.pdb
 128 124 0 0 0
SMALL
GASTEIGER

@<TRIPOS>ATOM
      1  N         -4.0240    7.3490  -15.8770 N.3    21  VAL21      -0.1245
      2  CA        -4.9320    8.0880  -15.0020 C.3    21  VAL21       0.1561
      3  C         -4.7860    9.5960  -15.1660 C.2    21  VAL21       0.2260
      4  O         -5.6780   10.3470  -14.7440 O.2    21  VAL21      -0.2867
      5  CB        -4.7320    7.6990  -13.5260 C.3    21  VAL21       0.0252
      6  CG1       -5.1120    6.2390  -13.3020 C.3    21  VAL21       0.0019
      7  CG2       -3.3070    7.9350  -13.0940 C.3    21  VAL21       0.0019
      8  N         -6.3370   15.6990   -8.1450 N.3    36  HIS36      -0.1241
      9  CA        -7.2810   14.5960   -8.2920 C.3    36  HIS36       0.1621
     10  C         -6.7290   13.4450   -9.1350 C.2    36  HIS36       0.2264
     11  O         -7.2920   12.3470   -9.0920 O.2    36  HIS36      -0.2867
     12  CB        -8.6080   15.0990   -8.8720 C.3    36  HIS36       0.0745
     13  CG        -8.5940   15.3210  -10.3530 C.ar   36  HIS36       0.0817
     14  ND1       -8.3630   16.5540  -10.9250 N.ar   36  HIS36      -0.2268
     15  CD2       -8.8110   14.4630  -11.3740 C.ar   36  HIS36       0.1154
     16  CE1       -8.4440   16.4430  -12.2450 C.ar   36  HIS36       0.1986
     17  NE2       -8.7080   15.1830  -12.5400 N.ar   36  HIS36      -0.2212
     18  N         -6.0810   20.6780   -2.3220 N.3    57  VAL57      -0.1245
     19  CA        -7.2790   20.1140   -2.9450 C.3    57  VAL57       0.1561
     20  C         -8.1260   21.1950   -3.6080 C.2    57  VAL57       0.2260
     21  O         -8.7150   20.9650   -4.6760 O.2    57  VAL57      -0.2867
     22  CB        -8.0730   19.3460   -1.8750 C.3    57  VAL57       0.0252
     23  CG1       -9.5580   19.2710   -2.2110 C.3    57  VAL57       0.0019
     24  CG2       -7.4590   17.9760   -1.6680 C.3    57  VAL57       0.0019
     25  N         -6.6920   22.1460   -6.6380 N.3    60  ASP60      -0.1239
     26  CA        -6.5930   20.8620   -7.3470 C.3    60  ASP60       0.1674
     27  C         -5.2290   20.7080   -8.0250 C.2    60  ASP60       0.2266
     28  O         -5.1270   20.2770   -9.1810 O.2    60  ASP60      -0.2867
     29  CB        -7.7530   20.6770   -8.3560 C.3    60  ASP60       0.1410
     30  CG        -7.8620   19.2560   -8.8950 C.2    60  ASP60       0.3668
     31  OD1       -8.3330   19.1100  -10.0490 O.co2  60  ASP60      -0.2456
     32  OD2       -7.4970   18.2900   -8.1830 O.co2  60  ASP60      -0.2456
     33  N        -12.5700   19.1490  -25.0360 N.3   114  ASP114     -0.1225
     34  CA       -13.1580   17.9900  -24.3750 C.3   114  ASP114      0.1805
     35  C        -12.3030   16.7640  -24.6640 C.2   114  ASP114      0.2598
     36  O        -12.3380   16.2230  -25.7770 O.2   114  ASP114     -0.2718
     37  CB       -14.5950   17.7810  -24.8450 C.3   114  ASP114      0.1424
     38  CG       -15.4050   16.9380  -23.8860 C.2   114  ASP114      0.3668
     39  OD1      -14.8140   16.0700  -23.2070 O.co2 114  ASP114     -0.2456
     40  OD2      -16.6390   17.1300  -23.8250 O.co2 114  ASP114     -0.2456
     41  N        -11.5530   16.3250  -23.6610 N.am  115  TYR115     -0.1963
     42  CA       -10.6840   15.1640  -23.7540 C.3   115  TYR115      0.1756
     43  C        -10.9690   14.2220  -22.5970 C.2   115  TYR115      0.2461
     44  O        -11.4720   14.6470  -21.5520 O.2   115  TYR115     -0.2730
     45  CB        -9.2100   15.5980  -23.7760 C.3   115  TYR115      0.0574
     46  CG        -8.8230   16.1090  -25.1420 C.ar  115  TYR115     -0.0198
     47  CD1       -8.4170   15.2280  -26.1340 C.ar  115  TYR115     -0.0009
     48  CD2       -8.9140   17.4590  -25.4590 C.ar  115  TYR115     -0.0009
     49  CE1       -8.0870   15.6750  -27.3980 C.ar  115  TYR115      0.0417
     50  CE2       -8.5850   17.9170  -26.7290 C.ar  115  TYR115      0.0417
     51  CZ        -8.1720   17.0160  -27.6930 C.ar  115  TYR115      0.1957
     52  OH        -7.8380   17.4330  -28.9650 O.3   115  TYR115     -0.2866
     53  N        -10.6920   12.9280  -22.7620 N.am  116  PRO116     -0.2716
     54  CA       -11.1170   11.9370  -21.7670 C.3   116  PRO116      0.1536
     55  C        -10.4310   12.1410  -20.4250 C.2   116  PRO116      0.2598
     56  O         -9.5070   12.9380  -20.2730 O.2   116  PRO116     -0.2715
     57  CB       -10.7090   10.6000  -22.3950 C.3   116  PRO116      0.0310
     58  CG       -10.5640   10.8850  -23.8430 C.3   116  PRO116      0.0237
     59  CD       -10.0680   12.2860  -23.9310 C.3   116  PRO116      0.0939
     60  N        -10.8990   11.3660  -19.4420 N.am  117  ALA117     -0.1978
     61  CA       -10.4430   11.5330  -18.0630 C.3   117  ALA117      0.1597
     62  C         -8.9290   11.4050  -17.9440 C.2   117  ALA117      0.2287
     63  O         -8.2990   12.1210  -17.1570 O.2   117  ALA117     -0.2864
     64  CB       -11.1390   10.5110  -17.1680 C.3   117  ALA117      0.0319
     65  N         -6.3400   14.6100  -17.8350 N.3   120  SER120     -0.1217
     66  CA        -6.2090   15.6430  -16.8160 C.3   120  SER120      0.1889
     67  C         -4.7510   15.8000  -16.4140 C.2   120  SER120      0.2288
     68  O         -4.0380   14.8160  -16.1950 O.2   120  SER120     -0.2866
     69  CB        -7.0480   15.3140  -15.5800 C.3   120  SER120      0.2089
     70  OG        -8.4230   15.5610  -15.8110 O.3   120  SER120     -0.2183
     71  N         -4.7460   21.3890  -17.5530 N.3   135  TYR135     -0.1227
     72  CA        -6.0910   21.0800  -18.0010 C.3   135  TYR135      0.1736
     73  C         -6.7150   19.9850  -17.1480 C.2   135  TYR135      0.2596
     74  O         -6.0600   18.9930  -16.8260 O.2   135  TYR135     -0.2718
     75  CB        -6.0100   20.6300  -19.4660 C.3   135  TYR135      0.0548
     76  CG        -7.2770   20.0500  -20.0600 C.ar  135  TYR135     -0.0200
     77  CD1       -7.5490   18.6860  -19.9780 C.ar  135  TYR135     -0.0009
     78  CD2       -8.1930   20.8610  -20.7010 C.ar  135  TYR135     -0.0009
     79  CE1       -8.7040   18.1460  -20.5520 C.ar  135  TYR135      0.0417
     80  CE2       -9.3490   20.3360  -21.2640 C.ar  135  TYR135      0.0417
     81  CZ        -9.6040   18.9840  -21.1760 C.ar  135  TYR135      0.1957
     82  OH       -10.7530   18.4740  -21.7400 O.3   135  TYR135     -0.2866
     83  N         -8.0010   20.1470  -16.8150 N.am  136  GLY136     -0.1942
     84  CA        -8.7430   19.0310  -16.2580 C.3   136  GLY136      0.2014
     85  C         -9.5630   19.2550  -15.0030 C.2   136  GLY136      0.2639
     86  O        -10.0780   18.2840  -14.4370 O.2   136  GLY136     -0.2714
     87  N         -9.6920   20.5010  -14.5490 N.am  137  ASN137     -0.1958
     88  CA       -10.6570   20.8550  -13.5140 C.3   137  ASN137      0.1819
     89  C        -11.5800   21.9210  -14.0780 C.2   137  ASN137      0.2622
     90  O        -11.1340   23.0280  -14.3880 O.2   137  ASN137     -0.2715
     91  CB        -9.9870   21.3640  -12.2380 C.3   137  ASN137      0.1195
     92  CG       -10.9470   21.3920  -11.0730 C.2   137  ASN137      0.2630
     93  OD1      -11.9590   20.6740  -11.0630 O.2   137  ASN137     -0.2716
     94  ND2      -10.6380   22.2090  -10.0620 N.am  137  ASN137     -0.0877
     95  N        -12.8570   21.5910  -14.2080 N.am  138  GLY138     -0.1940
     96  CA       -13.7700   22.4970  -14.8790 C.3   138  GLY138      0.2014
     97  C        -15.2270   22.1460  -14.6790 C.2   138  GLY138      0.2639
     98  O        -15.6180   21.7070  -13.5980 O.2   138  GLY138     -0.2714
     99  N        -16.0410   22.3270  -15.7270 N.am  139  VAL139     -0.1963
    100  CA       -17.4840   22.1480  -15.6450 C.3   139  VAL139      0.1727
    101  C        -17.9690   21.4350  -16.9000 C.2   139  VAL139      0.2616
    102  O        -17.4070   21.6040  -17.9860 O.2   139  VAL139     -0.2715
    103  CB       -18.2380   23.4930  -15.5170 C.3   139  VAL139      0.0290
    104  CG1      -18.1050   24.0640  -14.1360 C.3   139  VAL139      0.0023
    105  CG2      -17.7490   24.4820  -16.5760 C.3   139  VAL139      0.0023
    106  N        -19.0260   20.6400  -16.7440 N.am  140  VAL140     -0.1977
    107  CA       -19.8310   20.1850  -17.8730 C.3   140  VAL140      0.1596
    108  C        -20.9580   21.1860  -18.0630 C.2   140  VAL140      0.2287
    109  O        -21.6790   21.5070  -17.1120 O.2   140  VAL140     -0.2864
    110  CB       -20.3830   18.7710  -17.6280 C.3   140  VAL140      0.0276
    111  CG1      -21.3490   18.3660  -18.7510 C.3   140  VAL140      0.0022
    112  CG2      -19.2460   17.7630  -17.4910 C.3   140  VAL140      0.0022
    113  N        -23.6680   19.2580  -23.1410 N.3   144  GLY144     -0.1225
    114  CA       -22.8950   18.0620  -22.9010 C.3   144  GLY144      0.1811
    115  C        -21.3980   18.2640  -22.8830 C.2   144  GLY144      0.2280
    116  O        -20.6740   17.3680  -22.4280 O.2   144  GLY144     -0.2866
    117  N        -17.4670   19.9010  -22.3120 N.3   146  TYR146     -0.1241
    118  CA       -16.6250   20.1170  -21.1510 C.3   146  TYR146      0.1605
    119  C        -15.8640   21.4230  -21.3260 C.2   146  TYR146      0.2264
    120  O        -15.3950   21.7340  -22.4250 O.2   146  TYR146     -0.2867
    121  CB       -15.6700   18.9430  -20.9820 C.3   146  TYR146      0.0534
    122  CG       -14.7610   19.0520  -19.7930 C.ar  146  TYR146     -0.0201
    123  CD1      -15.2450   18.8360  -18.5130 C.ar  146  TYR146     -0.0009
    124  CD2      -13.4130   19.3490  -19.9500 C.ar  146  TYR146     -0.0009
    125  CE1      -14.4160   18.9270  -17.4230 C.ar  146  TYR146      0.0417
    126  CE2      -12.5760   19.4450  -18.8610 C.ar  146  TYR146      0.0417
    127  CZ       -13.0840   19.2300  -17.5990 C.ar  146  TYR146      0.1957
    128  OH       -12.2540   19.3170  -16.5020 O.3   146  TYR146     -0.2866
@<TRIPOS>BOND
     1    52    51    1
     2    51    49   ar
     3    51    50   ar
     4    49    47   ar
     5    50    48   ar
     6    47    46   ar
     7    36    35    2
     8    48    46   ar
     9    46    45    1
    10    33    34    1
    11    37    34    1
    12    37    38    1
    13    35    34    1
    14    35    41   am
    15    59    58    1
    16    59    53    1
    17    38    40   ar
    18    38    39   ar
    19    58    57    1
    20    45    42    1
    21    42    41    1
    22    42    43    1
    23   113   114    1
    24   114   115    1
    25   115   116    2
    26    53    43   am
    27    53    54    1
    28    43    44    2
    29   120   119    2
    30    57    54    1
    31   117   118    1
    32    54    55    1
    33    82    81    1
    34   119   118    1
    35    80    81   ar
    36    80    78   ar
    37    81    79   ar
    38   118   121    1
    39   121   122    1
    40    78    76   ar
    41    79    77   ar
    42    55    56    2
    43    55    60   am
    44    76    77   ar
    45    76    75    1
    46   124   122   ar
    47   124   126   ar
    48   122   123   ar
    49    75    72    1
    50    60    61    1
    51   126   127   ar
    52   111   110    1
    53   123   125   ar
    54   108   107    1
    55   108   109    2
    56    61    62    1
    57    61    64    1
    58    72    71    1
    59    72    73    1
    60   102   101    2
    61    62    63    2
    62   107   110    1
    63   107   106    1
    64    65    66    1
    65   110   112    1
    66   127   125   ar
    67   127   128    1
    68    73    74    2
    69    73    83   am
    70   101   106   am
    71   101   100    1
    72    66    67    1
    73    66    69    1
    74    83    84    1
    75   105   103    1
    76    67    68    2
    77    84    85    1
    78     1     2    1
    79    70    69    1
    80    99   100    1
    81    99    97   am
    82   100   103    1
    83   103   104    1
    84     3     2    1
    85     3     4    2
    86    85    87   am
    87    85    86    2
    88     2     5    1
    89    96    97    1
    90    96    95    1
    91    97    98    2
    92    87    88    1
    93    90    89    2
    94    95    89   am
    95    89    88    1
    96     5     6    1
    97     5     7    1
    98    88    91    1
    99    17    16   ar
   100    17    15   ar
   101    16    14   ar
   102    91    92    1
   103    15    13   ar
   104    92    93    2
   105    92    94   am
   106    14    13   ar
   107    13    12    1
   108    31    30   ar
   109    28    27    2
   110    10    11    2
   111    10     9    1
   112    30    29    1
   113    30    32   ar
   114    12     9    1
   115    29    26    1
   116     9     8    1
   117    27    26    1
   118    26    25    1
   119    21    20    2
   120    20    19    1
   121    19    18    1
   122    19    22    1
   123    23    22    1
   124    22    24    1
