@<TRIPOS>MOLECULE
tmp/5yoiA00.pdb
 133 128 0 0 0
SMALL
GASTEIGER

@<TRIPOS>ATOM
      1  N         13.6260    3.5670    3.2340 N.3    91  THR91      -0.1218
      2  CA        12.9630    2.2750    2.9160 C.3    91  THR91       0.1862
      3  C         12.0820    2.2540    1.6520 C.2    91  THR91       0.2287
      4  O         11.8730    1.1930    1.0490 O.2    91  THR91      -0.2866
      5  CB        12.1190    1.7240    4.0970 C.3    91  THR91       0.1770
      6  OG1       11.0300    2.5960    4.3880 O.3    91  THR91      -0.2211
      7  CG2       12.9500    1.5740    5.3830 C.3    91  THR91       0.0375
      8  N         13.3360    0.5940   -1.4740 N.3    94  TYR94      -0.1241
      9  CA        14.5080   -0.1130   -1.1640 C.3    94  TYR94       0.1605
     10  C         14.2050   -1.6100   -1.4000 C.2    94  TYR94       0.2264
     11  O         13.4280   -2.1930   -0.6800 O.2    94  TYR94      -0.2867
     12  CB        14.9550    0.1430    0.3080 C.3    94  TYR94       0.0534
     13  CG        16.2310   -0.5580    0.7240 C.ar   94  TYR94      -0.0201
     14  CD1       17.4730   -0.2730    0.1250 C.ar   94  TYR94      -0.0009
     15  CD2       16.2420   -1.4860    1.7590 C.ar   94  TYR94      -0.0009
     16  CE1       18.6710   -0.8570    0.5320 C.ar   94  TYR94       0.0417
     17  CE2       17.4060   -2.1010    2.1290 C.ar   94  TYR94       0.0417
     18  CZ        18.6200   -1.8230    1.5280 C.ar   94  TYR94       0.1957
     19  OH        19.7810   -2.3620    2.0170 O.3    94  TYR94      -0.2866
     20  N         10.6450   -2.4920   -1.3030 N.3    97  PHE97      -0.1241
     21  CA         9.7670   -2.2500   -0.1250 C.3    97  PHE97       0.1605
     22  C          8.7700   -1.0920   -0.3540 C.2    97  PHE97       0.2264
     23  O          9.1820   -0.0110   -0.8610 O.2    97  PHE97      -0.2867
     24  CB        10.6440   -1.8690    1.1060 C.3    97  PHE97       0.0534
     25  CG         9.8860   -1.7750    2.3580 C.ar   97  PHE97      -0.0203
     26  CD1        9.5310   -2.9520    3.0340 C.ar   97  PHE97      -0.0042
     27  CD2        9.4870   -0.5470    2.8830 C.ar   97  PHE97      -0.0042
     28  CE1        8.8230   -2.9050    4.1660 C.ar   97  PHE97      -0.0003
     29  CE2        8.7580   -0.5020    4.0510 C.ar   97  PHE97      -0.0003
     30  CZ         8.4340   -1.7170    4.6980 C.ar   97  PHE97      -0.0000
     31  N          9.1500    0.7270    8.7870 N.3   102  THR102     -0.1218
     32  CA         8.6250   -0.6520    9.1250 C.3   102  THR102      0.1862
     33  C          7.9010   -0.5400   10.4490 C.2   102  THR102      0.2287
     34  O          8.2880    0.2740   11.3570 O.2   102  THR102     -0.2866
     35  CB         9.6510   -1.7640    9.1210 C.3   102  THR102      0.1770
     36  OG1       10.7250   -1.3390    9.9680 O.3   102  THR102     -0.2211
     37  CG2       10.1840   -2.0190    7.7200 C.3   102  THR102      0.0375
     38  N         10.5440   -5.7580   10.0730 N.3   111  HIS111     -0.1241
     39  CA        10.1660   -5.5980    8.6550 C.3   111  HIS111      0.1621
     40  C          8.6980   -5.6350    8.3620 C.2   111  HIS111      0.2264
     41  O          8.3190   -5.8650    7.1900 O.2   111  HIS111     -0.2867
     42  CB        10.9480   -6.5060    7.7350 C.3   111  HIS111      0.0745
     43  CG        12.4240   -6.2880    7.8430 C.ar  111  HIS111      0.0817
     44  ND1       13.3490   -7.1550    7.3000 N.ar  111  HIS111     -0.2268
     45  CD2       13.1360   -5.3090    8.4600 C.ar  111  HIS111      0.1154
     46  CE1       14.5670   -6.7120    7.5680 C.ar  111  HIS111      0.1986
     47  NE2       14.4640   -5.6000    8.2720 N.ar  111  HIS111     -0.2212
     48  N         10.4050    1.7390   12.7800 N.3   128  ASP128     -0.1239
     49  CA        11.8060    1.8240   12.3420 C.3   128  ASP128      0.1674
     50  C         11.7900    2.7540   11.1520 C.2   128  ASP128      0.2266
     51  O         11.1930    2.4500   10.1110 O.2   128  ASP128     -0.2867
     52  CB        12.3640    0.4420   12.0390 C.3   128  ASP128      0.1410
     53  CG        13.8210    0.4450   11.7140 C.2   128  ASP128      0.3668
     54  OD1       14.4030    1.5270   11.4600 O.co2 128  ASP128     -0.2456
     55  OD2       14.4760   -0.5840   11.6860 O.co2 128  ASP128     -0.2456
     56  N         14.1250    5.3360    8.5670 N.3   130  THR130     -0.1218
     57  CA        15.4210    5.6910    8.0470 C.3   130  THR130      0.1862
     58  C         15.2700    6.9290    7.1350 C.2   130  THR130      0.2287
     59  O         14.4120    6.9520    6.2990 O.2   130  THR130     -0.2866
     60  CB        16.0990    4.5000    7.3170 C.3   130  THR130      0.1770
     61  OG1       16.0710    3.3120    8.2020 O.3   130  THR130     -0.2211
     62  CG2       17.5250    4.8090    6.9210 C.3   130  THR130      0.0375
     63  N         19.3940    5.9590   10.8580 N.3   139  ASP139     -0.1239
     64  CA        18.5260    4.7640   10.9830 C.3   139  ASP139      0.1674
     65  C         18.2700    4.5560   12.4630 C.2   139  ASP139      0.2266
     66  O         19.1950    4.4740   13.2870 O.2   139  ASP139     -0.2867
     67  CB        19.2710    3.5970   10.3330 C.3   139  ASP139      0.1410
     68  CG        18.5260    2.2910   10.2840 C.2   139  ASP139      0.3668
     69  OD1       17.2930    2.2580   10.5700 O.co2 139  ASP139     -0.2456
     70  OD2       19.1950    1.3260    9.8210 O.co2 139  ASP139     -0.2456
     71  N         24.3790   -2.9450   11.2420 N.3   202  HIS202     -0.1241
     72  CA        25.0730   -2.7730    9.9850 C.3   202  HIS202      0.1621
     73  C         25.7730   -1.4160    9.9480 C.2   202  HIS202      0.2264
     74  O         25.3340   -0.4350   10.5430 O.2   202  HIS202     -0.2867
     75  CB        24.0680   -2.7930    8.8020 C.3   202  HIS202      0.0745
     76  CG        22.9040   -1.8850    9.0030 C.ar  202  HIS202      0.0817
     77  ND1       22.7950   -0.6230    8.4380 N.ar  202  HIS202     -0.2268
     78  CD2       21.7950   -2.0610    9.7430 C.ar  202  HIS202      0.1154
     79  CE1       21.6610   -0.0790    8.8500 C.ar  202  HIS202      0.1986
     80  NE2       21.0390   -0.9270    9.6450 N.ar  202  HIS202     -0.2212
     81  N         22.9580    2.4580    2.8140 N.3   208  PHE208     -0.1227
     82  CA        22.0410    1.9770    3.8730 C.3   208  PHE208      0.1736
     83  C         22.6680    0.8320    4.6960 C.2   208  PHE208      0.2595
     84  O         22.7740    0.8950    5.9280 O.2   208  PHE208     -0.2718
     85  CB        20.7120    1.6260    3.2070 C.3   208  PHE208      0.0547
     86  CG        19.4990    1.4760    4.0990 C.ar  208  PHE208     -0.0202
     87  CD1       19.5020    1.4480    5.5060 C.ar  208  PHE208     -0.0042
     88  CD2       18.2470    1.4730    3.4710 C.ar  208  PHE208     -0.0042
     89  CE1       18.3070    1.3280    6.2100 C.ar  208  PHE208     -0.0003
     90  CE2       17.0640    1.3810    4.1850 C.ar  208  PHE208     -0.0003
     91  CZ        17.1090    1.2900    5.5780 C.ar  208  PHE208     -0.0000
     92  N         23.0400   -0.2440    3.9800 N.am  209  HIS209     -0.1975
     93  CA        23.6980   -1.4070    4.5900 C.3   209  HIS209      0.1656
     94  C         25.0210   -1.5810    3.8560 C.2   209  HIS209      0.2291
     95  O         25.0300   -2.1750    2.7710 O.2   209  HIS209     -0.2864
     96  CB        22.7980   -2.6690    4.5010 C.3   209  HIS209      0.0771
     97  CG        21.4780   -2.5050    5.1780 C.ar  209  HIS209      0.0820
     98  ND1       20.3840   -2.0030    4.5240 N.ar  209  HIS209     -0.2267
     99  CD2       21.0600   -2.7940    6.4400 C.ar  209  HIS209      0.1154
    100  CE1       19.3480   -1.9580    5.3550 C.ar  209  HIS209      0.1986
    101  NE2       19.7450   -2.4050    6.5260 N.ar  209  HIS209     -0.2212
    102  N         21.0290   -2.6970   16.9210 N.3   235  GLU235     -0.1245
    103  CA        19.5770   -2.8410   16.7100 C.3   235  GLU235      0.1567
    104  C         19.0250   -4.2080   17.0830 C.2   235  GLU235      0.2260
    105  O         18.3420   -4.8700   16.3080 O.2   235  GLU235     -0.2867
    106  CB        19.1800   -2.4340   15.2770 C.3   235  GLU235      0.0388
    107  CG        19.8420   -3.2460   14.1820 C.3   235  GLU235      0.1160
    108  CD        19.3410   -2.8720   12.8110 C.2   235  GLU235      0.3649
    109  OE1       18.2960   -3.4470   12.4050 O.co2 235  GLU235     -0.2457
    110  OE2       20.0560   -2.1030   12.1090 O.co2 235  GLU235     -0.2457
    111  N          8.5750   -9.7190    3.2160 N.3   252  TRP252     -0.1241
    112  CA         9.2570   -8.8870    4.1950 C.3   252  TRP252      0.1605
    113  C          8.9680   -9.2460    5.6520 C.2   252  TRP252      0.2264
    114  O          9.9020   -9.3310    6.4440 O.2   252  TRP252     -0.2867
    115  CB         8.8920   -7.4280    3.9880 C.3   252  TRP252      0.0550
    116  CG         9.5700   -6.8220    2.8180 C.ar  252  TRP252      0.0003
    117  CD1        9.0370   -6.6510    1.5520 C.ar  252  TRP252      0.0946
    118  CD2       10.9140   -6.3120    2.7620 C.ar  252  TRP252      0.0152
    119  NE1        9.9620   -6.0510    0.7300 N.ar  252  TRP252     -0.2442
    120  CE2       11.1170   -5.8250    1.4300 C.ar  252  TRP252      0.0810
    121  CE3       11.9450   -6.1520    3.7140 C.ar  252  TRP252      0.0012
    122  CZ2       12.3040   -5.2320    1.0310 C.ar  252  TRP252      0.0191
    123  CZ3       13.1230   -5.5980    3.3270 C.ar  252  TRP252      0.0001
    124  CH2       13.2930   -5.1090    1.9530 C.ar  252  TRP252      0.0015
    125  N         16.8910    0.5790   18.1640 N.3   266  GLU266     -0.1245
    126  CA        18.0160    0.8930   17.2120 C.3   266  GLU266      0.1567
    127  C         18.4570    2.3010   17.2830 C.2   266  GLU266      0.2260
    128  O         17.6360    3.2350   17.2810 O.2   266  GLU266     -0.2867
    129  CB        17.5640    0.6320   15.7630 C.3   266  GLU266      0.0388
    130  CG        18.5850    1.0890   14.7010 C.3   266  GLU266      0.1160
    131  CD        18.2070    0.6410   13.2940 C.2   266  GLU266      0.3649
    132  OE1       19.1510    0.4730   12.5150 O.co2 266  GLU266     -0.2457
    133  OE2       17.0240    0.5390   12.9470 O.co2 266  GLU266     -0.2457
@<TRIPOS>BOND
     1     8     9    1
     2    10     9    1
     3    10    11    2
     4    20    21    1
     5     9    12    1
     6    23    22    2
     7    22    21    1
     8    21    24    1
     9    14    16   ar
    10    14    13   ar
    11    12    13    1
    12    16    18   ar
    13    13    15   ar
    14   119   120   ar
    15   119   117   ar
    16   122   120   ar
    17   122   124   ar
    18     4     3    2
    19    24    25    1
    20   120   118   ar
    21    18    19    1
    22    18    17   ar
    23   117   116   ar
    24     3     2    1
    25    15    17   ar
    26   124   123   ar
    27    25    27   ar
    28    25    26   ar
    29   118   116   ar
    30   118   121   ar
    31    95    94    2
    32    81    82    1
    33   116   115    1
    34    27    29   ar
    35     2     1    1
    36     2     5    1
    37    26    28   ar
    38    85    82    1
    39    85    86    1
    40   111   112    1
    41   123   121   ar
    42    88    86   ar
    43    88    90   ar
    44    94    93    1
    45    82    83    1
    46    92    93    1
    47    92    83   am
    48   115   112    1
    49    29    30   ar
    50     5     6    1
    51     5     7    1
    52    86    87   ar
    53    28    30   ar
    54    90    91   ar
    55   112   113    1
    56    96    93    1
    57    96    97    1
    58    98    97   ar
    59    98   100   ar
    60    83    84    2
    61    97    99   ar
    62   100   101   ar
    63    87    89   ar
    64    91    89   ar
    65   113   114    2
    66    59    58    2
    67    99   101   ar
    68    62    60    1
    69    58    57    1
    70    41    40    2
    71    44    46   ar
    72    44    43   ar
    73    60    57    1
    74    60    61    1
    75    46    47   ar
    76    37    35    1
    77    42    43    1
    78    42    39    1
    79    43    45   ar
    80    57    56    1
    81    47    45   ar
    82    40    39    1
    83    77    79   ar
    84    77    76   ar
    85    39    38    1
    86    31    32    1
    87    75    76    1
    88    75    72    1
    89    79    80   ar
    90    76    78   ar
    91    35    32    1
    92    35    36    1
    93    32    33    1
    94    80    78   ar
    95    70    68   ar
    96    73    72    1
    97    73    74    2
    98    72    71    1
    99    51    50    2
   100    68    67    1
   101    68    69   ar
   102    67    64    1
   103    33    34    2
   104    63    64    1
   105    64    65    1
   106    50    49    1
   107    54    53   ar
   108    55    53   ar
   109    53    52    1
   110    52    49    1
   111   110   108   ar
   112    49    48    1
   113   109   108   ar
   114    65    66    2
   115   132   131   ar
   116   108   107    1
   117   133   131   ar
   118   131   130    1
   119   107   106    1
   120   130   129    1
   121   106   103    1
   122   129   126    1
   123   105   104    2
   124   103   102    1
   125   103   104    1
   126   126   127    1
   127   126   125    1
   128   128   127    2
