@<TRIPOS>MOLECULE
tmp/5yokA00.pdb
 120 113 0 0 0
SMALL
GASTEIGER

@<TRIPOS>ATOM
      1  N          2.9750   23.8220   17.3320 N.3     8  ARG8       -0.1245
      2  CA         4.1620   24.5210   16.8480 C.3     8  ARG8        0.1563
      3  C          3.7970   25.9190   16.3770 C.2     8  ARG8        0.2260
      4  O          2.8190   26.0860   15.6230 O.2     8  ARG8       -0.2867
      5  CB         4.7900   23.7460   15.6800 C.3     8  ARG8        0.0307
      6  CG         5.4360   22.4150   16.1190 C.3     8  ARG8        0.0489
      7  CD         6.3840   21.8910   15.0450 C.3     8  ARG8        0.2205
      8  NE         7.1950   20.8190   15.5640 N.pl3   8  ARG8       -0.0865
      9  CZ         8.1050   20.1170   14.8940 C.cat   8  ARG8        0.5346
     10  NH1        8.2960   20.3940   13.6160 N.pl3   8  ARG8        0.1354
     11  NH2        8.7660   19.1510   15.5500 N.pl3   8  ARG8        0.1354
     12  N          8.9580   28.3070   11.4980 N.3    23  LEU23      -0.1245
     13  CA         8.7710   28.1310   12.9440 C.3    23  LEU23       0.1561
     14  C          9.4250   29.2710   13.7100 C.2    23  LEU23       0.2260
     15  O         10.6240   29.5240   13.5360 O.2    23  LEU23      -0.2867
     16  CB         9.4170   26.7960   13.2890 C.3    23  LEU23       0.0270
     17  CG         9.3360   26.3190   14.7410 C.3    23  LEU23       0.0019
     18  CD1        7.9270   26.0330   15.1360 C.3    23  LEU23       0.0001
     19  CD2       10.2290   25.1110   14.9070 C.3    23  LEU23       0.0001
     20  N         11.2830   30.2280   16.6270 N.3    25  ASP25      -0.1239
     21  CA        12.0970   29.2990   17.4280 C.3    25  ASP25       0.1674
     22  C         13.0770   30.0420   18.3310 C.2    25  ASP25       0.2266
     23  O         14.1670   30.4420   17.9360 O.2    25  ASP25      -0.2867
     24  CB        12.8530   28.3870   16.4710 C.3    25  ASP25       0.1410
     25  CG        13.4520   27.1630   17.1330 C.2    25  ASP25       0.3668
     26  OD1       13.6800   27.3310   18.3580 O.co2  25  ASP25      -0.2456
     27  OD2       13.6710   26.1960   16.3560 O.co2  25  ASP25      -0.2456
     28  N         14.8230   28.8140   20.6350 N.3    27  GLY27      -0.1210
     29  CA        15.9950   28.0130   20.8730 C.3    27  GLY27       0.1956
     30  C         17.0530   28.0920   19.7980 C.2    27  GLY27       0.2612
     31  O         18.1260   27.5100   19.9560 O.2    27  GLY27      -0.2717
     32  N         16.7670   28.7740   18.7020 N.am   28  ALA28      -0.1965
     33  CA        17.6780   28.8640   17.5660 C.3    28  ALA28       0.1728
     34  C         18.3860   30.2050   17.5920 C.2    28  ALA28       0.2616
     35  O         17.7570   31.2630   17.5880 O.2    28  ALA28      -0.2715
     36  CB        16.9320   28.7010   16.2600 C.3    28  ALA28       0.0334
     37  N         19.7310   30.1760   17.5560 N.am   29  ASP29      -0.1957
     38  CA        20.4700   31.4240   17.5270 C.3    29  ASP29       0.1840
     39  C         20.2300   32.1790   16.2130 C.2    29  ASP29       0.2622
     40  O         20.2200   33.4160   16.1940 O.2    29  ASP29      -0.2715
     41  CB        21.9720   31.1400   17.6530 C.3    29  ASP29       0.1450
     42  CG        22.4250   30.5540   18.9690 C.2    29  ASP29       0.3671
     43  OD1       21.7220   30.6750   19.9950 O.co2  29  ASP29      -0.2456
     44  OD2       23.5500   29.9750   18.9490 O.co2  29  ASP29      -0.2456
     45  N         20.1460   31.3610   15.1420 N.am   30  ASP30      -0.1971
     46  CA        20.1630   31.7030   13.7240 C.3    30  ASP30       0.1709
     47  C         18.8290   31.3670   13.0400 C.2    30  ASP30       0.2293
     48  O         17.9840   30.6980   13.6080 O.2    30  ASP30      -0.2864
     49  CB        21.3020   31.0010   12.9580 C.3    30  ASP30       0.1436
     50  CG        22.6440   31.2270   13.5300 C.2    30  ASP30       0.3671
     51  OD1       22.9140   32.2760   14.1050 O.co2  30  ASP30      -0.2456
     52  OD2       23.5110   30.3270   13.3170 O.co2  30  ASP30      -0.2456
     53  N         17.3950   29.5550    9.6200 N.3    32  VAL32      -0.1245
     54  CA        17.8070   28.6160    8.5750 C.3    32  VAL32       0.1561
     55  C         16.5860   28.1710    7.7820 C.2    32  VAL32       0.2260
     56  O         15.5530   27.7800    8.3540 O.2    32  VAL32      -0.2867
     57  CB        18.6160   27.4370    9.1320 C.3    32  VAL32       0.0252
     58  CG1       17.8780   26.5880   10.1390 C.3    32  VAL32       0.0019
     59  CG2       19.1680   26.5780    7.9830 C.3    32  VAL32       0.0019
     60  N         26.1580   24.4610   11.4480 N.3    47  ILE47      -0.1231
     61  CA        25.2630   24.7240   12.5750 C.3    47  ILE47       0.1692
     62  C         24.9090   23.3960   13.2200 C.2    47  ILE47       0.2593
     63  O         24.6880   22.3940   12.5570 O.2    47  ILE47      -0.2718
     64  CB        24.0130   25.5410   12.2120 C.3    47  ILE47       0.0266
     65  CG1       23.1620   24.8450   11.1350 C.3    47  ILE47       0.0019
     66  CG2       24.4120   26.9330   11.8400 C.3    47  ILE47       0.0020
     67  CD1       21.8180   25.5090   10.9250 C.3    47  ILE47       0.0001
     68  N         24.7480   23.3100   14.5610 N.am   48  GLY48      -0.1942
     69  CA        24.5850   22.0640   15.3150 C.3    48  GLY48       0.2014
     70  C         23.4780   22.0620   16.4030 C.2    48  GLY48       0.2639
     71  O         23.1470   23.0940   16.9610 O.2    48  GLY48      -0.2714
     72  N         22.9160   20.8900   16.6590 N.am   49  GLY49      -0.1939
     73  CA        21.8420   20.7740   17.6560 C.3    49  GLY49       0.2014
     74  C         21.5620   19.2900   17.8440 C.2    49  GLY49       0.2638
     75  O         22.4540   18.4500   17.8390 O.2    49  GLY49      -0.2714
     76  N         20.2620   18.9940   18.0690 N.am   50  ILE50      -0.1977
     77  CA        19.8840   17.5830   18.2280 C.3    50  ILE50       0.1596
     78  C         20.2460   16.8450   16.9490 C.2    50  ILE50       0.2287
     79  O         19.8850   17.2260   15.8600 O.2    50  ILE50      -0.2864
     80  CB        18.3790   17.4970   18.5080 C.3    50  ILE50       0.0276
     81  CG1       18.0460   18.1310   19.8640 C.3    50  ILE50       0.0022
     82  CG2       17.8750   16.0830   18.4170 C.3    50  ILE50       0.0022
     83  CD1       18.4150   17.2730   21.0570 C.3    50  ILE50       0.0001
     84  N         23.3920   16.6730   15.8560 N.3    52  GLY52      -0.1210
     85  CA        24.6710   17.0220   15.3100 C.3    52  GLY52       0.1956
     86  C         24.5670   18.2370   14.4080 C.2    52  GLY52       0.2611
     87  O         23.7380   19.0850   14.6200 O.2    52  GLY52      -0.2717
     88  N         25.4110   18.2670   13.3840 N.am   53  PHE53      -0.1976
     89  CA        25.6450   19.4660   12.5670 C.3    53  PHE53       0.1639
     90  C         25.2170   19.2450   11.1220 C.2    53  PHE53       0.2290
     91  O         25.2860   18.1330   10.5750 O.2    53  PHE53      -0.2864
     92  CB        27.1120   19.8610   12.5810 C.3    53  PHE53       0.0560
     93  CG        27.6040   20.3870   13.9120 C.ar   53  PHE53      -0.0200
     94  CD1       27.8880   19.5080   14.9640 C.ar   53  PHE53      -0.0042
     95  CD2       27.7840   21.7310   14.1380 C.ar   53  PHE53      -0.0042
     96  CE1       28.3040   20.0160   16.1900 C.ar   53  PHE53      -0.0003
     97  CE2       28.2120   22.2190   15.3580 C.ar   53  PHE53      -0.0003
     98  CZ        28.4650   21.3360   16.3760 C.ar   53  PHE53      -0.0000
     99  N         15.2830   20.4200    8.4120 N.3    81  PRO81      -0.2102
    100  CA        14.0120   19.7220    8.2680 C.3    81  PRO81       0.1504
    101  C         12.8000   20.6430    8.3250 C.2    81  PRO81       0.2575
    102  O         11.7140   20.2240    7.9030 O.2    81  PRO81      -0.2718
    103  CB        14.0200   18.7050    9.4220 C.3    81  PRO81       0.0282
    104  CG        14.9940   19.2270   10.3440 C.3    81  PRO81       0.0208
    105  CD        15.9820   20.0410    9.6440 C.3    81  PRO81       0.0893
    106  N         12.9470   21.8090    8.9110 N.am   82  VAL82      -0.1980
    107  CA        11.9100   22.7750    9.1340 C.3    82  VAL82       0.1595
    108  C         12.5040   24.1690    8.8810 C.2    82  VAL82       0.2287
    109  O         13.6170   24.4180    9.3020 O.2    82  VAL82      -0.2864
    110  CB        11.3950   22.7020   10.6380 C.3    82  VAL82       0.0276
    111  CG1       10.3770   23.7410   10.9790 C.3    82  VAL82       0.0022
    112  CG2       10.8000   21.3020   10.8800 C.3    82  VAL82       0.0022
    113  N         13.2260   27.7030    9.9700 N.3    84  ILE84      -0.1245
    114  CA        13.3430   28.1820   11.3500 C.3    84  ILE84       0.1561
    115  C         13.6900   29.6610   11.3580 C.2    84  ILE84       0.2260
    116  O         14.7040   30.0780   10.7830 O.2    84  ILE84      -0.2867
    117  CB        14.4380   27.3770   12.0650 C.3    84  ILE84       0.0252
    118  CG1       13.9780   25.9540   12.3000 C.3    84  ILE84       0.0019
    119  CG2       14.8590   28.0570   13.3740 C.3    84  ILE84       0.0019
    120  CD1       15.0500   24.9610   12.5720 C.3    84  ILE84       0.0001
@<TRIPOS>BOND
     1    55    56    2
     2    55    54    1
     3   102   101    2
     4    59    57    1
     5   100   101    1
     6   100    99    1
     7   100   103    1
     8   101   106   am
     9    99   105    1
    10    54    57    1
    11    54    53    1
    12   108   107    1
    13   108   109    2
    14   106   107    1
    15    57    58    1
    16   107   110    1
    17   103   104    1
    18   105   104    1
    19   113   114    1
    20    91    90    2
    21   110   112    1
    22   110   111    1
    23   116   115    2
    24    67    65    1
    25    90    89    1
    26    65    64    1
    27   114   115    1
    28   114   117    1
    29    60    61    1
    30    12    13    1
    31    66    64    1
    32   117   118    1
    33   117   119    1
    34    64    61    1
    35   118   120    1
    36    63    62    2
    37    89    92    1
    38    89    88    1
    39    61    62    1
    40    92    93    1
    41    13    16    1
    42    13    14    1
    43    49    50    1
    44    49    46    1
    45    47    48    2
    46    47    46    1
    47    62    68   am
    48    16    17    1
    49    52    50   ar
    50    88    86   am
    51    50    51   ar
    52    15    14    2
    53    10     9    1
    54    46    45    1
    55    93    95   ar
    56    93    94   ar
    57    95    97   ar
    58    86    87    2
    59    86    85    1
    60    68    69    1
    61    17    19    1
    62    17    18    1
    63     9    11    1
    64     9     8    2
    65    94    96   ar
    66     7     8    1
    67     7     6    1
    68    45    39   am
    69    85    84    1
    70    69    70    1
    71    97    98   ar
    72     4     3    2
    73     5     6    1
    74     5     2    1
    75    79    78    2
    76    96    98   ar
    77    40    39    2
    78    39    38    1
    79    36    33    1
    80    27    25   ar
    81     3     2    1
    82    70    72   am
    83    70    71    2
    84    24    25    1
    85    24    21    1
    86    20    21    1
    87    72    73    1
    88     2     1    1
    89    78    77    1
    90    25    26   ar
    91    21    22    1
    92    38    37    1
    93    38    41    1
    94    37    34   am
    95    33    34    1
    96    33    32    1
    97    35    34    2
    98    41    42    1
    99    73    74    1
   100    75    74    2
   101    74    76   am
   102    23    22    2
   103    76    77    1
   104    77    80    1
   105    82    80    1
   106    80    81    1
   107    32    30   am
   108    44    42   ar
   109    42    43   ar
   110    30    31    2
   111    30    29    1
   112    81    83    1
   113    28    29    1
