@<TRIPOS>MOLECULE
tmp/5yoqB00.pdb
 155 145 0 0 0
SMALL
GASTEIGER

@<TRIPOS>ATOM
      1  N         39.3330   42.1430    8.1170 N.3   381  LEU381     -0.1231
      2  CA        38.6290   42.1180    9.3950 C.3   381  LEU381      0.1693
      3  C         37.6200   40.9780    9.4480 C.2   381  LEU381      0.2591
      4  O         37.4860   40.3080   10.4790 O.2   381  LEU381     -0.2718
      5  CB        37.9320   43.4560    9.6370 C.3   381  LEU381      0.0284
      6  CG        37.1890   43.5710   10.9690 C.3   381  LEU381      0.0019
      7  CD1       38.0770   44.1960   12.0380 C.3   381  LEU381      0.0001
      8  CD2       35.8910   44.3410   10.8110 C.3   381  LEU381      0.0001
      9  N         36.8940   40.7490    8.3500 N.am  382  ILE382     -0.1980
     10  CA        35.9320   39.6510    8.3120 C.3   382  ILE382      0.1595
     11  C         36.6490   38.3120    8.4330 C.2   382  ILE382      0.2287
     12  O         36.2060   37.4180    9.1640 O.2   382  ILE382     -0.2864
     13  CB        35.0840   39.7220    7.0280 C.3   382  ILE382      0.0276
     14  CG1       34.3980   41.0820    6.9110 C.3   382  ILE382      0.0022
     15  CG2       34.0500   38.6060    7.0060 C.3   382  ILE382      0.0022
     16  CD1       33.6330   41.4810    8.1400 C.3   382  ILE382      0.0001
     17  N         37.8960   37.9110   12.1300 N.3   385  ASN385     -0.1225
     18  CA        36.8620   37.7180   13.1430 C.3   385  ASN385      0.1785
     19  C         36.0790   36.4280   12.9240 C.2   385  ASN385      0.2597
     20  O         35.7280   35.7450   13.8920 O.2   385  ASN385     -0.2718
     21  CB        35.9160   38.9190   13.1630 C.3   385  ASN385      0.1169
     22  CG        36.5760   40.1690   13.7090 C.2   385  ASN385      0.2627
     23  OD1       36.4380   40.4930   14.8880 O.2   385  ASN385     -0.2716
     24  ND2       37.3070   40.8730   12.8530 N.am  385  ASN385     -0.0877
     25  N         35.7880   36.0810   11.6670 N.am  386  CYS386     -0.1970
     26  CA        35.0900   34.8270   11.4010 C.3   386  CYS386      0.1712
     27  C         35.9370   33.6240   11.7890 C.2   386  CYS386      0.2296
     28  O         35.3950   32.5900   12.1960 O.2   386  CYS386     -0.2864
     29  CB        34.6860   34.7390    9.9300 C.3   386  CYS386      0.0983
     30  SG        33.2080   35.6930    9.5180 S.3   386  CYS386     -0.0798
     31  N         32.2020   33.7410   21.4260 N.3   397  PHE397     -0.1241
     32  CA        32.5640   34.8730   20.5780 C.3   397  PHE397      0.1605
     33  C         31.9760   36.1710   21.1130 C.2   397  PHE397      0.2264
     34  O         32.5930   37.2350   20.9800 O.2   397  PHE397     -0.2867
     35  CB        32.1020   34.6180   19.1410 C.3   397  PHE397      0.0534
     36  CG        32.5180   35.6820   18.1660 C.ar  397  PHE397     -0.0203
     37  CD1       33.8560   35.9900   17.9840 C.ar  397  PHE397     -0.0042
     38  CD2       31.5720   36.3600   17.4150 C.ar  397  PHE397     -0.0042
     39  CE1       34.2400   36.9660   17.0820 C.ar  397  PHE397     -0.0003
     40  CE2       31.9500   37.3370   16.5120 C.ar  397  PHE397     -0.0003
     41  CZ        33.2850   37.6400   16.3450 C.ar  397  PHE397     -0.0000
     42  N         34.1120   39.6270   22.4840 N.3   401  LEU401     -0.1245
     43  CA        33.7820   40.9890   22.0770 C.3   401  LEU401      0.1561
     44  C         33.3590   41.8460   23.2640 C.2   401  LEU401      0.2260
     45  O         33.5780   43.0630   23.2560 O.2   401  LEU401     -0.2867
     46  CB        32.6840   40.9670   21.0150 C.3   401  LEU401      0.0270
     47  CG        33.0490   40.2870   19.6940 C.3   401  LEU401      0.0019
     48  CD1       31.8490   40.2370   18.7660 C.3   401  LEU401      0.0001
     49  CD2       34.2140   41.0020   19.0280 C.3   401  LEU401      0.0001
     50  N         36.5790   42.9700   24.6170 N.3   404  ARG404     -0.1231
     51  CA        37.2610   43.8580   23.6810 C.3   404  ARG404      0.1694
     52  C         36.6730   45.2650   23.7190 C.2   404  ARG404      0.2592
     53  O         37.4080   46.2520   23.8380 O.2   404  ARG404     -0.2718
     54  CB        37.1890   43.2800   22.2680 C.3   404  ARG404      0.0321
     55  CG        37.8990   44.1160   21.2170 C.3   404  ARG404      0.0489
     56  CD        37.6480   43.5720   19.8210 C.3   404  ARG404      0.2205
     57  NE        38.1350   42.2040   19.6700 N.pl3 404  ARG404     -0.0865
     58  CZ        37.9650   41.4690   18.5760 C.cat 404  ARG404      0.5346
     59  NH1       37.3130   41.9690   17.5350 N.pl3 404  ARG404      0.1354
     60  NH2       38.4430   40.2320   18.5210 N.pl3 404  ARG404      0.1354
     61  N         35.3470   45.3790   23.6210 N.am  405  TYR405     -0.1976
     62  CA        34.7210   46.6940   23.5700 C.3   405  TYR405      0.1639
     63  C         34.5960   47.3480   24.9400 C.2   405  TYR405      0.2290
     64  O         34.4780   48.5760   25.0140 O.2   405  TYR405     -0.2864
     65  CB        33.3500   46.5990   22.8950 C.3   405  TYR405      0.0560
     66  CG        33.4410   46.7140   21.3900 C.ar  405  TYR405     -0.0198
     67  CD1       33.7950   45.6220   20.6110 C.ar  405  TYR405     -0.0009
     68  CD2       33.1990   47.9240   20.7520 C.ar  405  TYR405     -0.0009
     69  CE1       33.8940   45.7260   19.2360 C.ar  405  TYR405      0.0417
     70  CE2       33.2940   48.0390   19.3770 C.ar  405  TYR405      0.0417
     71  CZ        33.6420   46.9370   18.6250 C.ar  405  TYR405      0.1957
     72  OH        33.7380   47.0460   17.2570 O.3   405  TYR405     -0.2866
     73  N         37.9900   48.7860   25.1870 N.3   408  LYS408     -0.1245
     74  CA        38.0000   49.9280   24.2780 C.3   408  LYS408      0.1561
     75  C         37.3770   51.1500   24.9420 C.2   408  LYS408      0.2260
     76  O         38.0160   52.2000   25.0760 O.2   408  LYS408     -0.2867
     77  CB        37.2540   49.5880   22.9860 C.3   408  LYS408      0.0271
     78  CG        38.0490   48.7870   21.9730 C.3   408  LYS408      0.0035
     79  CD        37.1970   48.4730   20.7490 C.3   408  LYS408      0.0206
     80  CE        37.9710   47.6730   19.7150 C.3   408  LYS408      0.1093
     81  NZ        39.1210   48.4440   19.1610 N.3   408  LYS408     -0.1314
     82  N         26.8900   42.0950   18.0650 N.3   424  LEU424     -0.1245
     83  CA        28.1290   41.9570   17.3090 C.3   424  LEU424      0.1561
     84  C         28.5330   40.5010   17.1220 C.2   424  LEU424      0.2260
     85  O         29.2870   40.1950   16.1940 O.2   424  LEU424     -0.2867
     86  CB        29.2610   42.7210   17.9970 C.3   424  LEU424      0.0270
     87  CG        29.2880   44.2390   17.8180 C.3   424  LEU424      0.0019
     88  CD1       30.4720   44.8450   18.5520 C.3   424  LEU424      0.0001
     89  CD2       29.3300   44.5990   16.3420 C.3   424  LEU424      0.0001
     90  N         26.0700   38.7540   14.2490 N.3   427  VAL427     -0.1231
     91  CA        26.4490   38.9480   12.8560 C.3   427  VAL427      0.1692
     92  C         27.4660   37.9050   12.4190 C.2   427  VAL427      0.2592
     93  O         27.6000   37.6400   11.2190 O.2   427  VAL427     -0.2718
     94  CB        26.9880   40.3730   12.6160 C.3   427  VAL427      0.0266
     95  CG1       26.0260   41.4100   13.1740 C.3   427  VAL427      0.0020
     96  CG2       28.3710   40.5380   13.2150 C.3   427  VAL427      0.0020
     97  N         28.1850   37.2960   13.3650 N.am  428  GLY428     -0.1957
     98  CA        29.0730   36.2020   13.0200 C.3   428  GLY428      0.1869
     99  C         28.3490   34.8920   12.7990 C.2   428  GLY428      0.2309
    100  O         28.8180   34.0460   12.0310 O.2   428  GLY428     -0.2863
    101  N         29.3210   34.4610    8.7650 N.3   432  CYS432     -0.1235
    102  CA        30.5330   33.6670    8.5960 C.3   432  CYS432      0.1677
    103  C         30.2640   32.3310    7.9150 C.2   432  CYS432      0.2270
    104  O         31.1980   31.7260    7.3800 O.2   432  CYS432     -0.2867
    105  CB        31.2110   33.4390    9.9480 C.3   432  CYS432      0.0956
    106  SG        31.7840   34.9500   10.7640 S.3   432  CYS432     -0.0801
    107  N         28.2940   40.8900    6.6550 N.3   443  ALA443     -0.1245
    108  CA        28.8330   41.2390    7.9650 C.3   443  ALA443      0.1562
    109  C         28.9840   42.7480    8.1290 C.2   443  ALA443      0.2260
    110  O         28.4480   43.3370    9.0740 O.2   443  ALA443     -0.2867
    111  CB        30.1710   40.5340    8.1820 C.3   443  ALA443      0.0290
    112  N         27.3320   45.2690   10.6280 N.3   447  LEU447     -0.1245
    113  CA        28.1030   46.0080   11.6220 C.3   447  LEU447      0.1561
    114  C         27.6610   47.4630   11.7010 C.2   447  LEU447      0.2260
    115  O         27.6760   48.0580   12.7840 O.2   447  LEU447     -0.2867
    116  CB        29.5950   45.9310   11.2970 C.3   447  LEU447      0.0270
    117  CG        30.2760   44.5700   11.4160 C.3   447  LEU447      0.0019
    118  CD1       31.7330   44.6750   10.9960 C.3   447  LEU447      0.0001
    119  CD2       30.1620   44.0420   12.8330 C.3   447  LEU447      0.0001
    120  N         26.6350   48.9820   15.4820 N.3   451  LEU451     -0.1245
    121  CA        27.3540   50.1210   16.0450 C.3   451  LEU451      0.1561
    122  C         26.4770   51.3640   16.1030 C.2   451  LEU451      0.2260
    123  O         26.6110   52.1730   17.0290 O.2   451  LEU451     -0.2867
    124  CB        28.6230   50.3940   15.2390 C.3   451  LEU451      0.0270
    125  CG        29.7050   49.3210   15.3650 C.3   451  LEU451      0.0019
    126  CD1       30.8810   49.6240   14.4580 C.3   451  LEU451      0.0001
    127  CD2       30.1610   49.1950   16.8110 C.3   451  LEU451      0.0001
    128  N         32.7050   51.8330   11.5560 N.3   479  ARG479     -0.1245
    129  CA        33.2880   50.5540   11.9550 C.3   479  ARG479      0.1563
    130  C         34.8080   50.6200   12.0600 C.2   479  ARG479      0.2260
    131  O         35.3490   50.1830   13.0900 O.2   479  ARG479     -0.2867
    132  CB        32.8110   49.4550   10.9940 C.3   479  ARG479      0.0307
    133  CG        33.1800   48.0260   11.3870 C.3   479  ARG479      0.0489
    134  CD        34.5710   47.6460   10.9020 C.3   479  ARG479      0.2205
    135  NE        34.7440   47.8890    9.4730 N.pl3 479  ARG479     -0.0865
    136  CZ        35.9190   47.8790    8.8500 C.cat 479  ARG479      0.5346
    137  NH1       37.0330   47.6440    9.5310 N.pl3 479  ARG479      0.1354
    138  NH2       35.9830   48.1090    7.5450 N.pl3 479  ARG479      0.1354
    139  N         35.7810   52.4190   15.4560 N.3   482  PHE482     -0.1227
    140  CA        35.7220   51.5820   16.6500 C.3   482  PHE482      0.1736
    141  C         36.7400   50.4490   16.5870 C.2   482  PHE482      0.2596
    142  O         37.3250   50.0780   17.6110 O.2   482  PHE482     -0.2718
    143  CB        34.3110   51.0250   16.8380 C.3   482  PHE482      0.0547
    144  CG        33.3190   52.0370   17.3380 C.ar  482  PHE482     -0.0202
    145  CD1       33.3070   52.4150   18.6710 C.ar  482  PHE482     -0.0042
    146  CD2       32.3910   52.6030   16.4780 C.ar  482  PHE482     -0.0042
    147  CE1       32.3920   53.3440   19.1360 C.ar  482  PHE482     -0.0003
    148  CE2       31.4730   53.5330   16.9360 C.ar  482  PHE482     -0.0003
    149  CZ        31.4730   53.9040   18.2660 C.ar  482  PHE482     -0.0000
    150  N         36.9700   49.8910   15.3950 N.am  483  SER483     -0.1952
    151  CA        37.9330   48.8010   15.2630 C.3   483  SER483      0.1924
    152  C         39.3520   49.2570   15.5800 C.2   483  SER483      0.2314
    153  O         40.1760   48.4510   16.0270 O.2   483  SER483     -0.2863
    154  CB        37.8720   48.2100   13.8540 C.3   483  SER483      0.2116
    155  OG        36.6280   47.5750   13.6190 O.3   483  SER483     -0.2180
@<TRIPOS>BOND
     1   107   108    1
     2    14    13    1
     3    14    16    1
     4    15    13    1
     5    13    10    1
     6   104   103    2
     7   138   136    1
     8   103   102    1
     9   108   109    1
    10   108   111    1
    11     1     2    1
    12   109   110    2
    13    10     9    1
    14    10    11    1
    15     9     3   am
    16    11    12    2
    17   102   101    1
    18   102   105    1
    19   136   135    2
    20   136   137    1
    21     2     3    1
    22     2     5    1
    23     3     4    2
    24   135   134    1
    25    30    29    1
    26    30   106    1
    27     5     6    1
    28    29    26    1
    29   105   106    1
    30   112   113    1
    31     8     6    1
    32   134   133    1
    33     6     7    1
    34   132   133    1
    35   132   129    1
    36   118   117    1
    37    93    92    2
    38   116   117    1
    39   116   113    1
    40    26    25    1
    41    26    27    1
    42   117   119    1
    43   128   129    1
    44   113   114    1
    45    25    19   am
    46   114   115    2
    47    27    28    2
    48   129   130    1
    49   100    99    2
    50   130   131    2
    51    17    18    1
    52    92    91    1
    53    92    97   am
    54    94    91    1
    55    94    95    1
    56    94    96    1
    57    99    98    1
    58    24    22   am
    59    91    90    1
    60    19    18    1
    61    19    20    2
    62    98    97    1
    63    18    21    1
    64    21    22    1
    65   155   154    1
    66    22    23    2
    67   154   151    1
    68   126   125    1
    69   124   125    1
    70   124   121    1
    71   151   150    1
    72   151   152    1
    73   125   127    1
    74   150   141   am
    75   139   140    1
    76   120   121    1
    77   152   153    2
    78   121   122    1
    79   122   123    2
    80    85    84    2
    81    89    87    1
    82    41    40   ar
    83    41    39   ar
    84   146   148   ar
    85   146   144   ar
    86    40    38   ar
    87   141   140    1
    88   141   142    2
    89   140   143    1
    90   143   144    1
    91   148   149   ar
    92    39    37   ar
    93    84    83    1
    94    72    71    1
    95    83    86    1
    96    83    82    1
    97   144   145   ar
    98    38    36   ar
    99    59    58    1
   100    87    86    1
   101    87    88    1
   102    37    36   ar
   103    36    35    1
   104   149   147   ar
   105    60    58    1
   106    58    57    2
   107    71    69   ar
   108    71    70   ar
   109   145   147   ar
   110    48    47    1
   111    49    47    1
   112    35    32    1
   113    81    80    1
   114    69    67   ar
   115    70    68   ar
   116    57    56    1
   117    47    46    1
   118    80    79    1
   119    56    55    1
   120    32    33    1
   121    32    31    1
   122    67    66   ar
   123    79    78    1
   124    68    66   ar
   125    34    33    2
   126    46    43    1
   127    55    54    1
   128    66    65    1
   129    78    77    1
   130    43    42    1
   131    43    44    1
   132    54    51    1
   133    65    62    1
   134    77    74    1
   135    45    44    2
   136    62    61    1
   137    62    63    1
   138    61    52   am
   139    51    52    1
   140    51    50    1
   141    52    53    2
   142    74    75    1
   143    74    73    1
   144    63    64    2
   145    75    76    2
