@<TRIPOS>MOLECULE
tmp/5youA00.pdb
 143 139 0 0 0
SMALL
GASTEIGER

@<TRIPOS>ATOM
      1  N        -30.1820   -0.4700   78.0340 N.3    39  TRP39      -0.1228
      2  CA       -30.5190   -1.7370   78.6790 C.3    39  TRP39       0.1722
      3  C        -29.3180   -2.6060   79.0420 C.2    39  TRP39       0.2437
      4  O        -29.3660   -3.2450   80.1100 O.2    39  TRP39      -0.2733
      5  CB       -31.5170   -2.5090   77.8030 C.3    39  TRP39       0.0563
      6  CG       -31.0630   -2.8210   76.4140 C.ar   39  TRP39       0.0003
      7  CD1      -31.2180   -2.0420   75.3010 C.ar   39  TRP39       0.0946
      8  CD2      -30.4020   -4.0110   75.9810 C.ar   39  TRP39       0.0152
      9  NE1      -30.6850   -2.6760   74.1980 N.ar   39  TRP39      -0.2442
     10  CE2      -30.1770   -3.8870   74.5920 C.ar   39  TRP39       0.0810
     11  CE3      -29.9760   -5.1750   76.6330 C.ar   39  TRP39       0.0012
     12  CZ2      -29.5420   -4.8810   73.8480 C.ar   39  TRP39       0.0191
     13  CZ3      -29.3490   -6.1620   75.8880 C.ar   39  TRP39       0.0001
     14  CH2      -29.1370   -6.0050   74.5140 C.ar   39  TRP39       0.0015
     15  N        -28.2440   -2.6970   78.2500 N.am   40  PRO40      -0.2718
     16  CA       -27.1120   -3.5270   78.6820 C.3    40  PRO40       0.1535
     17  C        -26.4750   -3.0320   79.9520 C.2    40  PRO40       0.2598
     18  O        -25.7810   -3.8050   80.6220 O.2    40  PRO40      -0.2715
     19  CB       -26.1260   -3.4470   77.5200 C.3    40  PRO40       0.0310
     20  CG       -26.9460   -2.9690   76.3280 C.3    40  PRO40       0.0237
     21  CD       -28.0110   -2.0960   76.9220 C.3    40  PRO40       0.0939
     22  N        -26.6930   -1.7680   80.3050 N.am   41  PHE41      -0.1974
     23  CA       -26.0210   -1.1290   81.4230 C.3    41  PHE41       0.1639
     24  C        -26.9360   -0.9520   82.6280 C.2    41  PHE41       0.2290
     25  O        -26.5310   -0.3260   83.6130 O.2    41  PHE41      -0.2864
     26  CB       -25.4530    0.2140   80.9600 C.3    41  PHE41       0.0560
     27  CG       -24.5750    0.0980   79.7550 C.ar   41  PHE41      -0.0200
     28  CD1      -23.2380   -0.2440   79.8810 C.ar   41  PHE41      -0.0042
     29  CD2      -25.0930    0.2790   78.4750 C.ar   41  PHE41      -0.0042
     30  CE1      -22.4260   -0.3730   78.7660 C.ar   41  PHE41      -0.0003
     31  CE2      -24.2840    0.1440   77.3480 C.ar   41  PHE41      -0.0003
     32  CZ       -22.9510   -0.1870   77.4880 C.ar   41  PHE41      -0.0000
     33  N        -27.9770   -3.2890   84.6990 N.3    43  GLN43      -0.1245
     34  CA       -27.6890   -4.2720   85.7330 C.3    43  GLN43       0.1566
     35  C        -26.2630   -4.7530   85.5220 C.2    43  GLN43       0.2260
     36  O        -25.6680   -4.5060   84.4650 O.2    43  GLN43      -0.2867
     37  CB       -28.6840   -5.4430   85.6840 C.3    43  GLN43       0.0367
     38  CG       -28.6840   -6.1750   84.3500 C.3    43  GLN43       0.0905
     39  CD       -29.3610   -5.3800   83.2380 C.2    43  GLN43       0.2608
     40  OE1      -30.4830   -4.9130   83.4050 O.2    43  GLN43      -0.2717
     41  NE2      -28.6820   -5.2310   82.1060 N.am   43  GLN43      -0.0878
     42  N        -23.0810   -6.9020   84.4540 N.3    45  VAL45      -0.1231
     43  CA       -22.8400   -7.8540   83.3730 C.3    45  VAL45       0.1692
     44  C        -23.0790   -9.2650   83.8970 C.2    45  VAL45       0.2592
     45  O        -22.4610   -9.6970   84.8810 O.2    45  VAL45      -0.2718
     46  CB       -21.4210   -7.6970   82.8250 C.3    45  VAL45       0.0266
     47  CG1      -21.0820   -8.8650   81.8900 C.3    45  VAL45       0.0020
     48  CG2      -21.2880   -6.3780   82.0810 C.3    45  VAL45       0.0020
     49  N        -23.9930   -9.9820   83.2580 N.am   46  ASP46      -0.1974
     50  CA       -24.2740  -11.3810   83.6140 C.3    46  ASP46       0.1709
     51  C        -23.3740  -12.2690   82.7660 C.2    46  ASP46       0.2293
     52  O        -23.7320  -12.6830   81.6630 O.2    46  ASP46      -0.2864
     53  CB       -25.7530  -11.7020   83.4230 C.3    46  ASP46       0.1436
     54  CG       -26.1510  -13.0650   83.9900 C.2    46  ASP46       0.3671
     55  OD1      -25.2710  -13.9350   84.1520 O.co2  46  ASP46      -0.2456
     56  OD2      -27.3510  -13.2550   84.2750 O.co2  46  ASP46      -0.2456
     57  N        -24.8960  -15.7660   81.8810 N.3    49  LYS49      -0.1231
     58  CA       -25.8710  -15.7630   80.7890 C.3    49  LYS49       0.1693
     59  C        -25.1930  -15.5440   79.4460 C.2    49  LYS49       0.2591
     60  O        -25.5550  -16.1720   78.4380 O.2    49  LYS49      -0.2718
     61  CB       -26.9230  -14.6790   81.0340 C.3    49  LYS49       0.0285
     62  CG       -27.9150  -14.5010   79.8970 C.3    49  LYS49       0.0035
     63  CD       -28.7730  -13.2630   80.1020 C.3    49  LYS49       0.0206
     64  CE       -29.6210  -12.9700   78.8760 C.3    49  LYS49       0.1093
     65  NZ       -30.5110  -14.1160   78.5510 N.3    49  LYS49      -0.1314
     66  N        -24.2210  -14.6400   79.4090 N.am   50  LEU50      -0.1980
     67  CA       -23.5150  -14.3290   78.1810 C.3    50  LEU50       0.1596
     68  C        -22.4680  -15.3710   77.8230 C.2    50  LEU50       0.2287
     69  O        -21.9100  -15.3050   76.7240 O.2    50  LEU50      -0.2864
     70  CB       -22.8620  -12.9480   78.2930 C.3    50  LEU50       0.0297
     71  CG       -23.8350  -11.7860   78.4670 C.3    50  LEU50       0.0022
     72  CD1      -23.0980  -10.5650   79.0070 C.3    50  LEU50       0.0001
     73  CD2      -24.5370  -11.4780   77.1390 C.3    50  LEU50       0.0001
     74  N        -19.5140  -15.5690   78.9870 N.3    52  LEU52      -0.1245
     75  CA       -18.2760  -14.7940   78.9180 C.3    52  LEU52       0.1561
     76  C        -17.5330  -14.9770   80.2360 C.2    52  LEU52       0.2260
     77  O        -17.3740  -14.0320   81.0230 O.2    52  LEU52      -0.2867
     78  CB       -18.5480  -13.3140   78.6550 C.3    52  LEU52       0.0270
     79  CG       -19.2820  -12.9830   77.3650 C.3    52  LEU52       0.0019
     80  CD1      -19.6350  -11.4960   77.3710 C.3    52  LEU52       0.0001
     81  CD2      -18.4310  -13.3240   76.1600 C.3    52  LEU52       0.0001
     82  N        -15.0580  -12.2250   81.3230 N.3    55  TYR55      -0.1241
     83  CA       -15.3250  -10.8200   81.6110 C.3    55  TYR55       0.1605
     84  C        -14.7660  -10.4160   82.9680 C.2    55  TYR55       0.2264
     85  O        -14.0590   -9.4090   83.0790 O.2    55  TYR55      -0.2867
     86  CB       -16.8230  -10.5170   81.5390 C.3    55  TYR55       0.0534
     87  CG       -17.0930   -9.0620   81.8280 C.ar   55  TYR55      -0.0201
     88  CD1      -16.9010   -8.1020   80.8390 C.ar   55  TYR55      -0.0009
     89  CD2      -17.4800   -8.6400   83.0940 C.ar   55  TYR55      -0.0009
     90  CE1      -17.1110   -6.7690   81.0900 C.ar   55  TYR55       0.0417
     91  CE2      -17.7110   -7.3040   83.3610 C.ar   55  TYR55       0.0417
     92  CZ       -17.5150   -6.3690   82.3410 C.ar   55  TYR55       0.1957
     93  OH       -17.7100   -5.0220   82.5690 O.3    55  TYR55      -0.2866
     94  N        -16.2910   -0.8030   79.7900 N.3    94  CYS94      -0.1235
     95  CA       -16.7750   -1.2280   78.4890 C.3    94  CYS94       0.1677
     96  C        -15.7050   -1.0110   77.4290 C.2    94  CYS94       0.2270
     97  O        -15.4730   -1.8830   76.5800 O.2    94  CYS94      -0.2867
     98  CB       -18.0670   -0.4740   78.1750 C.3    94  CYS94       0.0956
     99  SG       -18.8490   -0.9660   76.6390 S.3    94  CYS94      -0.0801
    100  N        -12.8320   -3.7820   78.0470 N.3    97  TYR97      -0.1227
    101  CA       -13.1060   -5.1810   77.7110 C.3    97  TYR97       0.1736
    102  C        -13.3450   -5.3700   76.2150 C.2    97  TYR97       0.2595
    103  O        -12.9640   -6.4010   75.6450 O.2    97  TYR97      -0.2718
    104  CB       -14.3050   -5.6880   78.5150 C.3    97  TYR97       0.0548
    105  CG       -14.7020   -7.1070   78.1410 C.ar   97  TYR97      -0.0200
    106  CD1      -13.9490   -8.1950   78.5650 C.ar   97  TYR97      -0.0009
    107  CD2      -15.8080   -7.3480   77.3390 C.ar   97  TYR97      -0.0009
    108  CE1      -14.2940   -9.4860   78.2040 C.ar   97  TYR97       0.0417
    109  CE2      -16.1630   -8.6290   76.9800 C.ar   97  TYR97       0.0417
    110  CZ       -15.4010   -9.6890   77.4150 C.ar   97  TYR97       0.1957
    111  OH       -15.7500  -10.9630   77.0420 O.3    97  TYR97      -0.2866
    112  N        -13.9730   -4.3970   75.5610 N.am   98  ASN98      -0.1974
    113  CA       -14.3350   -4.4960   74.1570 C.3    98  ASN98       0.1688
    114  C        -13.3600   -3.6830   73.2960 C.2    98  ASN98       0.2292
    115  O        -12.3960   -3.0950   73.7900 O.2    98  ASN98      -0.2864
    116  CB       -15.7840   -4.0400   73.9630 C.3    98  ASN98       0.1181
    117  CG       -16.7590   -4.7850   74.8680 C.2    98  ASN98       0.2629
    118  OD1      -17.1380   -5.9150   74.5750 O.2    98  ASN98      -0.2716
    119  ND2      -17.1690   -4.1530   75.9710 N.am   98  ASN98      -0.0877
    120  N        -20.4350   -3.3010   68.7460 N.3   103  ASP103     -0.1225
    121  CA       -21.7880   -2.8020   68.9790 C.3   103  ASP103      0.1805
    122  C        -21.9640   -2.2870   70.4080 C.2   103  ASP103      0.2597
    123  O        -22.5710   -1.2310   70.6290 O.2   103  ASP103     -0.2718
    124  CB       -22.8020   -3.9020   68.6750 C.3   103  ASP103      0.1424
    125  CG       -22.9970   -4.1180   67.1860 C.2   103  ASP103      0.3668
    126  OD1      -22.4210   -3.3430   66.3890 O.co2 103  ASP103     -0.2456
    127  OD2      -23.7210   -5.0690   66.8240 O.co2 103  ASP103     -0.2456
    128  N        -21.4490   -3.0180   71.3990 N.am  104  ILE104     -0.1980
    129  CA       -21.6480   -2.5810   72.7770 C.3   104  ILE104      0.1595
    130  C        -20.8940   -1.2780   73.0350 C.2   104  ILE104      0.2287
    131  O        -21.3250   -0.4550   73.8570 O.2   104  ILE104     -0.2864
    132  CB       -21.2540   -3.7070   73.7550 C.3   104  ILE104      0.0276
    133  CG1      -21.6560   -3.3420   75.1850 C.3   104  ILE104      0.0022
    134  CG2      -19.7690   -3.9790   73.7020 C.3   104  ILE104      0.0022
    135  CD1      -23.1350   -3.3930   75.4710 C.3   104  ILE104      0.0001
    136  N        -22.9460    1.6240   71.7740 N.3   107  MET107     -0.1245
    137  CA       -23.9900    1.9170   72.7500 C.3   107  MET107      0.1570
    138  C        -23.4440    2.7420   73.9100 C.2   107  MET107      0.2261
    139  O        -24.0510    3.7420   74.3130 O.2   107  MET107     -0.2867
    140  CB       -24.6080    0.6110   73.2550 C.3   107  MET107      0.0387
    141  CG       -25.3600   -0.1430   72.1520 C.3   107  MET107      0.0595
    142  SD       -25.9150   -1.8010   72.5970 S.3   107  MET107     -0.1393
    143  CE       -27.5410   -1.4400   73.2140 C.3   107  MET107      0.0692
@<TRIPOS>BOND
     1   126   125   ar
     2   127   125   ar
     3   125   124    1
     4   124   121    1
     5   120   121    1
     6   121   122    1
     7   122   123    2
     8   122   128   am
     9   128   129    1
    10   136   137    1
    11   141   142    1
    12   141   140    1
    13   142   143    1
    14   137   140    1
    15   137   138    1
    16   129   130    1
    17   129   132    1
    18   130   131    2
    19   114   115    2
    20   114   113    1
    21   134   132    1
    22   132   133    1
    23    12    14   ar
    24    12    10   ar
    25   138   139    2
    26   116   113    1
    27   116   117    1
    28   113   112    1
    29     9    10   ar
    30     9     7   ar
    31    14    13   ar
    32   118   117    2
    33    10     8   ar
    34   117   119   am
    35   133   135    1
    36     7     6   ar
    37   112   102   am
    38   103   102    2
    39    13    11   ar
    40     8     6   ar
    41     8    11   ar
    42    81    79    1
    43   102   101    1
    44    20    21    1
    45    20    19    1
    46     6     5    1
    47    97    96    2
    48    99    98    1
    49    69    68    2
    50    21    15    1
    51   109   107   ar
    52   109   110   ar
    53   111   110    1
    54    73    71    1
    55   107   105   ar
    56    31    32   ar
    57    31    29   ar
    58    79    80    1
    59    79    78    1
    60   110   108   ar
    61    96    95    1
    62    32    30   ar
    63    19    16    1
    64   101   100    1
    65   101   104    1
    66     5     2    1
    67    68    67    1
    68     1     2    1
    69   105   104    1
    70   105   106   ar
    71    98    95    1
    72    67    70    1
    73    67    66    1
    74   108   106   ar
    75    15    16    1
    76    15     3   am
    77    70    71    1
    78    60    59    2
    79    71    72    1
    80    29    27   ar
    81    95    94    1
    82    65    64    1
    83    78    75    1
    84     2     3    1
    85    16    17    1
    86    30    28   ar
    87    64    63    1
    88    75    74    1
    89    75    76    1
    90     3     4    2
    91    66    59   am
    92    59    58    1
    93    27    28   ar
    94    27    26    1
    95    62    63    1
    96    62    61    1
    97    17    22   am
    98    17    18    2
    99    76    77    2
   100    22    23    1
   101    58    61    1
   102    58    57    1
   103    88    90   ar
   104    88    87   ar
   105    26    23    1
   106    90    92   ar
   107    82    83    1
   108    23    24    1
   109    86    83    1
   110    86    87    1
   111    83    84    1
   112    52    51    2
   113    87    89   ar
   114    47    46    1
   115    48    46    1
   116    41    39   am
   117    92    93    1
   118    92    91   ar
   119    24    25    2
   120    51    50    1
   121    46    43    1
   122    84    85    2
   123    89    91   ar
   124    39    40    2
   125    39    38    1
   126    49    50    1
   127    49    44   am
   128    43    44    1
   129    43    42    1
   130    53    50    1
   131    53    54    1
   132    44    45    2
   133    54    55   ar
   134    54    56   ar
   135    38    37    1
   136    36    35    2
   137    33    34    1
   138    35    34    1
   139    37    34    1
