@<TRIPOS>MOLECULE
tmp/5yovA00.pdb
 142 137 0 0 0
SMALL
GASTEIGER

@<TRIPOS>ATOM
      1  N        -30.0380   -0.3850   79.5980 N.3    40  TRP40      -0.1228
      2  CA       -30.3860   -1.6800   80.1830 C.3    40  TRP40       0.1722
      3  C        -29.2150   -2.5740   80.6130 C.2    40  TRP40       0.2437
      4  O        -29.3210   -3.2570   81.6360 O.2    40  TRP40      -0.2733
      5  CB       -31.4030   -2.4440   79.3070 C.3    40  TRP40       0.0563
      6  CG       -30.9460   -2.7160   77.9160 C.ar   40  TRP40       0.0003
      7  CD1      -31.2120   -1.9680   76.8090 C.ar   40  TRP40       0.0946
      8  CD2      -30.1400   -3.8110   77.4800 C.ar   40  TRP40       0.0152
      9  NE1      -30.6160   -2.5330   75.7020 N.ar   40  TRP40      -0.2442
     10  CE2      -29.9510   -3.6660   76.0910 C.ar   40  TRP40       0.0810
     11  CE3      -29.5540   -4.9010   78.1300 C.ar   40  TRP40       0.0012
     12  CZ2      -29.2040   -4.5600   75.3440 C.ar   40  TRP40       0.0191
     13  CZ3      -28.8040   -5.7800   77.3940 C.ar   40  TRP40       0.0001
     14  CH2      -28.6330   -5.6110   76.0110 C.ar   40  TRP40       0.0015
     15  N        -28.0950   -2.5840   79.8610 N.am   41  PRO41      -0.2718
     16  CA       -26.9950   -3.4520   80.3100 C.3    41  PRO41       0.1535
     17  C        -26.3270   -2.9380   81.5840 C.2    41  PRO41       0.2598
     18  O        -25.5920   -3.6940   82.2170 O.2    41  PRO41      -0.2715
     19  CB       -25.9870   -3.3940   79.1590 C.3    41  PRO41       0.0310
     20  CG       -26.7600   -2.8590   77.9750 C.3    41  PRO41       0.0237
     21  CD       -27.7930   -1.9310   78.5710 C.3    41  PRO41       0.0939
     22  N        -26.5770   -1.6820   81.9460 N.am   42  PHE42      -0.1974
     23  CA       -25.8620   -1.0420   83.0370 C.3    42  PHE42       0.1639
     24  C        -26.7390   -0.8420   84.2710 C.2    42  PHE42       0.2290
     25  O        -26.3190   -0.1950   85.2390 O.2    42  PHE42      -0.2864
     26  CB       -25.2970    0.2930   82.5260 C.3    42  PHE42       0.0560
     27  CG       -24.4510    0.1380   81.2980 C.ar   42  PHE42      -0.0200
     28  CD1      -23.1200   -0.2280   81.4110 C.ar   42  PHE42      -0.0042
     29  CD2      -24.9900    0.3260   80.0280 C.ar   42  PHE42      -0.0042
     30  CE1      -22.3350   -0.4160   80.2950 C.ar   42  PHE42      -0.0003
     31  CE2      -24.2030    0.1550   78.9060 C.ar   42  PHE42      -0.0003
     32  CZ       -22.8690   -0.2180   79.0370 C.ar   42  PHE42      -0.0000
     33  N        -27.8130   -3.1130   86.3930 N.3    44  GLN44      -0.1245
     34  CA       -27.5750   -4.0940   87.4540 C.3    44  GLN44       0.1566
     35  C        -26.1610   -4.6250   87.3410 C.2    44  GLN44       0.2260
     36  O        -25.5230   -4.4930   86.3040 O.2    44  GLN44      -0.2867
     37  CB       -28.5680   -5.2620   87.3740 C.3    44  GLN44       0.0367
     38  CG       -28.5100   -6.0210   86.0590 C.3    44  GLN44       0.0905
     39  CD       -29.1230   -5.2420   84.9110 C.2    44  GLN44       0.2608
     40  OE1      -30.2430   -4.7310   85.0310 O.2    44  GLN44      -0.2717
     41  NE2      -28.3880   -5.1230   83.8020 N.am   44  GLN44      -0.0878
     42  N        -23.1290   -6.9870   86.5760 N.3    46  VAL46      -0.1245
     43  CA       -22.9610   -8.0260   85.5710 C.3    46  VAL46       0.1561
     44  C        -23.0930   -9.4050   86.2140 C.2    46  VAL46       0.2260
     45  O        -22.3880   -9.7110   87.1660 O.2    46  VAL46      -0.2867
     46  CB       -21.5950   -7.9130   84.8880 C.3    46  VAL46       0.0252
     47  CG1      -21.3390   -9.1310   83.9940 C.3    46  VAL46       0.0019
     48  CG2      -21.4990   -6.6190   84.0960 C.3    46  VAL46       0.0019
     49  N        -25.0560  -14.3410   81.9820 N.3    51  LEU51      -0.1245
     50  CA       -24.5790  -13.8530   80.6860 C.3    51  LEU51       0.1561
     51  C        -23.5030  -14.7280   80.0620 C.2    51  LEU51       0.2260
     52  O        -23.0180  -14.4310   78.9680 O.2    51  LEU51      -0.2867
     53  CB       -24.0430  -12.4300   80.8270 C.3    51  LEU51       0.0270
     54  CG       -25.0170  -11.5240   81.5690 C.3    51  LEU51       0.0019
     55  CD1      -24.6660  -10.0430   81.4070 C.3    51  LEU51       0.0001
     56  CD2      -26.4510  -11.8460   81.1450 C.3    51  LEU51       0.0001
     57  N        -20.3130  -15.2880   80.9920 N.3    53  LEU53      -0.1245
     58  CA       -19.0450  -14.5780   80.8850 C.3    53  LEU53       0.1561
     59  C        -18.2580  -14.9670   82.1160 C.2    53  LEU53       0.2260
     60  O        -17.9630  -14.1320   82.9670 O.2    53  LEU53      -0.2867
     61  CB       -19.2940  -13.0730   80.8510 C.3    53  LEU53       0.0270
     62  CG       -20.1740  -12.6020   79.6850 C.3    53  LEU53       0.0019
     63  CD1      -20.9860  -11.3710   80.0500 C.3    53  LEU53       0.0001
     64  CD2      -19.3270  -12.3430   78.4450 C.3    53  LEU53       0.0001
     65  N        -15.5900  -12.4350   83.4140 N.3    56  TYR56      -0.1241
     66  CA       -15.8420  -11.0100   83.6960 C.3    56  TYR56       0.1605
     67  C        -15.0830  -10.4510   84.8890 C.2    56  TYR56       0.2264
     68  O        -14.3620   -9.5530   84.7120 O.2    56  TYR56      -0.2867
     69  CB       -17.3410  -10.6140   83.7390 C.3    56  TYR56       0.0534
     70  CG       -17.5230   -9.1280   83.8520 C.ar   56  TYR56      -0.0201
     71  CD1      -17.4680   -8.3380   82.7580 C.ar   56  TYR56      -0.0009
     72  CD2      -17.7430   -8.5400   85.0540 C.ar   56  TYR56      -0.0009
     73  CE1      -17.6070   -6.9980   82.8440 C.ar   56  TYR56       0.0417
     74  CE2      -17.8540   -7.1770   85.1600 C.ar   56  TYR56       0.0417
     75  CZ       -17.8310   -6.4170   84.0520 C.ar   56  TYR56       0.1957
     76  OH       -17.9390   -5.0670   84.1670 O.3    56  TYR56      -0.2866
     77  N        -17.8010    2.6090   85.9890 N.3    91  MET91      -0.1245
     78  CA       -18.7280    1.7980   85.2100 C.3    91  MET91       0.1570
     79  C        -18.4240    1.8830   83.7120 C.2    91  MET91       0.2261
     80  O        -18.3460    0.8680   83.0200 O.2    91  MET91      -0.2867
     81  CB       -20.1590    2.2650   85.4570 C.3    91  MET91       0.0387
     82  CG       -21.1940    1.5360   84.6360 C.3    91  MET91       0.0595
     83  SD       -22.8480    2.1210   84.9520 S.3    91  MET91      -0.1393
     84  CE       -22.8480    3.6320   83.9870 C.3    91  MET91       0.0692
     85  N        -16.4110   -1.0600   81.1200 N.3    95  CYS95      -0.1235
     86  CA       -16.9770   -1.5410   79.8840 C.3    95  CYS95       0.1677
     87  C        -15.9380   -1.4860   78.7610 C.2    95  CYS95       0.2270
     88  O        -15.8150   -2.4280   77.9670 O.2    95  CYS95      -0.2867
     89  CB       -18.2190   -0.7190   79.5370 C.3    95  CYS95       0.0956
     90  SG       -19.0290   -1.2970   78.0340 S.3    95  CYS95      -0.0801
     91  N        -13.2520   -4.2920   79.4510 N.3    98  TYR98      -0.1227
     92  CA       -13.6600   -5.6640   79.2690 C.3    98  TYR98       0.1736
     93  C        -13.8810   -5.9980   77.8180 C.2    98  TYR98       0.2595
     94  O        -13.7490   -7.1150   77.4580 O.2    98  TYR98      -0.2718
     95  CB       -14.8860   -6.0600   80.0770 C.3    98  TYR98       0.0548
     96  CG       -15.2820   -7.5030   79.8590 C.ar   98  TYR98      -0.0200
     97  CD1      -14.5240   -8.5270   80.3660 C.ar   98  TYR98      -0.0009
     98  CD2      -16.3790   -7.8330   79.1300 C.ar   98  TYR98      -0.0009
     99  CE1      -14.8470   -9.8280   80.1520 C.ar   98  TYR98       0.0417
    100  CE2      -16.7110   -9.1420   78.9030 C.ar   98  TYR98       0.0417
    101  CZ       -15.9460  -10.1360   79.4270 C.ar   98  TYR98       0.1957
    102  OH       -16.2590  -11.4390   79.2370 O.3    98  TYR98      -0.2866
    103  N        -14.2360   -5.0080   77.0450 N.am   99  ASN99      -0.1974
    104  CA       -14.6340   -5.2670   75.6770 C.3    99  ASN99       0.1688
    105  C        -13.5800   -4.7630   74.7070 C.2    99  ASN99       0.2292
    106  O        -12.3890   -4.8190   75.0190 O.2    99  ASN99      -0.2864
    107  CB       -16.0190   -4.6770   75.4270 C.3    99  ASN99       0.1181
    108  CG       -17.0690   -5.3140   76.3180 C.2    99  ASN99       0.2629
    109  OD1      -17.4830   -6.4470   76.0800 O.2    99  ASN99      -0.2716
    110  ND2      -17.4650   -4.6090   77.3880 N.am   99  ASN99      -0.0877
    111  N        -17.4470   -2.5950   69.6030 N.3   103  ASP103     -0.1225
    112  CA       -18.4310   -3.5850   70.0420 C.3   103  ASP103      0.1805
    113  C        -19.7480   -2.8820   70.3500 C.2   103  ASP103      0.2598
    114  O        -19.7460   -1.7220   70.7870 O.2   103  ASP103     -0.2718
    115  CB       -17.9750   -4.2910   71.3220 C.3   103  ASP103      0.1424
    116  CG       -16.8500   -5.2820   71.1000 C.2   103  ASP103      0.3668
    117  OD1      -16.4720   -5.5470   69.9350 O.co2 103  ASP103     -0.2456
    118  OD2      -16.3530   -5.8220   72.1130 O.co2 103  ASP103     -0.2456
    119  N        -20.8660   -3.5730   70.1440 N.am  104  ASP104     -0.1960
    120  CA       -22.1760   -2.9910   70.4270 C.3   104  ASP104      0.1840
    121  C        -22.2630   -2.4530   71.8540 C.2   104  ASP104      0.2621
    122  O        -22.7650   -1.3470   72.0710 O.2   104  ASP104     -0.2715
    123  CB       -23.2990   -4.0030   70.1740 C.3   104  ASP104      0.1450
    124  CG       -23.7260   -4.0700   68.7030 C.2   104  ASP104      0.3671
    125  OD1      -23.2720   -3.2500   67.8780 O.co2 104  ASP104     -0.2456
    126  OD2      -24.5500   -4.9430   68.3780 O.co2 104  ASP104     -0.2456
    127  N        -21.7700   -3.2150   72.8260 N.am  105  ILE105     -0.1977
    128  CA       -21.8580   -2.7720   74.2180 C.3   105  ILE105      0.1596
    129  C        -21.0320   -1.5140   74.4410 C.2   105  ILE105      0.2287
    130  O        -21.4020   -0.6430   75.2390 O.2   105  ILE105     -0.2864
    131  CB       -21.4280   -3.8900   75.1970 C.3   105  ILE105      0.0276
    132  CG1      -21.7700   -3.5120   76.6460 C.3   105  ILE105      0.0022
    133  CG2      -19.9350   -4.1960   75.0640 C.3   105  ILE105      0.0022
    134  CD1      -23.2490   -3.3940   76.9230 C.3   105  ILE105      0.0001
    135  N        -22.7930    1.5170   73.1940 N.3   108  MET108     -0.1245
    136  CA       -23.7940    1.8630   74.1910 C.3   108  MET108      0.1570
    137  C        -23.1490    2.6910   75.2890 C.2   108  MET108      0.2261
    138  O        -23.6290    3.7830   75.6240 O.2   108  MET108     -0.2867
    139  CB       -24.4580    0.6020   74.7510 C.3   108  MET108      0.0387
    140  CG       -25.2120   -0.1610   73.6920 C.3   108  MET108      0.0595
    141  SD       -25.8460   -1.7260   74.2790 S.3   108  MET108     -0.1393
    142  CE       -27.4150   -1.1920   74.8900 C.3   108  MET108      0.0692
@<TRIPOS>BOND
     1   125   124   ar
     2   126   124   ar
     3   124   123    1
     4   111   112    1
     5   117   116   ar
     6   112   113    1
     7   112   115    1
     8   119   113   am
     9   119   120    1
    10   123   120    1
    11   113   114    2
    12   120   121    1
    13   116   115    1
    14   116   118   ar
    15   121   122    2
    16   121   127   am
    17   127   128    1
    18   135   136    1
    19   140   141    1
    20   140   139    1
    21   136   139    1
    22   136   137    1
    23   128   129    1
    24   128   131    1
    25   141   142    1
    26   129   130    2
    27   105   106    2
    28   105   104    1
    29   133   131    1
    30   131   132    1
    31   137   138    2
    32    12    14   ar
    33    12    10   ar
    34   107   104    1
    35   107   108    1
    36   104   103    1
    37     9    10   ar
    38     9     7   ar
    39    14    13   ar
    40   109   108    2
    41    10     8   ar
    42   108   110   am
    43   132   134    1
    44     7     6   ar
    45   103    93   am
    46    13    11   ar
    47    94    93    2
    48     8     6   ar
    49     8    11   ar
    50    93    92    1
    51     6     5    1
    52    88    87    2
    53    20    21    1
    54    20    19    1
    55    90    89    1
    56    64    62    1
    57    21    15    1
    58    87    86    1
    59   100    98   ar
    60   100   101   ar
    61    31    32   ar
    62    31    29   ar
    63    52    51    2
    64    32    30   ar
    65    98    96   ar
    66    19    16    1
    67   102   101    1
    68    92    91    1
    69    92    95    1
    70     5     2    1
    71   101    99   ar
    72    89    86    1
    73     1     2    1
    74    62    63    1
    75    62    61    1
    76    96    95    1
    77    96    97   ar
    78    15    16    1
    79    15     3   am
    80    86    85    1
    81    29    27   ar
    82    51    50    1
    83    99    97   ar
    84     2     3    1
    85    30    28   ar
    86    16    17    1
    87     3     4    2
    88    50    53    1
    89    50    49    1
    90    53    54    1
    91    61    58    1
    92    58    57    1
    93    58    59    1
    94    56    54    1
    95    27    28   ar
    96    27    26    1
    97    55    54    1
    98    17    22   am
    99    17    18    2
   100    22    23    1
   101    59    60    2
   102    26    23    1
   103    71    73   ar
   104    71    70   ar
   105    73    75   ar
   106    80    79    2
   107    23    24    1
   108    65    66    1
   109    66    69    1
   110    66    67    1
   111    79    78    1
   112    69    70    1
   113    41    39   am
   114    70    72   ar
   115    84    83    1
   116    47    46    1
   117    75    76    1
   118    75    74   ar
   119    48    46    1
   120    24    25    2
   121    82    83    1
   122    82    81    1
   123    68    67    2
   124    46    43    1
   125    39    40    2
   126    39    38    1
   127    72    74   ar
   128    78    81    1
   129    78    77    1
   130    43    44    1
   131    43    42    1
   132    38    37    1
   133    44    45    2
   134    36    35    2
   135    33    34    1
   136    35    34    1
   137    37    34    1
