@<TRIPOS>MOLECULE
tmp/5ypiF00.pdb
 132 127 0 0 0
SMALL
GASTEIGER

@<TRIPOS>ATOM
      1  N        -41.1030  -55.5850  -75.1670 N.3    23  LEU23      -0.1245
      2  CA       -41.1150  -55.3440  -76.6000 C.3    23  LEU23       0.1561
      3  C        -39.6900  -55.4330  -77.1230 C.2    23  LEU23       0.2260
      4  O        -38.7880  -54.7680  -76.6120 O.2    23  LEU23      -0.2867
      5  CB       -41.7120  -53.9750  -76.9280 C.3    23  LEU23       0.0270
      6  CG       -41.9270  -53.7050  -78.4190 C.3    23  LEU23       0.0019
      7  CD1      -43.0240  -54.6020  -78.9690 C.3    23  LEU23       0.0001
      8  CD2      -42.2530  -52.2510  -78.6650 C.3    23  LEU23       0.0001
      9  N        -37.0690  -54.3620  -79.4810 N.3    25  MET25      -0.1245
     10  CA       -36.7210  -53.2690  -80.3710 C.3    25  MET25       0.1570
     11  C        -35.4430  -53.4980  -81.1410 C.2    25  MET25       0.2261
     12  O        -34.3660  -53.5210  -80.5460 O.2    25  MET25      -0.2867
     13  CB       -36.5270  -52.0050  -79.5820 C.3    25  MET25       0.0387
     14  CG       -37.7330  -51.4240  -78.9720 C.3    25  MET25       0.0595
     15  SD       -36.9650  -50.0330  -78.1680 S.3    25  MET25      -0.1393
     16  CE       -36.2070  -49.2660  -79.6090 C.3    25  MET25       0.0692
     17  N        -31.8250  -52.2120  -80.2310 N.3    28  PHE28      -0.1241
     18  CA       -31.8100  -51.7100  -78.8620 C.3    28  PHE28       0.1605
     19  C        -32.1730  -52.7960  -77.8500 C.2    28  PHE28       0.2264
     20  O        -31.9090  -52.6580  -76.6550 O.2    28  PHE28      -0.2867
     21  CB       -32.7610  -50.5080  -78.7510 C.3    28  PHE28       0.0534
     22  CG       -32.9220  -49.9710  -77.3540 C.ar   28  PHE28      -0.0203
     23  CD1      -31.9960  -49.0900  -76.8170 C.ar   28  PHE28      -0.0042
     24  CD2      -34.0280  -50.3100  -76.5960 C.ar   28  PHE28      -0.0042
     25  CE1      -32.1560  -48.5880  -75.5350 C.ar   28  PHE28      -0.0003
     26  CE2      -34.1930  -49.8080  -75.3190 C.ar   28  PHE28      -0.0003
     27  CZ       -33.2590  -48.9480  -74.7880 C.ar   28  PHE28      -0.0000
     28  N        -37.3140  -54.2280  -74.1660 N.3    31  VAL31      -0.1245
     29  CA       -37.5890  -53.2480  -73.1210 C.3    31  VAL31       0.1561
     30  C        -38.7890  -53.6830  -72.2870 C.2    31  VAL31       0.2260
     31  O        -39.8480  -53.9970  -72.8300 O.2    31  VAL31      -0.2867
     32  CB       -37.8640  -51.8520  -73.7100 C.3    31  VAL31       0.0252
     33  CG1      -37.9950  -50.8270  -72.5940 C.3    31  VAL31       0.0019
     34  CG2      -36.7500  -51.4540  -74.6550 C.3    31  VAL31       0.0019
     35  N        -47.6700  -53.4950  -73.8420 N.3    51  TRP51      -0.1241
     36  CA       -47.2630  -52.9200  -75.1190 C.3    51  TRP51       0.1605
     37  C        -48.3040  -53.1340  -76.2210 C.2    51  TRP51       0.2264
     38  O        -48.4720  -52.2910  -77.1050 O.2    51  TRP51      -0.2867
     39  CB       -45.9270  -53.5180  -75.5690 C.3    51  TRP51       0.0550
     40  CG       -44.7610  -53.1650  -74.6970 C.ar   51  TRP51       0.0003
     41  CD1      -44.2720  -53.8870  -73.6480 C.ar   51  TRP51       0.0946
     42  CD2      -43.9200  -52.0100  -74.8170 C.ar   51  TRP51       0.0152
     43  NE1      -43.1880  -53.2460  -73.0990 N.ar   51  TRP51      -0.2442
     44  CE2      -42.9490  -52.0940  -73.8010 C.ar   51  TRP51       0.0810
     45  CE3      -43.8950  -50.9130  -75.6850 C.ar   51  TRP51       0.0012
     46  CZ2      -41.9660  -51.1250  -73.6270 C.ar   51  TRP51       0.0191
     47  CZ3      -42.9170  -49.9500  -75.5110 C.ar   51  TRP51       0.0001
     48  CH2      -41.9660  -50.0630  -74.4890 C.ar   51  TRP51       0.0015
     49  N        -50.3400  -42.1460  -69.6910 N.3    78  HIS78      -0.1241
     50  CA       -50.1220  -41.2120  -70.7950 C.3    78  HIS78       0.1621
     51  C        -50.2150  -41.9050  -72.1520 C.2    78  HIS78       0.2264
     52  O        -50.3040  -43.1320  -72.2300 O.2    78  HIS78      -0.2867
     53  CB       -48.7690  -40.5050  -70.6430 C.3    78  HIS78       0.0745
     54  CG       -47.5850  -41.3780  -70.9200 C.ar   78  HIS78       0.0817
     55  ND1      -47.1020  -42.2890  -70.0060 N.ar   78  HIS78      -0.2268
     56  CD2      -46.7650  -41.4520  -71.9950 C.ar   78  HIS78       0.1154
     57  CE1      -46.0460  -42.9010  -70.5140 C.ar   78  HIS78       0.1986
     58  NE2      -45.8210  -42.4110  -71.7180 N.ar   78  HIS78      -0.2212
     59  N        -48.5820  -43.1170  -74.7320 N.3    80  HIS80      -0.1226
     60  CA       -47.4920  -43.8120  -75.4180 C.3    80  HIS80       0.1752
     61  C        -47.8020  -45.3020  -75.4500 C.2    80  HIS80       0.2596
     62  O        -48.6520  -45.7710  -74.6960 O.2    80  HIS80      -0.2718
     63  CB       -46.1480  -43.5520  -74.7340 C.3    80  HIS80       0.0759
     64  CG       -45.4960  -42.2730  -75.1530 C.ar   80  HIS80       0.0818
     65  ND1      -44.5090  -41.6600  -74.4080 N.ar   80  HIS80      -0.2268
     66  CD2      -45.6810  -41.4910  -76.2440 C.ar   80  HIS80       0.1154
     67  CE1      -44.1220  -40.5550  -75.0180 C.ar   80  HIS80       0.1986
     68  NE2      -44.8190  -40.4280  -76.1350 N.ar   80  HIS80      -0.2212
     69  N        -47.1230  -46.0420  -76.3230 N.am   81  GLN81      -0.1965
     70  CA       -47.4770  -47.4400  -76.5510 C.3    81  GLN81       0.1733
     71  C        -47.3540  -48.3250  -75.3120 C.2    81  GLN81       0.2616
     72  O        -48.1710  -49.2170  -75.1040 O.2    81  GLN81      -0.2715
     73  CB       -46.6290  -48.0450  -77.6720 C.3    81  GLN81       0.0408
     74  CG       -47.0620  -49.4670  -78.0130 C.3    81  GLN81       0.0908
     75  CD       -46.1830  -50.1390  -79.0480 C.2    81  GLN81       0.2608
     76  OE1      -45.3060  -49.5140  -79.6440 O.2    81  GLN81      -0.2717
     77  NE2      -46.4080  -51.4320  -79.2560 N.am   81  GLN81      -0.0878
     78  N        -46.3450  -48.0880  -74.4850 N.am   82  ASP82      -0.1971
     79  CA       -46.1230  -48.9810  -73.3510 C.3    82  ASP82       0.1709
     80  C        -47.2220  -48.8220  -72.3040 C.2    82  ASP82       0.2293
     81  O        -47.4100  -49.6990  -71.4640 O.2    82  ASP82      -0.2864
     82  CB       -44.7380  -48.7490  -72.7250 C.3    82  ASP82       0.1436
     83  CG       -44.5430  -47.3270  -72.2280 C.2    82  ASP82       0.3671
     84  OD1      -45.3440  -46.4440  -72.5920 O.co2  82  ASP82      -0.2456
     85  OD2      -43.5760  -47.0920  -71.4740 O.co2  82  ASP82      -0.2456
     86  N        -42.1820  -36.1970  -68.3800 N.3   147  HIS147     -0.1241
     87  CA       -41.9500  -37.1790  -69.4330 C.3   147  HIS147      0.1621
     88  C        -42.7770  -36.8330  -70.6740 C.2   147  HIS147      0.2264
     89  O        -42.2770  -36.8490  -71.8010 O.2   147  HIS147     -0.2867
     90  CB       -42.2950  -38.5800  -68.9330 C.3   147  HIS147      0.0745
     91  CG       -42.3200  -39.6140  -70.0100 C.ar  147  HIS147      0.0817
     92  ND1      -41.1800  -40.0470  -70.6540 N.ar  147  HIS147     -0.2268
     93  CD2      -43.3500  -40.2910  -70.5700 C.ar  147  HIS147      0.1154
     94  CE1      -41.5070  -40.9500  -71.5590 C.ar  147  HIS147      0.1986
     95  NE2      -42.8180  -41.1150  -71.5290 N.ar  147  HIS147     -0.2212
     96  N        -43.7070  -43.4350  -66.4810 N.3   166  CYS166     -0.1235
     97  CA       -42.4640  -43.1530  -67.1950 C.3   166  CYS166      0.1677
     98  C        -41.8180  -41.8420  -66.7540 C.2   166  CYS166      0.2270
     99  O        -40.7180  -41.5040  -67.1920 O.2   166  CYS166     -0.2867
    100  CB       -42.7130  -43.1430  -68.7040 C.3   166  CYS166      0.0956
    101  SG       -43.4350  -44.6810  -69.3190 S.3   166  CYS166     -0.0801
    102  N        -37.6030  -42.4450  -63.0470 N.3   169  LYS169     -0.1245
    103  CA       -36.5840  -43.4510  -63.3380 C.3   169  LYS169      0.1561
    104  C        -35.9640  -43.9280  -62.0220 C.2   169  LYS169      0.2260
    105  O        -36.0790  -43.2420  -61.0090 O.2   169  LYS169     -0.2867
    106  CB       -35.5120  -42.8900  -64.2670 C.3   169  LYS169      0.0271
    107  CG       -35.7230  -43.2150  -65.7370 C.3   169  LYS169      0.0035
    108  CD       -36.9920  -42.5630  -66.2690 C.3   169  LYS169      0.0206
    109  CE       -37.2830  -43.0070  -67.6950 C.3   169  LYS169      0.1093
    110  NZ       -38.4140  -42.2440  -68.2920 N.3   169  LYS169     -0.1314
    111  N        -34.2840  -41.5990  -70.1390 N.3   177  GLY177     -0.1210
    112  CA       -34.8690  -42.3560  -71.2280 C.3   177  GLY177      0.1956
    113  C        -35.3630  -41.4760  -72.3590 C.2   177  GLY177      0.2611
    114  O        -34.6760  -40.5410  -72.7740 O.2   177  GLY177     -0.2717
    115  N        -36.5560  -41.7830  -72.8610 N.am  178  ASN178     -0.1974
    116  CA       -37.1380  -41.0570  -73.9870 C.3   178  ASN178      0.1688
    117  C        -37.6630  -39.6780  -73.6070 C.2   178  ASN178      0.2292
    118  O        -38.6730  -39.5590  -72.9160 O.2   178  ASN178     -0.2864
    119  CB       -38.2690  -41.8760  -74.6100 C.3   178  ASN178      0.1181
    120  CG       -38.9070  -41.1810  -75.7980 C.2   178  ASN178      0.2629
    121  OD1      -38.2390  -40.4710  -76.5520 O.2   178  ASN178     -0.2716
    122  ND2      -40.2110  -41.3720  -75.9630 N.am  178  ASN178     -0.0877
    123  N        -40.0700  -48.8240  -66.0750 N.3   208  HIS208     -0.1241
    124  CA       -38.9540  -49.5620  -66.6550 C.3   208  HIS208      0.1621
    125  C        -37.8990  -50.0100  -65.6510 C.2   208  HIS208      0.2264
    126  O        -36.7470  -50.2480  -66.0160 O.2   208  HIS208     -0.2867
    127  CB       -38.3080  -48.7110  -67.7420 C.3   208  HIS208      0.0745
    128  CG       -39.2950  -48.1330  -68.7050 C.ar  208  HIS208      0.0817
    129  ND1      -39.9740  -48.9030  -69.6240 N.ar  208  HIS208     -0.2268
    130  CD2      -39.7430  -46.8670  -68.8690 C.ar  208  HIS208      0.1154
    131  CE1      -40.7840  -48.1320  -70.3280 C.ar  208  HIS208      0.1986
    132  NE2      -40.6630  -46.8930  -69.8880 N.ar  208  HIS208     -0.2212
@<TRIPOS>BOND
     1    11    12    2
     2    11    10    1
     3    10    13    1
     4    10     9    1
     5    17    18    1
     6    76    75    2
     7    16    15    1
     8    13    14    1
     9    77    75   am
    10    75    74    1
    11    14    15    1
    12     7     6    1
    13    18    21    1
    14    18    19    1
    15    21    22    1
    16     8     6    1
    17     6     5    1
    18    74    73    1
    19    19    20    2
    20    73    70    1
    21    22    23   ar
    22    22    24   ar
    23     3     4    2
    24     3     2    1
    25    38    37    2
    26     5     2    1
    27    23    25   ar
    28     2     1    1
    29    24    26   ar
    30   121   120    2
    31    70    69    1
    32    70    71    1
    33    69    61   am
    34    66    68   ar
    35    66    64   ar
    36    37    36    1
    37    68    67   ar
    38   122   120   am
    39   120   119    1
    40    45    47   ar
    41    45    42   ar
    42    39    36    1
    43    39    40    1
    44    25    27   ar
    45    47    48   ar
    46    61    60    1
    47    61    62    2
    48    60    63    1
    49    60    59    1
    50    26    27   ar
    51    71    72    2
    52    71    78   am
    53    64    63    1
    54    64    65   ar
    55    36    35    1
    56    67    65   ar
    57    42    40   ar
    58    42    44   ar
    59    40    41   ar
    60    34    32    1
    61   119   116    1
    62    48    46   ar
    63    78    79    1
    64    28    29    1
    65   116   117    1
    66   116   115    1
    67    44    46   ar
    68    44    43   ar
    69    32    29    1
    70    32    33    1
    71    41    43   ar
    72   117   118    2
    73    79    82    1
    74    79    80    1
    75    29    30    1
    76   115   113   am
    77    31    30    2
    78   114   113    2
    79    82    83    1
    80    84    83   ar
    81   113   112    1
    82    80    81    2
    83    52    51    2
    84    83    85   ar
    85    51    50    1
    86    56    58   ar
    87    56    54   ar
    88    89    88    2
    89    58    57   ar
    90    94    95   ar
    91    94    92   ar
    92    95    93   ar
    93   112   111    1
    94    54    53    1
    95    54    55   ar
    96    50    53    1
    97    50    49    1
    98    88    87    1
    99    92    91   ar
   100    93    91   ar
   101    57    55   ar
   102   131   132   ar
   103   131   129   ar
   104    91    90    1
   105   132   130   ar
   106   129   128   ar
   107    87    90    1
   108    87    86    1
   109   101   100    1
   110   130   128   ar
   111   128   127    1
   112   100    97    1
   113   110   109    1
   114   127   124    1
   115   109   108    1
   116    97    98    1
   117    97    96    1
   118    99    98    2
   119   124   123    1
   120   124   125    1
   121   108   107    1
   122   126   125    2
   123   107   106    1
   124   106   103    1
   125   103   102    1
   126   103   104    1
   127   104   105    2
