@<TRIPOS>MOLECULE
tmp/5ypmF00.pdb
 139 134 0 0 0
SMALL
GASTEIGER

@<TRIPOS>ATOM
      1  N         31.6560   24.1910 -116.3730 N.3    25  MET25      -0.1245
      2  CA        31.7780   23.2440 -115.2650 C.3    25  MET25       0.1570
      3  C         33.1490   23.3690 -114.6080 C.2    25  MET25       0.2261
      4  O         34.1490   23.5570 -115.3020 O.2    25  MET25      -0.2867
      5  CB        31.5420   21.8120 -115.7530 C.3    25  MET25       0.0387
      6  CG        30.1410   21.5680 -116.2960 C.3    25  MET25       0.0595
      7  SD        29.8770   19.8680 -116.8370 S.3    25  MET25      -0.1393
      8  CE        30.1630   20.0300 -118.5990 C.3    25  MET25       0.0692
      9  N         36.8140   22.6750 -116.2210 N.3    28  PHE28      -0.1241
     10  CA        36.7890   22.3320 -117.6430 C.3    28  PHE28       0.1605
     11  C         36.5370   23.5070 -118.5920 C.2    28  PHE28       0.2264
     12  O         36.8890   23.4440 -119.7710 O.2    28  PHE28      -0.2867
     13  CB        35.7380   21.2500 -117.8910 C.3    28  PHE28       0.0534
     14  CG        36.0310   19.9540 -117.1920 C.ar   28  PHE28      -0.0203
     15  CD1       35.6220   19.7490 -115.8850 C.ar   28  PHE28      -0.0042
     16  CD2       36.7290   18.9470 -117.8370 C.ar   28  PHE28      -0.0042
     17  CE1       35.8920   18.5570 -115.2390 C.ar   28  PHE28      -0.0003
     18  CE2       37.0050   17.7540 -117.1960 C.ar   28  PHE28      -0.0003
     19  CZ        36.5860   17.5590 -115.8960 C.ar   28  PHE28      -0.0000
     20  N         31.4850   24.2810 -122.0990 N.3    31  VAL31      -0.1245
     21  CA        31.1360   23.1760 -122.9900 C.3    31  VAL31       0.1561
     22  C         29.8530   23.4730 -123.7670 C.2    31  VAL31       0.2260
     23  O         28.8200   23.7740 -123.1730 O.2    31  VAL31      -0.2867
     24  CB        30.9660   21.8540 -122.2180 C.3    31  VAL31       0.0252
     25  CG1       30.5300   20.7440 -123.1600 C.3    31  VAL31       0.0019
     26  CG2       32.2610   21.4870 -121.5020 C.3    31  VAL31       0.0019
     27  N         21.0200   22.7170 -121.1610 N.3    51  TRP51      -0.1241
     28  CA        21.6010   22.2120 -119.9230 C.3    51  TRP51       0.1605
     29  C         20.6470   22.3800 -118.7400 C.2    51  TRP51       0.2264
     30  O         20.5450   21.5040 -117.8830 O.2    51  TRP51      -0.2867
     31  CB        22.9210   22.9200 -119.6300 C.3    51  TRP51       0.0550
     32  CG        24.0020   22.6440 -120.6350 C.ar   51  TRP51       0.0003
     33  CD1       24.2740   23.3660 -121.7600 C.ar   51  TRP51       0.0946
     34  CD2       24.9810   21.5910 -120.5850 C.ar   51  TRP51       0.0152
     35  NE1       25.3480   22.8200 -122.4220 N.ar   51  TRP51      -0.2442
     36  CE2       25.7980   21.7370 -121.7240 C.ar   51  TRP51       0.0810
     37  CE3       25.2370   20.5460 -119.6930 C.ar   51  TRP51       0.0012
     38  CZ2       26.8590   20.8680 -121.9910 C.ar   51  TRP51       0.0191
     39  CZ3       26.2900   19.6870 -119.9620 C.ar   51  TRP51       0.0001
     40  CH2       27.0880   19.8540 -121.1020 C.ar   51  TRP51       0.0015
     41  N         19.1080   11.0340 -124.7630 N.3    78  HIS78      -0.1241
     42  CA        19.4960   10.1310 -123.6710 C.3    78  HIS78       0.1621
     43  C         19.4910   10.8370 -122.3170 C.2    78  HIS78       0.2264
     44  O         19.3370   12.0540 -122.2440 O.2    78  HIS78      -0.2867
     45  CB        20.8720    9.4990 -123.9290 C.3    78  HIS78       0.0745
     46  CG        22.0200   10.4540 -123.8180 C.ar   78  HIS78       0.0817
     47  ND1       22.3460   11.3460 -124.8140 N.ar   78  HIS78      -0.2268
     48  CD2       22.9360   10.6320 -122.8350 C.ar   78  HIS78       0.1154
     49  CE1       23.4080   12.0450 -124.4450 C.ar   78  HIS78       0.1986
     50  NE2       23.7810   11.6330 -123.2490 N.ar   78  HIS78      -0.2212
     51  N         21.2240   12.2610 -119.9560 N.3    80  HIS80      -0.1226
     52  CA        22.2970   13.0780 -119.4000 C.3    80  HIS80       0.1752
     53  C         21.8690   14.5460 -119.4010 C.2    80  HIS80       0.2596
     54  O         20.9040   14.9150 -120.0730 O.2    80  HIS80      -0.2718
     55  CB        23.5930   12.8850 -120.1880 C.3    80  HIS80       0.0759
     56  CG        24.3810   11.6820 -119.7690 C.ar   80  HIS80       0.0818
     57  ND1       25.3840   11.1410 -120.5460 N.ar   80  HIS80      -0.2268
     58  CD2       24.3200   10.9200 -118.6520 C.ar   80  HIS80       0.1154
     59  CE1       25.9030   10.0960 -119.9260 C.ar   80  HIS80       0.1986
     60  NE2       25.2740    9.9390 -118.7750 N.ar   80  HIS80      -0.2212
     61  N         22.5990   15.3790 -118.6660 N.am   81  GLN81      -0.1965
     62  CA        22.1840   16.7600 -118.4270 C.3    81  GLN81       0.1733
     63  C         22.1020   17.6040 -119.6970 C.2    81  GLN81       0.2616
     64  O         21.2110   18.4370 -119.8320 O.2    81  GLN81      -0.2715
     65  CB        23.1310   17.4390 -117.4310 C.3    81  GLN81       0.0408
     66  CG        22.6560   18.8190 -116.9850 C.3    81  GLN81       0.0908
     67  CD        23.6590   19.5410 -116.1040 C.2    81  GLN81       0.2608
     68  OE1       24.6810   18.9780 -115.7130 O.2    81  GLN81      -0.2717
     69  NE2       23.3650   20.7960 -115.7810 N.am   81  GLN81      -0.0878
     70  N         23.0300   17.4060 -120.6260 N.am   82  ASP82      -0.1971
     71  CA        23.0520   18.2580 -121.8090 C.3    82  ASP82       0.1709
     72  C         21.8610   17.9750 -122.7230 C.2    82  ASP82       0.2293
     73  O         21.5380   18.7870 -123.5860 O.2    82  ASP82      -0.2864
     74  CB        24.3680   18.1000 -122.5800 C.3    82  ASP82       0.1436
     75  CG        24.6270   16.6760 -123.0250 C.2    82  ASP82       0.3671
     76  OD1       23.9410   15.7500 -122.5400 O.co2  82  ASP82      -0.2456
     77  OD2       25.5380   16.4860 -123.8590 O.co2  82  ASP82      -0.2456
     78  N         27.4640    5.8540 -126.9470 N.3   147  HIS147     -0.1241
     79  CA        27.7770    6.8680 -125.9480 C.3   147  HIS147      0.1621
     80  C         27.1480    6.4900 -124.6070 C.2   147  HIS147      0.2264
     81  O         27.7800    6.6070 -123.5570 O.2   147  HIS147     -0.2867
     82  CB        27.2900    8.2460 -126.3920 C.3   147  HIS147      0.0745
     83  CG        27.3770    9.2820 -125.3150 C.ar  147  HIS147      0.0817
     84  ND1       28.5730    9.8130 -124.8940 N.ar  147  HIS147     -0.2268
     85  CD2       26.4160    9.8500 -124.5500 C.ar  147  HIS147      0.1154
     86  CE1       28.3460   10.6850 -123.9230 C.ar  147  HIS147      0.1986
     87  NE2       27.0490   10.7240 -123.6970 N.ar  147  HIS147     -0.2212
     88  N         25.1100   12.8250 -128.8780 N.3   166  CYS166     -0.1235
     89  CA        26.4380   12.6630 -128.2890 C.3   166  CYS166      0.1677
     90  C         27.1400   11.4050 -128.7970 C.2   166  CYS166      0.2270
     91  O         28.3050   11.1700 -128.4860 O.2   166  CYS166     -0.2867
     92  CB        26.3500   12.6250 -126.7630 C.3   166  CYS166      0.0956
     93  SG        25.6130   14.0920 -126.0300 S.3   166  CYS166     -0.0801
     94  N         30.8500   12.1470 -133.0140 N.3   169  LYS169     -0.1245
     95  CA        31.7790   13.2710 -132.9330 C.3   169  LYS169      0.1561
     96  C         32.1660   13.6950 -134.3480 C.2   169  LYS169      0.2260
     97  O         31.9740   12.9350 -135.2930 O.2   169  LYS169     -0.2867
     98  CB        33.0140   12.9040 -132.1090 C.3   169  LYS169      0.0271
     99  CG        32.9080   13.2760 -130.6310 C.3   169  LYS169      0.0035
    100  CD        31.7990   12.5030 -129.9200 C.3   169  LYS169      0.0206
    101  CE        31.6340   12.9750 -128.4790 C.3   169  LYS169      0.1093
    102  NZ        30.6510   12.1510 -127.7090 N.3   169  LYS169     -0.1314
    103  N         39.4680   14.1300 -131.9590 N.3   174  LYS174     -0.1231
    104  CA        40.5670   13.3200 -131.4740 C.3   174  LYS174      0.1693
    105  C         40.1270   12.2860 -130.4320 C.2   174  LYS174      0.2592
    106  O         40.8350   11.3070 -130.1850 O.2   174  LYS174     -0.2718
    107  CB        41.6560   14.2530 -130.9390 C.3   174  LYS174      0.0285
    108  CG        41.2010   15.2210 -129.8540 C.3   174  LYS174      0.0035
    109  CD        42.3000   16.2280 -129.5230 C.3   174  LYS174      0.0206
    110  CE        41.8470   17.2680 -128.4890 C.3   174  LYS174      0.1093
    111  NZ        41.6610   16.6910 -127.1300 N.3   174  LYS174     -0.1314
    112  N         38.9530   12.4880 -129.8380 N.am  175  SER175     -0.1952
    113  CA        38.3990   11.5160 -128.8940 C.3   175  SER175      0.1924
    114  C         36.8780   11.4540 -129.0100 C.2   175  SER175      0.2314
    115  O         36.2640   12.2780 -129.6890 O.2   175  SER175     -0.2863
    116  CB        38.7950   11.8540 -127.4570 C.3   175  SER175      0.2116
    117  OG        38.0600   12.9630 -126.9660 O.3   175  SER175     -0.2180
    118  N         34.9820   11.7790 -126.3920 N.3   177  GLY177     -0.1210
    119  CA        34.4820   12.4940 -125.2320 C.3   177  GLY177      0.1956
    120  C         34.2480   11.6040 -124.0260 C.2   177  GLY177      0.2611
    121  O         35.0540   10.7260 -123.7240 O.2   177  GLY177     -0.2717
    122  N         33.1400   11.8420 -123.3330 N.am  178  ASN178     -0.1974
    123  CA        32.8050   11.0920 -122.1260 C.3   178  ASN178      0.1688
    124  C         32.4690    9.6310 -122.4060 C.2   178  ASN178      0.2292
    125  O         31.4340    9.3250 -123.0020 O.2   178  ASN178     -0.2864
    126  CB        31.6280   11.7570 -121.4100 C.3   178  ASN178      0.1181
    127  CG        31.2260   11.0250 -120.1440 C.2   178  ASN178      0.2629
    128  OD1       32.0490   10.3780 -119.4950 O.2   178  ASN178     -0.2716
    129  ND2       29.9460   11.1060 -119.8010 N.am  178  ASN178     -0.0877
    130  N         28.1870   18.3730 -129.8220 N.3   208  HIS208     -0.1241
    131  CA        29.2830   19.2230 -129.3710 C.3   208  HIS208      0.1621
    132  C         30.2010   19.7040 -130.4870 C.2   208  HIS208      0.2264
    133  O         31.3870   19.9460 -130.2650 O.2   208  HIS208     -0.2867
    134  CB        30.0870   18.4800 -128.3100 C.3   208  HIS208      0.0745
    135  CG        29.2350   17.9190 -127.2170 C.ar  208  HIS208      0.0817
    136  ND1       28.6190   18.7130 -126.2730 N.ar  208  HIS208     -0.2268
    137  CD2       28.8740   16.6460 -126.9310 C.ar  208  HIS208      0.1154
    138  CE1       27.9240   17.9520 -125.4470 C.ar  208  HIS208      0.1986
    139  NE2       28.0620   16.6930 -125.8260 N.ar  208  HIS208     -0.2212
@<TRIPOS>BOND
     1    97    96    2
     2    96    95    1
     3    94    95    1
     4    95    98    1
     5    98    99    1
     6   103   104    1
     7   104   107    1
     8   104   105    1
     9   107   108    1
    10    99   100    1
    11   132   133    2
    12   132   131    1
    13   105   106    2
    14   105   112   am
    15   100   101    1
    16   108   109    1
    17   112   113    1
    18   130   131    1
    19   115   114    2
    20   109   110    1
    21   131   134    1
    22   114   113    1
    23   113   116    1
    24    88    89    1
    25    90    91    2
    26    90    89    1
    27   110   111    1
    28   101   102    1
    29   134   135    1
    30    89    92    1
    31   116   117    1
    32   135   137   ar
    33   135   136   ar
    34    78    79    1
    35   137   139   ar
    36    92    93    1
    37    82    79    1
    38    82    83    1
    39   118   119    1
    40   136   138   ar
    41    79    80    1
    42   139   138   ar
    43    83    84   ar
    44    83    85   ar
    45   119   120    1
    46    84    86   ar
    47    47    49   ar
    48    47    46   ar
    49    41    42    1
    50    80    81    2
    51    85    87   ar
    52    49    50   ar
    53   120   121    2
    54   120   122   am
    55    45    46    1
    56    45    42    1
    57    86    87   ar
    58    77    75   ar
    59    46    48   ar
    60    22    23    2
    61    22    21    1
    62    42    43    1
    63    73    72    2
    64   122   123    1
    65    50    48   ar
    66    25    24    1
    67    75    74    1
    68    75    76   ar
    69   125   124    2
    70    21    24    1
    71    21    20    1
    72    72    71    1
    73    74    71    1
    74    35    33   ar
    75    35    36   ar
    76   124   123    1
    77    43    44    2
    78    24    26    1
    79   123   126    1
    80    38    36   ar
    81    38    40   ar
    82    71    70    1
    83    33    32   ar
    84    36    34   ar
    85   126   127    1
    86    27    28    1
    87    40    39   ar
    88    32    34   ar
    89    32    31    1
    90    70    63   am
    91    34    37   ar
    92    57    59   ar
    93    57    56   ar
    94    55    56    1
    95    55    52    1
    96   127   129   am
    97   127   128    2
    98    54    53    2
    99    39    37   ar
   100    51    52    1
   101    59    60   ar
   102    28    31    1
   103    28    29    1
   104    64    63    2
   105    12    11    2
   106    56    58   ar
   107    63    62    1
   108    53    52    1
   109    53    61   am
   110    60    58   ar
   111    29    30    2
   112    61    62    1
   113     8     7    1
   114    11    10    1
   115    62    65    1
   116    13    10    1
   117    13    14    1
   118    16    18   ar
   119    16    14   ar
   120    10     9    1
   121    65    66    1
   122    18    19   ar
   123    14    15   ar
   124    66    67    1
   125     7     6    1
   126     1     2    1
   127     6     5    1
   128    67    69   am
   129    67    68    2
   130    19    17   ar
   131    15    17   ar
   132     5     2    1
   133     4     3    2
   134     2     3    1
