@<TRIPOS>MOLECULE
tmp/5yppE01.pdb
 92 87 0 0 0
SMALL
GASTEIGER

@<TRIPOS>ATOM
      1  N         -0.4490   30.8370   41.8230 N.3     3  ASN3       -0.1240
      2  CA         0.9740   31.1460   41.8560 C.3     3  ASN3        0.1653
      3  C          1.7200   30.1920   42.7820 C.2     3  ASN3        0.2266
      4  O          1.1420   29.5760   43.6800 O.2     3  ASN3       -0.2867
      5  CB         1.2130   32.5910   42.3160 C.3     3  ASN3        0.1155
      6  CG         0.9990   33.6090   41.2050 C.2     3  ASN3        0.2627
      7  OD1        1.0060   33.2680   40.0210 O.2     3  ASN3       -0.2716
      8  ND2        0.8170   34.8690   41.5870 N.am    3  ASN3       -0.0877
      9  N          5.8220   29.7990   44.7890 N.3     5  ILE5       -0.1245
     10  CA         7.0360   30.4890   45.2070 C.3     5  ILE5        0.1561
     11  C          8.2000   29.5250   45.0620 C.2     5  ILE5        0.2260
     12  O          8.1720   28.4210   45.6180 O.2     5  ILE5       -0.2867
     13  CB         6.9330   31.0070   46.6480 C.3     5  ILE5        0.0252
     14  CG1        5.8090   32.0340   46.7590 C.3     5  ILE5        0.0019
     15  CG2        8.2580   31.6120   47.0890 C.3     5  ILE5        0.0019
     16  CD1        6.2310   33.3180   47.4200 C.3     5  ILE5        0.0001
     17  N          6.4940   37.4870   38.9270 N.3    32  GLU32      -0.1231
     18  CA         5.5830   38.4360   39.5540 C.3    32  GLU32       0.1699
     19  C          6.1920   39.1370   40.7670 C.2    32  GLU32       0.2592
     20  O          6.0050   40.3460   40.9370 O.2    32  GLU32      -0.2718
     21  CB         4.2910   37.7210   39.9540 C.3    32  GLU32       0.0402
     22  CG         3.6000   37.0370   38.7880 C.3    32  GLU32       0.1161
     23  CD         3.2530   38.0080   37.6720 C.2    32  GLU32       0.3649
     24  OE1        3.3230   37.6000   36.4890 O.co2  32  GLU32      -0.2457
     25  OE2        2.9330   39.1800   37.9800 O.co2  32  GLU32      -0.2457
     26  N          6.9110   38.4100   41.6110 N.am   33  GLY33      -0.1957
     27  CA         7.5360   39.0000   42.7810 C.3    33  GLY33       0.1869
     28  C          8.9110   38.4090   43.0050 C.2    33  GLY33       0.2309
     29  O          9.1730   37.2540   42.6690 O.2    33  GLY33      -0.2863
     30  N          8.1840   34.5240   42.9540 N.3    50  LEU50      -0.1245
     31  CA         6.7500   34.3280   42.8050 C.3    50  LEU50       0.1561
     32  C          6.4230   34.2610   41.3210 C.2    50  LEU50       0.2260
     33  O          6.6090   35.2460   40.5980 O.2    50  LEU50      -0.2867
     34  CB         5.9680   35.4560   43.4680 C.3    50  LEU50       0.0270
     35  CG         4.4670   35.3640   43.2280 C.3    50  LEU50       0.0019
     36  CD1        3.8780   34.2180   44.0260 C.3    50  LEU50       0.0001
     37  CD2        3.7950   36.6800   43.5670 C.3    50  LEU50       0.0001
     38  N          2.7540   31.1430   50.9070 N.3    80  PRO80      -0.2102
     39  CA         2.2930   31.4580   49.5450 C.3    80  PRO80       0.1504
     40  C          1.9260   32.9180   49.3570 C.2    80  PRO80       0.2576
     41  O          1.9430   33.4060   48.2210 O.2    80  PRO80      -0.2718
     42  CB         1.0730   30.5430   49.3640 C.3    80  PRO80       0.0282
     43  CG         0.6290   30.2160   50.7500 C.3    80  PRO80       0.0208
     44  CD         1.8820   30.1600   51.5720 C.3    80  PRO80       0.0893
     45  N          1.5940   33.6290   50.4340 N.am   81  THR81      -0.1939
     46  CA         1.2050   35.0310   50.3750 C.3    81  THR81       0.2028
     47  C          2.2820   35.9650   50.9270 C.2    81  THR81       0.2642
     48  O          1.9740   37.0960   51.3140 O.2    81  THR81      -0.2714
     49  CB        -0.1150   35.2340   51.1220 C.3    81  THR81       0.1808
     50  OG1        0.0470   34.8650   52.4980 O.3    81  THR81      -0.2208
     51  CG2       -1.2090   34.3800   50.5080 C.3    81  THR81       0.0379
     52  N          3.5450   35.5280   50.9450 N.am   82  MET82      -0.1962
     53  CA         4.5860   36.3230   51.5910 C.3    82  MET82       0.1736
     54  C          4.7310   37.6900   50.9380 C.2    82  MET82       0.2616
     55  O          4.9920   38.6860   51.6220 O.2    82  MET82      -0.2715
     56  CB         5.9190   35.5770   51.5590 C.3    82  MET82       0.0427
     57  CG         6.4310   35.2500   50.1630 C.3    82  MET82       0.0599
     58  SD         8.1230   34.6180   50.1520 S.3    82  MET82      -0.1393
     59  CE         9.0530   36.1250   50.3890 C.3    82  MET82       0.0692
     60  N          4.5580   37.7640   49.6170 N.am   83  PHE83      -0.1960
     61  CA         4.7030   39.0410   48.9270 C.3    83  PHE83       0.1771
     62  C          3.4990   39.9500   49.1460 C.2    83  PHE83       0.2619
     63  O          3.6320   41.1760   49.0710 O.2    83  PHE83      -0.2715
     64  CB         4.9500   38.8020   47.4370 C.3    83  PHE83       0.0574
     65  CG         6.3030   38.2110   47.1400 C.ar   83  PHE83      -0.0200
     66  CD1        7.4210   39.0230   47.0510 C.ar   83  PHE83      -0.0042
     67  CD2        6.4560   36.8430   46.9730 C.ar   83  PHE83      -0.0042
     68  CE1        8.6620   38.4850   46.7890 C.ar   83  PHE83      -0.0003
     69  CE2        7.6950   36.2980   46.7100 C.ar   83  PHE83      -0.0003
     70  CZ         8.7980   37.1170   46.6180 C.ar   83  PHE83      -0.0000
     71  N          2.3270   39.3790   49.4240 N.am   84  ASN84      -0.1972
     72  CA         1.2130   40.1940   49.8930 C.3    84  ASN84       0.1688
     73  C          1.5270   40.8020   51.2530 C.2    84  ASN84       0.2292
     74  O          1.2070   41.9700   51.5070 O.2    84  ASN84      -0.2864
     75  CB        -0.0650   39.3600   49.9520 C.3    84  ASN84       0.1181
     76  CG        -0.5340   38.9200   48.5800 C.2    84  ASN84       0.2629
     77  OD1       -0.6450   37.7250   48.3040 O.2    84  ASN84      -0.2716
     78  ND2       -0.8160   39.8860   47.7100 N.am   84  ASN84      -0.0877
     79  N          4.0630   43.6100   50.8890 N.3    87  ALA87      -0.1245
     80  CA         3.4980   44.8100   50.2840 C.3    87  ALA87       0.1562
     81  C          2.7640   45.6720   51.3020 C.2    87  ALA87       0.2260
     82  O          2.7200   46.8980   51.1570 O.2    87  ALA87      -0.2867
     83  CB         2.5600   44.4260   49.1400 C.3    87  ALA87       0.0290
     84  N          4.1400   49.2300   50.3760 N.3    91  GLN91      -0.1245
     85  CA         3.2960   49.8910   49.3910 C.3    91  GLN91       0.1566
     86  C          2.0440   50.4570   50.0580 C.2    91  GLN91       0.2260
     87  O          1.5910   51.5520   49.7280 O.2    91  GLN91      -0.2867
     88  CB         2.9190   48.9230   48.2700 C.3    91  GLN91       0.0367
     89  CG         4.0920   48.5200   47.3990 C.3    91  GLN91       0.0905
     90  CD         3.6970   47.5590   46.3020 C.2    91  GLN91       0.2608
     91  OE1        2.8340   46.7010   46.4950 O.2    91  GLN91      -0.2717
     92  NE2        4.3290   47.6930   45.1420 N.am   91  GLN91      -0.0878
@<TRIPOS>BOND
     1    24    23   ar
     2    23    25   ar
     3    23    22    1
     4    22    21    1
     5    17    18    1
     6    18    21    1
     7    18    19    1
     8     7     6    2
     9    33    32    2
    10    19    20    2
    11    19    26   am
    12     6     8   am
    13     6     5    1
    14    32    31    1
    15    26    27    1
    16     1     2    1
    17     2     5    1
    18     2     3    1
    19    29    28    2
    20    27    28    1
    21     3     4    2
    22    31    30    1
    23    31    34    1
    24    35    34    1
    25    35    37    1
    26    35    36    1
    27     9    10    1
    28    11    10    1
    29    11    12    2
    30    92    90   am
    31    10    13    1
    32    90    91    2
    33    90    89    1
    34    70    69   ar
    35    70    68   ar
    36    13    14    1
    37    13    15    1
    38    69    67   ar
    39    14    16    1
    40    68    66   ar
    41    67    65   ar
    42    66    65   ar
    43    65    64    1
    44    89    88    1
    45    64    61    1
    46    78    76   am
    47    41    40    2
    48    88    85    1
    49    77    76    2
    50    76    75    1
    51    61    62    1
    52    61    60    1
    53    63    62    2
    54    83    80    1
    55    62    71   am
    56    40    39    1
    57    40    45   am
    58    42    39    1
    59    42    43    1
    60    85    86    1
    61    85    84    1
    62    71    72    1
    63    39    38    1
    64    60    54   am
    65    87    86    2
    66    72    75    1
    67    72    73    1
    68    58    57    1
    69    58    59    1
    70    57    56    1
    71    80    79    1
    72    80    81    1
    73    46    45    1
    74    46    47    1
    75    46    49    1
    76    51    49    1
    77    43    44    1
    78    38    44    1
    79    47    52   am
    80    47    48    2
    81    54    53    1
    82    54    55    2
    83    52    53    1
    84    49    50    1
    85    82    81    2
    86    73    74    2
    87    56    53    1
