@<TRIPOS>MOLECULE
tmp/5yppE00.pdb
 89 87 0 0 0
SMALL
GASTEIGER

@<TRIPOS>ATOM
      1  N         21.7470   30.6330   46.3780 N.3    10  VAL10      -0.1231
      2  CA        22.6600   30.9590   45.2950 C.3    10  VAL10       0.1692
      3  C         23.8810   31.6510   45.8850 C.2    10  VAL10       0.2592
      4  O         23.8730   32.1110   47.0270 O.2    10  VAL10      -0.2718
      5  CB        21.9890   31.8540   44.2310 C.3    10  VAL10       0.0266
      6  CG1       20.7000   31.2110   43.7380 C.3    10  VAL10       0.0020
      7  CG2       21.7080   33.2340   44.8070 C.3    10  VAL10       0.0020
      8  N         24.9360   31.7320   45.0840 N.am   11  ARG11      -0.1966
      9  CA        26.1120   32.4810   45.4920 C.3    11  ARG11       0.1729
     10  C         25.8640   33.9710   45.2950 C.2    11  ARG11       0.2616
     11  O         25.3740   34.3970   44.2450 O.2    11  ARG11      -0.2715
     12  CB        27.3410   32.0210   44.7120 C.3    11  ARG11       0.0348
     13  CG        27.8050   30.6370   45.1290 C.3    11  ARG11       0.0492
     14  CD        29.2760   30.4280   44.8510 C.3    11  ARG11       0.2205
     15  NE        29.5220   30.1020   43.4530 N.pl3  11  ARG11      -0.0865
     16  CZ        29.4160   28.8780   42.9480 C.cat  11  ARG11       0.5346
     17  NH1       29.0610   27.8660   43.7290 N.pl3  11  ARG11       0.1354
     18  NH2       29.6620   28.6650   41.6630 N.pl3  11  ARG11       0.1354
     19  N         26.1790   34.7570   46.3240 N.am   12  ASN12      -0.1958
     20  CA        26.0510   36.2120   46.2760 C.3    12  ASN12       0.1819
     21  C         27.2070   36.7790   45.4510 C.2    12  ASN12       0.2621
     22  O         28.1510   37.3880   45.9600 O.2    12  ASN12      -0.2715
     23  CB        26.0210   36.7850   47.6850 C.3    12  ASN12       0.1195
     24  CG        25.6210   38.2410   47.7110 C.2    12  ASN12       0.2630
     25  OD1       25.1800   38.7950   46.7030 O.2    12  ASN12      -0.2716
     26  ND2       25.7570   38.8670   48.8720 N.am   12  ASN12      -0.0877
     27  N         27.1080   36.5670   44.1390 N.am   13  HIS13      -0.1960
     28  CA        28.1300   36.9610   43.1860 C.3    13  HIS13       0.1772
     29  C         27.4930   37.7600   42.0560 C.2    13  HIS13       0.2462
     30  O         26.3660   37.4590   41.6480 O.2    13  HIS13      -0.2730
     31  CB        28.8260   35.7170   42.6100 C.3    13  HIS13       0.0785
     32  CG        29.6730   34.9780   43.6010 C.ar   13  HIS13       0.0821
     33  ND1       29.9420   35.4640   44.8620 N.ar   13  HIS13      -0.2267
     34  CD2       30.2810   33.7700   43.5260 C.ar   13  HIS13       0.1154
     35  CE1       30.6950   34.5960   45.5150 C.ar   13  HIS13       0.1986
     36  NE2       30.9130   33.5590   44.7270 N.ar   13  HIS13      -0.2212
     37  N         28.1850   38.7650   41.5200 N.am   14  PRO14      -0.2716
     38  CA        27.6060   39.5360   40.4130 C.3    14  PRO14       0.1536
     39  C         27.1940   38.6260   39.2650 C.2    14  PRO14       0.2599
     40  O         27.8780   37.6540   38.9420 O.2    14  PRO14      -0.2715
     41  CB        28.7430   40.4790   40.0040 C.3    14  PRO14       0.0310
     42  CG        29.6130   40.5750   41.2120 C.3    14  PRO14       0.0237
     43  CD        29.5380   39.2300   41.8700 C.3    14  PRO14       0.0939
     44  N         26.0590   38.9550   38.6470 N.am   15  GLY15      -0.1941
     45  CA        25.5680   38.2390   37.4880 C.3    15  GLY15       0.2014
     46  C         24.6520   37.0690   37.7800 C.2    15  GLY15       0.2639
     47  O         24.0490   36.5310   36.8430 O.2    15  GLY15      -0.2714
     48  N         24.5100   36.6700   39.0460 N.am   16  VAL16      -0.1963
     49  CA        23.7170   35.4890   39.3790 C.3    16  VAL16       0.1727
     50  C         22.2300   35.7400   39.1440 C.2    16  VAL16       0.2616
     51  O         21.5250   34.8880   38.5900 O.2    16  VAL16      -0.2715
     52  CB        23.9960   35.0510   40.8280 C.3    16  VAL16       0.0290
     53  CG1       23.0980   33.8850   41.2080 C.3    16  VAL16       0.0023
     54  CG2       25.4600   34.6690   40.9850 C.3    16  VAL16       0.0023
     55  N         21.7240   36.8990   39.5730 N.am   17  MET17      -0.1963
     56  CA        20.3110   37.1970   39.3640 C.3    17  MET17       0.1736
     57  C         19.9810   37.3320   37.8860 C.2    17  MET17       0.2617
     58  O         18.8710   36.9930   37.4640 O.2    17  MET17      -0.2715
     59  CB        19.9310   38.4740   40.1070 C.3    17  MET17       0.0427
     60  CG        18.4500   38.7690   40.0990 C.3    17  MET17       0.0599
     61  SD        17.5050   37.4750   40.9150 S.3    17  MET17      -0.1393
     62  CE        15.9520   38.3170   41.1770 C.3    17  MET17       0.0692
     63  N         20.9300   37.8100   37.0860 N.am   18  THR18      -0.1951
     64  CA        20.7100   37.9020   35.6480 C.3    18  THR18       0.1897
     65  C         20.5570   36.5150   35.0310 C.2    18  THR18       0.2313
     66  O         19.6970   36.3060   34.1670 O.2    18  THR18      -0.2863
     67  CB        21.8660   38.6650   34.9980 C.3    18  THR18       0.1794
     68  OG1       22.0640   39.9070   35.6850 O.3    18  THR18      -0.2208
     69  CG2       21.5660   38.9530   33.5320 C.3    18  THR18       0.0378
     70  N         15.3660   39.0060   47.3650 N.3    36  CYS36      -0.1235
     71  CA        16.7220   38.4900   47.4790 C.3    36  CYS36       0.1677
     72  C         17.3530   39.0980   48.7190 C.2    36  CYS36       0.2270
     73  O         17.4470   40.3240   48.8350 O.2    36  CYS36      -0.2867
     74  CB        17.5570   38.8030   46.2310 C.3    36  CYS36       0.0956
     75  SG        19.2780   38.2150   46.3220 S.3    36  CYS36      -0.0801
     76  N         23.1570   33.9250   49.0710 N.3    45  SER45      -0.1217
     77  CA        21.9240   34.6620   49.3020 C.3    45  SER45       0.1889
     78  C         20.7240   33.7530   49.0780 C.2    45  SER45       0.2288
     79  O         20.8190   32.7150   48.4220 O.2    45  SER45      -0.2866
     80  CB        21.8200   35.8890   48.3810 C.3    45  SER45       0.2089
     81  OG        22.8760   36.8080   48.6100 O.3    45  SER45      -0.2183
     82  N         16.8310   33.5800   47.5440 N.3    47  ILE47      -0.1245
     83  CA        15.9360   34.1960   46.5680 C.3    47  ILE47       0.1561
     84  C         14.5720   33.5330   46.6710 C.2    47  ILE47       0.2260
     85  O         14.4760   32.3030   46.7080 O.2    47  ILE47      -0.2867
     86  CB        16.4700   34.0870   45.1280 C.3    47  ILE47       0.0252
     87  CG1       17.7450   34.9080   44.9510 C.3    47  ILE47       0.0019
     88  CG2       15.4100   34.5240   44.1420 C.3    47  ILE47       0.0019
     89  CD1       18.3850   34.7590   43.5770 C.3    47  ILE47       0.0001
@<TRIPOS>BOND
     1    69    67    1
     2    66    65    2
     3    67    64    1
     4    67    68    1
     5    65    64    1
     6    64    63    1
     7    47    46    2
     8    63    57   am
     9    58    57    2
    10    45    46    1
    11    45    44    1
    12    46    48   am
    13    57    56    1
    14    51    50    2
    15    44    39   am
    16    40    39    2
    17    48    49    1
    18    50    49    1
    19    50    55   am
    20    39    38    1
    21    56    55    1
    22    56    59    1
    23    49    52    1
    24    41    38    1
    25    41    42    1
    26    60    59    1
    27    60    61    1
    28    38    37    1
    29    52    54    1
    30    52    53    1
    31    61    62    1
    32    42    43    1
    33    37    43    1
    34    37    29   am
    35    30    29    2
    36    18    16    1
    37    29    28    1
    38    31    28    1
    39    31    32    1
    40    16    15    2
    41    16    17    1
    42    28    27    1
    43    15    14    1
    44    34    32   ar
    45    34    36   ar
    46    89    87    1
    47    32    33   ar
    48     6     5    1
    49    27    21   am
    50    88    86    1
    51     5     7    1
    52     5     2    1
    53    11    10    2
    54    12    13    1
    55    12     9    1
    56    36    35   ar
    57    14    13    1
    58    33    35   ar
    59    87    86    1
    60     8     9    1
    61     8     3   am
    62    86    83    1
    63     2     3    1
    64     2     1    1
    65    10     9    1
    66    10    19   am
    67    21    22    2
    68    21    20    1
    69     3     4    2
    70    74    75    1
    71    74    71    1
    72    20    19    1
    73    20    23    1
    74    83    84    1
    75    83    82    1
    76    84    85    2
    77    25    24    2
    78    70    71    1
    79    71    72    1
    80    23    24    1
    81    24    26   am
    82    80    81    1
    83    80    77    1
    84    79    78    2
    85    72    73    2
    86    76    77    1
    87    78    77    1
