@<TRIPOS>MOLECULE
tmp/5ypsD05.pdb
 98 95 0 0 0
SMALL
GASTEIGER

@<TRIPOS>ATOM
      1  N        -52.2570   -5.3540  -46.9120 N.3    24  GLN24      -0.1231
      2  CA       -52.4340   -3.9160  -46.7480 C.3    24  GLN24       0.1698
      3  C        -53.3300   -3.3290  -47.8500 C.2    24  GLN24       0.2592
      4  O        -54.2480   -2.5410  -47.5750 O.2    24  GLN24      -0.2718
      5  CB       -51.0760   -3.2210  -46.7440 C.3    24  GLN24       0.0381
      6  CG       -51.1510   -1.7310  -46.9810 C.3    24  GLN24       0.0905
      7  CD       -49.7770   -1.0850  -47.0190 C.2    24  GLN24       0.2608
      8  OE1      -48.9180   -1.3890  -46.1930 O.2    24  GLN24      -0.2717
      9  NE2      -49.5610   -0.1940  -47.9900 N.am   24  GLN24      -0.0878
     10  N        -53.0350   -3.7210  -49.0900 N.am   25  VAL25      -0.1980
     11  CA       -53.7880   -3.3050  -50.2630 C.3    25  VAL25       0.1595
     12  C        -55.2640   -3.6560  -50.1000 C.2    25  VAL25       0.2287
     13  O        -56.1280   -2.8030  -50.2950 O.2    25  VAL25      -0.2864
     14  CB       -53.2280   -3.9580  -51.5450 C.3    25  VAL25       0.0276
     15  CG1      -54.2180   -3.8250  -52.7280 C.3    25  VAL25       0.0022
     16  CG2      -51.8800   -3.3440  -51.9140 C.3    25  VAL25       0.0022
     17  N        -56.7580   -1.4150  -47.1310 N.3    28  PHE28      -0.1227
     18  CA       -56.8640    0.0390  -47.2130 C.3    28  PHE28       0.1736
     19  C        -57.5790    0.5860  -48.4560 C.2    28  PHE28       0.2595
     20  O        -58.0420    1.7280  -48.4310 O.2    28  PHE28      -0.2718
     21  CB       -55.4720    0.6680  -47.1070 C.3    28  PHE28       0.0547
     22  CG       -54.9900    0.8130  -45.6870 C.ar   28  PHE28      -0.0202
     23  CD1      -55.3680    1.9050  -44.9230 C.ar   28  PHE28      -0.0042
     24  CD2      -54.1710   -0.1460  -45.1150 C.ar   28  PHE28      -0.0042
     25  CE1      -54.9340    2.0380  -43.6120 C.ar   28  PHE28      -0.0003
     26  CE2      -53.7350   -0.0180  -43.8040 C.ar   28  PHE28      -0.0003
     27  CZ       -54.1180    1.0770  -43.0550 C.ar   28  PHE28      -0.0000
     28  N        -57.6720   -0.2010  -49.5270 N.am   29  ASN29      -0.1974
     29  CA       -58.3450    0.2760  -50.7450 C.3    29  ASN29       0.1688
     30  C        -59.7130    0.9290  -50.4760 C.2    29  ASN29       0.2292
     31  O        -59.9070    2.0800  -50.8560 O.2    29  ASN29      -0.2864
     32  CB       -58.5050   -0.8510  -51.7790 C.3    29  ASN29       0.1181
     33  CG       -57.2840   -1.0030  -52.6790 C.2    29  ASN29       0.2629
     34  OD1      -56.5050   -0.0550  -52.8820 O.2    29  ASN29      -0.2716
     35  ND2      -57.1230   -2.1970  -53.2420 N.am   29  ASN29      -0.0877
     36  N        -59.1760    4.3240  -48.6740 N.3    32  TYR32      -0.1241
     37  CA       -58.6850    5.3320  -49.6060 C.3    32  TYR32       0.1605
     38  C        -59.8090    5.8270  -50.5160 C.2    32  TYR32       0.2264
     39  O        -59.8920    7.0170  -50.8180 O.2    32  TYR32      -0.2867
     40  CB       -57.5210    4.7760  -50.4230 C.3    32  TYR32       0.0534
     41  CG       -56.1940    4.8620  -49.6860 C.ar   32  TYR32      -0.0201
     42  CD1      -55.8160    6.0320  -49.0380 C.ar   32  TYR32      -0.0009
     43  CD2      -55.3250    3.7690  -49.6280 C.ar   32  TYR32      -0.0009
     44  CE1      -54.5960    6.1240  -48.3720 C.ar   32  TYR32       0.0417
     45  CE2      -54.1000    3.8520  -48.9560 C.ar   32  TYR32       0.0417
     46  CZ       -53.7480    5.0310  -48.3330 C.ar   32  TYR32       0.1957
     47  OH       -52.5490    5.1330  -47.6710 O.3    32  TYR32      -0.2866
     48  N        -53.2230    7.0590  -55.3590 N.3    77  VAL77      -0.1245
     49  CA       -52.2060    6.0310  -55.5220 C.3    77  VAL77       0.1561
     50  C        -52.8110    4.6440  -55.4120 C.2    77  VAL77       0.2260
     51  O        -53.5140    4.3290  -54.4540 O.2    77  VAL77      -0.2867
     52  CB       -51.0870    6.1490  -54.4980 C.3    77  VAL77       0.0252
     53  CG1      -49.9800    5.1300  -54.8300 C.3    77  VAL77       0.0019
     54  CG2      -50.5280    7.5770  -54.4760 C.3    77  VAL77       0.0019
     55  N        -52.2700    0.2260  -55.9670 N.3    79  ARG79      -0.1245
     56  CA       -51.3950   -0.9320  -56.1180 C.3    79  ARG79       0.1563
     57  C        -52.1810   -2.0570  -56.7980 C.2    79  ARG79       0.2260
     58  O        -52.5980   -3.0290  -56.1430 O.2    79  ARG79      -0.2867
     59  CB       -50.8260   -1.3780  -54.7570 C.3    79  ARG79       0.0307
     60  CG       -49.7880   -0.3990  -54.1730 C.3    79  ARG79       0.0489
     61  CD       -49.4340   -0.6960  -52.6980 C.3    79  ARG79       0.2205
     62  NE       -48.6720    0.4160  -52.1330 N.pl3  79  ARG79      -0.0865
     63  CZ       -47.3490    0.5330  -52.2090 C.cat  79  ARG79       0.5346
     64  NH1      -46.6190   -0.4050  -52.8040 N.pl3  79  ARG79       0.1354
     65  NH2      -46.7520    1.5940  -51.6930 N.pl3  79  ARG79       0.1354
     66  N        -46.1330    7.7880  -52.7530 N.3   181  ALA181     -0.1231
     67  CA       -46.9390    6.5920  -52.4410 C.3   181  ALA181      0.1694
     68  C        -47.0390    6.2310  -50.9560 C.2   181  ALA181      0.2591
     69  O        -48.0660    5.7150  -50.5070 O.2   181  ALA181     -0.2718
     70  CB       -46.4010    5.3800  -53.1850 C.3   181  ALA181      0.0304
     71  N        -45.9550    6.4430  -50.2160 N.am  182  GLU182     -0.1979
     72  CA       -45.8460    5.9090  -48.8640 C.3   182  GLU182      0.1602
     73  C        -45.8700    6.9970  -47.7930 C.2   182  GLU182      0.2287
     74  O        -45.8760    6.6930  -46.6070 O.2   182  GLU182     -0.2864
     75  CB       -44.5530    5.0920  -48.7110 C.3   182  GLU182      0.0415
     76  CG       -44.3670    3.9560  -49.7280 C.3   182  GLU182      0.1163
     77  CD       -43.1410    3.1110  -49.4130 C.2   182  GLU182      0.3649
     78  OE1      -42.4060    3.4660  -48.4620 O.co2 182  GLU182     -0.2457
     79  OE2      -42.9060    2.1040  -50.1100 O.co2 182  GLU182     -0.2457
     80  N        -49.3750   10.5940  -49.7610 N.3   185  TYR185     -0.1228
     81  CA       -50.7390   10.0930  -49.9650 C.3   185  TYR185      0.1721
     82  C        -51.3390    9.5150  -48.6690 C.2   185  TYR185      0.2437
     83  O        -52.4570    9.8920  -48.3000 O.2   185  TYR185     -0.2733
     84  CB       -50.7760    9.0570  -51.0980 C.3   185  TYR185      0.0547
     85  CG       -52.1650    8.5790  -51.4940 C.ar  185  TYR185     -0.0200
     86  CD1      -53.0970    9.4510  -52.0640 C.ar  185  TYR185     -0.0009
     87  CD2      -52.5260    7.2490  -51.3420 C.ar  185  TYR185     -0.0009
     88  CE1      -54.3720    9.0100  -52.4420 C.ar  185  TYR185      0.0417
     89  CE2      -53.7970    6.7910  -51.7300 C.ar  185  TYR185      0.0417
     90  CZ       -54.7080    7.6780  -52.2670 C.ar  185  TYR185      0.1957
     91  OH       -55.9490    7.2210  -52.6400 O.3   185  TYR185     -0.2866
     92  N        -50.6110    8.6110  -47.9690 N.am  186  PRO186     -0.2729
     93  CA       -51.1960    8.1280  -46.7120 C.3   186  PRO186      0.1401
     94  C        -51.4310    9.2450  -45.6860 C.2   186  PRO186      0.2269
     95  O        -52.4920    9.2810  -45.0550 O.2   186  PRO186     -0.2865
     96  CB       -50.1440    7.1360  -46.1890 C.3   186  PRO186      0.0296
     97  CG       -49.3890    6.7130  -47.3660 C.3   186  PRO186      0.0237
     98  CD       -49.3570    7.8970  -48.2890 C.3   186  PRO186      0.0939
@<TRIPOS>BOND
     1    57    58    2
     2    57    56    1
     3    56    55    1
     4    56    59    1
     5    49    50    1
     6    49    48    1
     7    49    52    1
     8    50    51    2
     9    53    52    1
    10    59    60    1
    11    52    54    1
    12    60    61    1
    13    35    33   am
    14    70    67    1
    15    34    33    2
    16    64    63    1
    17    66    67    1
    18    15    14    1
    19    61    62    1
    20    33    32    1
    21    91    90    1
    22    88    90   ar
    23    88    86   ar
    24    67    68    1
    25    90    89   ar
    26    63    62    2
    27    63    65    1
    28    86    85   ar
    29    16    14    1
    30    32    29    1
    31    89    87   ar
    32    14    11    1
    33    85    87   ar
    34    85    84    1
    35    84    81    1
    36    68    69    2
    37    68    71   am
    38    31    30    2
    39    39    38    2
    40    29    30    1
    41    29    28    1
    42    38    37    1
    43    40    41    1
    44    40    37    1
    45    13    12    2
    46    11    12    1
    47    11    10    1
    48    71    72    1
    49    79    77   ar
    50    81    80    1
    51    81    82    1
    52    76    77    1
    53    76    75    1
    54    41    43   ar
    55    41    42   ar
    56    43    45   ar
    57    37    36    1
    58    28    19   am
    59    77    78   ar
    60    10     3   am
    61    42    44   ar
    62    45    46   ar
    63    72    75    1
    64    72    73    1
    65    82    83    2
    66    82    92   am
    67    19    20    2
    68    19    18    1
    69    44    46   ar
    70    46    47    1
    71    98    92    1
    72    98    97    1
    73     9     7   am
    74    92    93    1
    75     3     4    2
    76     3     2    1
    77    73    74    2
    78    97    96    1
    79    18    17    1
    80    18    21    1
    81    21    22    1
    82     7     6    1
    83     7     8    2
    84     6     5    1
    85     1     2    1
    86     2     5    1
    87    93    96    1
    88    93    94    1
    89    22    24   ar
    90    22    23   ar
    91    94    95    2
    92    24    26   ar
    93    23    25   ar
    94    26    27   ar
    95    25    27   ar
