@<TRIPOS>MOLECULE
tmp/5ypsE02.pdb
 134 131 0 0 0
SMALL
GASTEIGER

@<TRIPOS>ATOM
      1  N        -20.3690   20.7150   -1.1860 N.3    17  ASP17      -0.1239
      2  CA       -20.0360   22.1330   -1.2740 C.3    17  ASP17       0.1674
      3  C        -20.7740   22.9150   -2.3520 C.2    17  ASP17       0.2266
      4  O        -21.0320   24.1080   -2.1860 O.2    17  ASP17      -0.2867
      5  CB       -18.5490   22.3160   -1.5010 C.3    17  ASP17       0.1410
      6  CG       -17.9760   23.4030   -0.6240 C.2    17  ASP17       0.3668
      7  OD1      -18.5880   24.4940   -0.4840 O.co2  17  ASP17      -0.2456
      8  OD2      -16.9200   23.1420   -0.0480 O.co2  17  ASP17      -0.2456
      9  N        -24.2690   23.3930   -1.0940 N.3    20  LEU20      -0.1231
     10  CA       -24.2370   24.4510   -0.0830 C.3    20  LEU20       0.1693
     11  C        -24.2380   25.8240   -0.7440 C.2    20  LEU20       0.2591
     12  O        -25.0120   26.7050   -0.3760 O.2    20  LEU20      -0.2718
     13  CB       -23.0050   24.3090    0.8210 C.3    20  LEU20       0.0284
     14  CG       -22.8120   25.3950    1.8930 C.3    20  LEU20       0.0019
     15  CD1      -23.9580   25.3770    2.9070 C.3    20  LEU20       0.0001
     16  CD2      -21.4600   25.2560    2.5870 C.3    20  LEU20       0.0001
     17  N        -23.3500   25.9990   -1.7190 N.am   21  LEU21      -0.1980
     18  CA       -23.2520   27.2480   -2.4590 C.3    21  LEU21       0.1596
     19  C        -24.5800   27.5420   -3.1630 C.2    21  LEU21       0.2287
     20  O        -25.0290   28.6910   -3.2290 O.2    21  LEU21      -0.2864
     21  CB       -22.1090   27.1680   -3.4720 C.3    21  LEU21       0.0297
     22  CG       -21.4030   28.4510   -3.8920 C.3    21  LEU21       0.0022
     23  CD1      -21.0820   29.3180   -2.6870 C.3    21  LEU21       0.0001
     24  CD2      -20.1400   28.1010   -4.6670 C.3    21  LEU21       0.0001
     25  N        -26.7850   28.8530   -0.5850 N.3    24  GLN24      -0.1231
     26  CA       -26.3590   30.2320   -0.3600 C.3    24  GLN24       0.1698
     27  C        -26.8980   31.2300   -1.3790 C.2    24  GLN24       0.2592
     28  O        -27.3170   32.3360   -1.0190 O.2    24  GLN24      -0.2718
     29  CB       -24.8420   30.3480   -0.3520 C.3    24  GLN24       0.0381
     30  CG       -24.4280   31.7620    0.0250 C.3    24  GLN24       0.0905
     31  CD       -22.9710   32.0560   -0.1710 C.2    24  GLN24       0.2608
     32  OE1      -22.1340   31.1580   -0.1970 O.2    24  GLN24      -0.2717
     33  NE2      -22.6540   33.3330   -0.3090 N.am   24  GLN24      -0.0878
     34  N        -26.8570   30.8490   -2.6520 N.am   25  VAL25      -0.1980
     35  CA       -27.3550   31.7270   -3.7000 C.3    25  VAL25       0.1595
     36  C        -28.8430   31.9970   -3.5140 C.2    25  VAL25       0.2287
     37  O        -29.2690   33.1630   -3.5000 O.2    25  VAL25      -0.2864
     38  CB       -27.0910   31.1390   -5.0900 C.3    25  VAL25       0.0276
     39  CG1      -27.7650   31.9910   -6.1550 C.3    25  VAL25       0.0022
     40  CG2      -25.5840   31.0790   -5.3360 C.3    25  VAL25       0.0022
     41  N        -29.2640   34.3880   -0.2710 N.3    28  PHE28      -0.1227
     42  CA       -28.7990   35.7640   -0.2420 C.3    28  PHE28       0.1736
     43  C        -29.2330   36.6030   -1.4150 C.2    28  PHE28       0.2595
     44  O        -29.2110   37.8550   -1.3670 O.2    28  PHE28      -0.2718
     45  CB       -27.2880   35.7890   -0.1300 C.3    28  PHE28       0.0547
     46  CG       -26.8170   35.5050    1.2480 C.ar   28  PHE28      -0.0202
     47  CD1      -26.7110   36.5270    2.1870 C.ar   28  PHE28      -0.0042
     48  CD2      -26.5290   34.2090    1.6330 C.ar   28  PHE28      -0.0042
     49  CE1      -26.2750   36.2570    3.4770 C.ar   28  PHE28      -0.0003
     50  CE2      -26.1020   33.9420    2.9200 C.ar   28  PHE28      -0.0003
     51  CZ       -25.9780   34.9610    3.8310 C.ar   28  PHE28      -0.0000
     52  N        -29.6350   35.9440   -2.4780 N.am   29  ASN29      -0.1974
     53  CA       -30.0360   36.7110   -3.6250 C.3    29  ASN29       0.1688
     54  C        -31.1980   37.6690   -3.4500 C.2    29  ASN29       0.2292
     55  O        -31.1010   38.7660   -3.9430 O.2    29  ASN29      -0.2864
     56  CB       -30.2450   35.7430   -4.7670 C.3    29  ASN29       0.1181
     57  CG       -30.2200   36.4120   -6.1130 C.2    29  ASN29       0.2629
     58  OD1      -31.2080   37.1470   -6.4910 O.2    29  ASN29      -0.2716
     59  ND2      -29.0070   36.4200   -6.7360 N.am   29  ASN29      -0.0877
     60  N        -29.3910   40.6610   -1.4290 N.3    32  TYR32      -0.1241
     61  CA       -28.5420   41.5000   -2.2660 C.3    32  TYR32       0.1605
     62  C        -29.3750   42.4220   -3.1540 C.2    32  TYR32       0.2264
     63  O        -29.0060   43.5710   -3.3820 O.2    32  TYR32      -0.2867
     64  CB       -27.6230   40.6470   -3.1280 C.3    32  TYR32       0.0534
     65  CG       -26.3870   40.1940   -2.4010 C.ar   32  TYR32      -0.0201
     66  CD1      -25.5250   41.1130   -1.8230 C.ar   32  TYR32      -0.0009
     67  CD2      -26.0780   38.8500   -2.2950 C.ar   32  TYR32      -0.0009
     68  CE1      -24.3840   40.7000   -1.1640 C.ar   32  TYR32       0.0417
     69  CE2      -24.9440   38.4280   -1.6330 C.ar   32  TYR32       0.0417
     70  CZ       -24.0990   39.3560   -1.0710 C.ar   32  TYR32       0.1957
     71  OH       -22.9650   38.9330   -0.4120 O.3    32  TYR32      -0.2866
     72  N        -22.7370   41.5540   -8.0040 N.3    77  VAL77      -0.1231
     73  CA       -22.1520   40.2380   -8.2450 C.3    77  VAL77       0.1692
     74  C        -23.2390   39.1680   -8.2440 C.2    77  VAL77       0.2592
     75  O        -24.0350   39.0810   -7.3050 O.2    77  VAL77      -0.2718
     76  CB       -21.0850   39.8740   -7.1900 C.3    77  VAL77       0.0266
     77  CG1      -20.4520   38.5340   -7.5430 C.3    77  VAL77       0.0020
     78  CG2      -20.0340   40.9480   -7.1090 C.3    77  VAL77       0.0020
     79  N        -23.2920   38.3690   -9.3000 N.am   78  TYR78      -0.1962
     80  CA       -24.2790   37.2850   -9.3880 C.3    78  TYR78       0.1771
     81  C        -23.6120   35.9260   -9.5310 C.2    78  TYR78       0.2619
     82  O        -22.4540   35.8270   -9.9400 O.2    78  TYR78      -0.2715
     83  CB       -25.2250   37.4720  -10.5820 C.3    78  TYR78       0.0574
     84  CG       -25.9050   38.8180  -10.6670 C.ar   78  TYR78      -0.0198
     85  CD1      -27.1170   39.0420  -10.0330 C.ar   78  TYR78      -0.0009
     86  CD2      -25.3420   39.8570  -11.4050 C.ar   78  TYR78      -0.0009
     87  CE1      -27.7480   40.2680  -10.1180 C.ar   78  TYR78       0.0417
     88  CE2      -25.9600   41.0900  -11.4870 C.ar   78  TYR78       0.0417
     89  CZ       -27.1670   41.2880  -10.8440 C.ar   78  TYR78       0.1957
     90  OH       -27.7900   42.5110  -10.9240 O.3    78  TYR78      -0.2866
     91  N        -24.3660   34.8860   -9.1990 N.am   79  ARG79      -0.1977
     92  CA       -23.9900   33.5150   -9.4890 C.3    79  ARG79       0.1597
     93  C        -25.1670   32.9180  -10.2450 C.2    79  ARG79       0.2287
     94  O        -26.0020   32.2140   -9.6520 O.2    79  ARG79      -0.2864
     95  CB       -23.6720   32.7330   -8.2020 C.3    79  ARG79       0.0334
     96  CG       -22.4720   33.2990   -7.4260 C.3    79  ARG79       0.0492
     97  CD       -22.2800   32.5520   -6.1050 C.3    79  ARG79       0.2205
     98  NE       -21.1840   33.0670   -5.2840 N.pl3  79  ARG79      -0.0865
     99  CZ       -19.9060   32.7030   -5.3890 C.cat  79  ARG79       0.5346
    100  NH1      -19.5270   31.8150   -6.2990 N.pl3  79  ARG79       0.1354
    101  NH2      -18.9970   33.2320   -4.5710 N.pl3  79  ARG79       0.1354
    102  N        -16.0390   39.1700   -5.4900 N.3   181  ALA181     -0.1231
    103  CA       -17.2180   38.3420   -5.2430 C.3   181  ALA181      0.1694
    104  C        -17.3850   37.9710   -3.7690 C.2   181  ALA181      0.2591
    105  O        -18.5030   38.0010   -3.2540 O.2   181  ALA181     -0.2718
    106  CB       -17.1750   37.0660   -6.0660 C.3   181  ALA181      0.0304
    107  N        -16.2980   37.5960   -3.0950 N.am  182  GLU182     -0.1979
    108  CA       -16.4340   36.9850   -1.7580 C.3   182  GLU182      0.1602
    109  C        -16.0470   37.8680   -0.5840 C.2   182  GLU182      0.2287
    110  O        -16.1950   37.4730    0.5660 O.2   182  GLU182     -0.2864
    111  CB       -15.6010   35.6990   -1.6800 C.3   182  GLU182      0.0415
    112  CG       -15.8940   34.7000   -2.8040 C.3   182  GLU182      0.1163
    113  CD       -15.1390   33.3850   -2.6110 C.2   182  GLU182      0.3649
    114  OE1      -14.4480   33.2300   -1.5710 O.co2 182  GLU182     -0.2457
    115  OE2      -15.2460   32.5040   -3.4900 O.co2 182  GLU182     -0.2457
    116  N        -17.8970   42.6770   -2.0860 N.3   185  TYR185     -0.1228
    117  CA       -19.3390   42.7920   -2.3140 C.3   185  TYR185      0.1721
    118  C        -20.1600   42.3380   -1.1000 C.2   185  TYR185      0.2437
    119  O        -21.0840   43.0370   -0.7040 O.2   185  TYR185     -0.2733
    120  CB       -19.7350   41.9990   -3.5620 C.3   185  TYR185      0.0547
    121  CG       -21.1860   42.0790   -3.9730 C.ar  185  TYR185     -0.0200
    122  CD1      -21.7410   43.2650   -4.4570 C.ar  185  TYR185     -0.0009
    123  CD2      -21.9930   40.9460   -3.9360 C.ar  185  TYR185     -0.0009
    124  CE1      -23.0790   43.3220   -4.8650 C.ar  185  TYR185      0.0417
    125  CE2      -23.3300   40.9890   -4.3580 C.ar  185  TYR185      0.0417
    126  CZ       -23.8650   42.1780   -4.8140 C.ar  185  TYR185      0.1957
    127  OH       -25.1850   42.2210   -5.2280 O.3   185  TYR185     -0.2866
    128  N        -19.8420   41.1690   -0.5150 N.am  186  PRO186     -0.2729
    129  CA       -20.5660   40.8500    0.7300 C.3   186  PRO186      0.1401
    130  C        -20.3430   41.8530    1.8550 C.2   186  PRO186      0.2269
    131  O        -21.3060   42.1840    2.5330 O.2   186  PRO186     -0.2865
    132  CB       -20.0040   39.4780    1.1330 C.3   186  PRO186      0.0296
    133  CG       -19.5000   38.8840   -0.1660 C.3   186  PRO186      0.0237
    134  CD       -18.9450   40.0660   -0.9230 C.3   186  PRO186      0.0939
@<TRIPOS>BOND
     1    88    86   ar
     2    88    89   ar
     3    86    84   ar
     4    90    89    1
     5    89    87   ar
     6    84    83    1
     7    84    85   ar
     8    83    80    1
     9    93    94    2
    10    93    92    1
    11    87    85   ar
    12    82    81    2
    13    81    80    1
    14    81    91   am
    15    92    91    1
    16    92    95    1
    17    80    79    1
    18    79    74   am
    19    73    74    1
    20    73    72    1
    21    73    76    1
    22    74    75    2
    23    95    96    1
    24    77    76    1
    25    96    97    1
    26    76    78    1
    27    59    57   am
    28    58    57    2
    29   100    99    1
    30    39    38    1
    31    57    56    1
    32    97    98    1
    33   106   103    1
    34   102   103    1
    35    99    98    2
    36    99   101    1
    37    40    38    1
    38   103   104    1
    39   127   126    1
    40    38    35    1
    41   124   126   ar
    42   124   122   ar
    43   126   125   ar
    44    56    53    1
    45    24    22    1
    46   122   121   ar
    47   125   123   ar
    48   121   123   ar
    49   121   120    1
    50    55    54    2
    51    22    21    1
    52    22    23    1
    53   104   105    2
    54   104   107   am
    55    35    36    1
    56    35    34    1
    57    53    54    1
    58    53    52    1
    59   120   117    1
    60    36    37    2
    61   115   113   ar
    62    21    18    1
    63    63    62    2
    64    20    19    2
    65    19    18    1
    66    62    61    1
    67    64    65    1
    68    64    61    1
    69   107   108    1
    70   112   113    1
    71   112   111    1
    72    34    27   am
    73   113   114   ar
    74    52    43   am
    75    18    17    1
    76    65    67   ar
    77    65    66   ar
    78     3     4    2
    79     3     2    1
    80   117   116    1
    81   117   118    1
    82    67    69   ar
    83    61    60    1
    84    66    68   ar
    85   108   111    1
    86   108   109    1
    87    17    11   am
    88    69    70   ar
    89     5     2    1
    90     5     6    1
    91    43    44    2
    92    43    42    1
    93    27    28    2
    94    27    26    1
    95     2     1    1
    96    68    70   ar
    97   118   119    2
    98   118   128   am
    99     9    10    1
   100    70    71    1
   101   134   128    1
   102   134   133    1
   103    11    12    2
   104    11    10    1
   105     6     7   ar
   106     6     8   ar
   107    25    26    1
   108   109   110    2
   109   128   129    1
   110    26    29    1
   111    29    30    1
   112    33    31   am
   113    41    42    1
   114    42    45    1
   115    32    31    2
   116    31    30    1
   117   133   132    1
   118    45    46    1
   119    10    13    1
   120   129   132    1
   121   129   130    1
   122    13    14    1
   123    46    48   ar
   124    46    47   ar
   125    48    50   ar
   126   130   131    2
   127    14    16    1
   128    14    15    1
   129    47    49   ar
   130    50    51   ar
   131    49    51   ar
