@<TRIPOS>MOLECULE
tmp/5ypsE03.pdb
 93 91 0 0 0
SMALL
GASTEIGER

@<TRIPOS>ATOM
      1  N        -16.3180   55.8820  -22.9110 N.3   100  GLU100     -0.1245
      2  CA       -17.3780   56.1620  -23.8770 C.3   100  GLU100      0.1567
      3  C        -18.6970   55.6810  -23.3040 C.2   100  GLU100      0.2260
      4  O        -18.7210   54.7770  -22.4720 O.2   100  GLU100     -0.2867
      5  CB       -17.1310   55.4700  -25.2210 C.3   100  GLU100      0.0388
      6  CG       -16.0270   56.0510  -26.0530 C.3   100  GLU100      0.1160
      7  CD       -16.3520   57.4310  -26.6140 C.2   100  GLU100      0.3649
      8  OE1      -17.5020   57.9080  -26.4720 O.co2 100  GLU100     -0.2457
      9  OE2      -15.4320   58.0390  -27.1950 O.co2 100  GLU100     -0.2457
     10  N        -14.3520   50.9190  -24.4250 N.3   138  GLU138     -0.1231
     11  CA       -13.9280   52.0010  -25.3080 C.3   138  GLU138      0.1699
     12  C        -13.7750   53.2710  -24.4910 C.2   138  GLU138      0.2592
     13  O        -14.6220   53.5910  -23.6460 O.2   138  GLU138     -0.2718
     14  CB       -14.9120   52.1970  -26.4570 C.3   138  GLU138      0.0402
     15  CG       -14.3970   51.6880  -27.7820 C.3   138  GLU138      0.1161
     16  CD       -15.4050   51.8740  -28.8940 C.2   138  GLU138      0.3649
     17  OE1      -16.3450   51.0570  -28.9750 O.co2 138  GLU138     -0.2457
     18  OE2      -15.2660   52.8400  -29.6760 O.co2 138  GLU138     -0.2457
     19  N        -12.6650   53.9610  -24.7210 N.am  139  TRP139     -0.1962
     20  CA       -12.2970   55.1360  -23.9460 C.3   139  TRP139      0.1771
     21  C        -12.4370   56.3940  -24.8030 C.2   139  TRP139      0.2619
     22  O        -12.2960   56.3350  -26.0140 O.2   139  TRP139     -0.2715
     23  CB       -10.8670   55.0050  -23.4340 C.3   139  TRP139      0.0590
     24  CG       -10.6450   53.8050  -22.5320 C.ar  139  TRP139      0.0006
     25  CD1      -10.3560   52.5240  -22.9170 C.ar  139  TRP139      0.0946
     26  CD2      -10.6980   53.7880  -21.0920 C.ar  139  TRP139      0.0152
     27  NE1      -10.2290   51.7150  -21.8040 N.ar  139  TRP139     -0.2442
     28  CE2      -10.4280   52.4700  -20.6790 C.ar  139  TRP139      0.0810
     29  CE3      -10.9390   54.7670  -20.1210 C.ar  139  TRP139      0.0012
     30  CZ2      -10.4000   52.1000  -19.3290 C.ar  139  TRP139      0.0191
     31  CZ3      -10.9110   54.4010  -18.7840 C.ar  139  TRP139      0.0001
     32  CH2      -10.6460   53.0750  -18.4000 C.ar  139  TRP139      0.0015
     33  N        -12.7140   57.5300  -24.1780 N.am  140  LYS140     -0.1963
     34  CA       -12.7610   58.7790  -24.9270 C.3   140  LYS140      0.1728
     35  C        -11.3490   59.1330  -25.3780 C.2   140  LYS140      0.2616
     36  O        -10.3740   58.5580  -24.8800 O.2   140  LYS140     -0.2715
     37  CB       -13.3910   59.8930  -24.0860 C.3   140  LYS140      0.0311
     38  CG       -14.8710   59.6590  -23.8350 C.3   140  LYS140      0.0038
     39  CD       -15.5520   60.8660  -23.2160 C.3   140  LYS140      0.0206
     40  CE       -17.0420   60.8230  -23.5050 C.3   140  LYS140      0.1093
     41  NZ       -17.8600   60.4130  -22.3540 N.3   140  LYS140     -0.1314
     42  N        -11.2470   60.0580  -26.3280 N.am  141  LYS141     -0.1963
     43  CA        -9.9690   60.4070  -26.9490 C.3   141  LYS141      0.1728
     44  C         -8.9000   60.8220  -25.9380 C.2   141  LYS141      0.2616
     45  O         -9.1460   61.6440  -25.0530 O.2   141  LYS141     -0.2715
     46  CB       -10.1670   61.5260  -27.9900 C.3   141  LYS141      0.0311
     47  CG       -11.2390   61.2690  -29.0530 C.3   141  LYS141      0.0038
     48  CD       -10.9020   60.1060  -29.9650 C.3   141  LYS141      0.0206
     49  CE       -11.9900   59.8930  -30.9910 C.3   141  LYS141      0.1093
     50  NZ       -13.3010   59.5750  -30.3580 N.3   141  LYS141     -0.1314
     51  N         -7.7180   60.2210  -26.0860 N.am  142  ASN142     -0.1958
     52  CA        -6.5680   60.4340  -25.2050 C.3   142  ASN142      0.1819
     53  C         -6.8250   60.0550  -23.7510 C.2   142  ASN142      0.2621
     54  O         -6.1060   60.5090  -22.8570 O.2   142  ASN142     -0.2715
     55  CB        -6.1000   61.8900  -25.2640 C.3   142  ASN142      0.1195
     56  CG        -5.9680   62.4010  -26.6850 C.2   142  ASN142      0.2630
     57  OD1       -5.0180   62.0600  -27.3900 O.2   142  ASN142     -0.2716
     58  ND2       -6.9190   63.2330  -27.1100 N.am  142  ASN142     -0.0877
     59  N         -7.8350   59.2250  -23.5100 N.am  143  LYS143     -0.1963
     60  CA        -8.2040   58.8790  -22.1360 C.3   143  LYS143      0.1728
     61  C         -8.1030   57.3760  -21.8530 C.2   143  LYS143      0.2616
     62  O         -8.5230   56.9080  -20.7850 O.2   143  LYS143     -0.2715
     63  CB        -9.6220   59.3810  -21.8280 C.3   143  LYS143      0.0311
     64  CG        -9.7730   60.9160  -21.8690 C.3   143  LYS143      0.0038
     65  CD        -9.2220   61.5410  -20.5940 C.3   143  LYS143      0.0206
     66  CE        -9.2740   63.0610  -20.6380 C.3   143  LYS143      0.1093
     67  NZ        -8.1940   63.6520  -21.4840 N.3   143  LYS143     -0.1314
     68  N         -7.5250   56.6180  -22.7860 N.am  144  ASP144     -0.1971
     69  CA        -7.4160   55.1590  -22.6110 C.3   144  ASP144      0.1709
     70  C         -6.3700   54.8120  -21.5620 C.2   144  ASP144      0.2293
     71  O         -5.1910   54.8090  -21.8640 O.2   144  ASP144     -0.2864
     72  CB        -7.0610   54.4700  -23.9330 C.3   144  ASP144      0.1436
     73  CG        -7.0920   52.9360  -23.8420 C.2   144  ASP144      0.3671
     74  OD1       -7.0590   52.3690  -22.7230 O.co2 144  ASP144     -0.2456
     75  OD2       -7.1440   52.2860  -24.9090 O.co2 144  ASP144     -0.2456
     76  N         -3.7200   51.8560  -22.1760 N.3   147  ARG147     -0.1245
     77  CA        -2.6570   51.9880  -23.1880 C.3   147  ARG147      0.1563
     78  C         -1.3710   51.3150  -22.7220 C.2   147  ARG147      0.2260
     79  O         -1.0110   51.3680  -21.5340 O.2   147  ARG147     -0.2867
     80  CB        -2.3650   53.4600  -23.5010 C.3   147  ARG147      0.0307
     81  CG        -2.3150   54.3380  -22.2590 C.3   147  ARG147      0.0489
     82  CD        -2.3520   55.8280  -22.5860 C.3   147  ARG147      0.2205
     83  NE        -2.3990   56.6400  -21.3700 N.pl3 147  ARG147     -0.0865
     84  CZ        -2.9080   57.8670  -21.3190 C.cat 147  ARG147      0.5346
     85  NH1       -2.9240   58.5410  -20.1760 N.pl3 147  ARG147      0.1354
     86  NH2       -3.4200   58.4180  -22.4110 N.pl3 147  ARG147      0.1354
     87  N          1.5020   52.1890  -23.6530 N.3   149  THR149     -0.1218
     88  CA         2.5710   53.1670  -23.8680 C.3   149  THR149      0.1862
     89  C          3.4410   53.3500  -22.6210 C.2   149  THR149      0.2287
     90  O          2.9310   53.4270  -21.5050 O.2   149  THR149     -0.2866
     91  CB         1.9980   54.5400  -24.3030 C.3   149  THR149      0.1770
     92  OG1        1.0890   55.0310  -23.3080 O.3   149  THR149     -0.2211
     93  CG2        1.2640   54.4170  -25.6340 C.3   149  THR149      0.0375
@<TRIPOS>BOND
     1    49    50    1
     2    49    48    1
     3    48    47    1
     4    18    16   ar
     5    47    46    1
     6    17    16   ar
     7    16    15    1
     8    46    43    1
     9    15    14    1
    10    57    56    2
    11     9     7   ar
    12    58    56   am
    13    43    42    1
    14    43    44    1
    15    56    55    1
    16     7     8   ar
    17     7     6    1
    18    14    11    1
    19    42    35   am
    20    51    44   am
    21    51    52    1
    22     6     5    1
    23    22    21    2
    24    44    45    2
    25    93    91    1
    26    35    34    1
    27    35    36    2
    28    11    12    1
    29    11    10    1
    30    55    52    1
    31     5     2    1
    32    52    53    1
    33    34    33    1
    34    34    37    1
    35    75    73   ar
    36    21    33   am
    37    21    20    1
    38    19    12   am
    39    19    20    1
    40    12    13    2
    41    91    88    1
    42    91    92    1
    43    37    38    1
    44    20    23    1
    45    72    73    1
    46    72    69    1
    47     2     3    1
    48     2     1    1
    49    88    87    1
    50    88    89    1
    51    73    74   ar
    52    38    39    1
    53    53    59   am
    54    53    54    2
    55    59    60    1
    56    40    39    1
    57    40    41    1
    58    80    77    1
    59    80    81    1
    60    23    24    1
    61     3     4    2
    62    77    78    1
    63    77    76    1
    64    25    24   ar
    65    25    27   ar
    66    68    69    1
    67    68    61   am
    68    78    79    2
    69    89    90    2
    70    69    70    1
    71    82    81    1
    72    82    83    1
    73    24    26   ar
    74    86    84    1
    75    60    61    1
    76    60    63    1
    77    64    63    1
    78    64    65    1
    79    71    70    2
    80    61    62    2
    81    27    28   ar
    82    67    66    1
    83    83    84    2
    84    84    85    1
    85    26    28   ar
    86    26    29   ar
    87    28    30   ar
    88    66    65    1
    89    29    31   ar
    90    30    32   ar
    91    31    32   ar
