@<TRIPOS>MOLECULE
tmp/5ypsC03.pdb
 71 67 0 0 0
SMALL
GASTEIGER

@<TRIPOS>ATOM
      1  N        -22.2120   -7.3370  -34.4440 N.3    46  PRO46      -0.2116
      2  CA       -21.3280   -6.1700  -34.5860 C.3    46  PRO46       0.1372
      3  C        -20.9610   -5.8720  -36.0450 C.2    46  PRO46       0.2244
      4  O        -20.7920   -4.7000  -36.3980 O.2    46  PRO46      -0.2868
      5  CB       -20.0830   -6.5620  -33.7730 C.3    46  PRO46       0.0268
      6  CG       -20.2060   -8.0620  -33.5540 C.3    46  PRO46       0.0207
      7  CD       -21.6660   -8.3250  -33.4920 C.3    46  PRO46       0.0892
      8  N        -24.0520   -4.1310  -37.5570 N.3    49  ILE49      -0.1231
      9  CA       -24.1280   -2.7800  -37.0100 C.3    49  ILE49       0.1692
     10  C        -23.1650   -1.7850  -37.7100 C.2    49  ILE49       0.2591
     11  O        -23.5510   -0.6600  -38.0230 O.2    49  ILE49      -0.2718
     12  CB       -23.8560   -2.8070  -35.4900 C.3    49  ILE49       0.0266
     13  CG1      -25.0840   -3.3480  -34.7540 C.3    49  ILE49       0.0019
     14  CG2      -23.5260   -1.4260  -34.9640 C.3    49  ILE49       0.0020
     15  CD1      -24.8560   -3.6200  -33.2180 C.3    49  ILE49       0.0001
     16  N        -21.9280   -2.1820  -37.9870 N.am   50  GLU50      -0.1979
     17  CA       -21.0310   -1.2550  -38.6790 C.3    50  GLU50       0.1602
     18  C        -21.4620   -1.0970  -40.1510 C.2    50  GLU50       0.2287
     19  O        -21.3330   -0.0160  -40.7280 O.2    50  GLU50      -0.2864
     20  CB       -19.5620   -1.7020  -38.5950 C.3    50  GLU50       0.0415
     21  CG       -18.6960   -1.0850  -39.6990 C.3    50  GLU50       0.1163
     22  CD       -17.2700   -1.6060  -39.7500 C.2    50  GLU50       0.3649
     23  OE1      -17.0610   -2.8320  -39.6270 O.co2  50  GLU50      -0.2457
     24  OE2      -16.3530   -0.7730  -39.9270 O.co2  50  GLU50      -0.2457
     25  N        -23.6950    4.0720  -36.5260 N.3    58  SER58      -0.1202
     26  CA       -22.2970    4.1550  -36.1620 C.3    58  SER58       0.2020
     27  C        -21.8530    5.5270  -35.6650 C.2    58  SER58       0.2618
     28  O        -21.0020    5.6040  -34.8170 O.2    58  SER58      -0.2717
     29  CB       -21.4010    3.6190  -37.2520 C.3    58  SER58       0.2103
     30  OG       -20.8500    4.6480  -38.0030 O.3    58  SER58      -0.2182
     31  N        -22.4610    6.5870  -36.1880 N.am   59  VAL59      -0.1979
     32  CA       -22.1330    7.9300  -35.7090 C.3    59  VAL59       0.1595
     33  C        -22.3760    8.0820  -34.1700 C.2    59  VAL59       0.2287
     34  O        -21.7760    8.9400  -33.5400 O.2    59  VAL59      -0.2864
     35  CB       -22.9270    9.0220  -36.4910 C.3    59  VAL59       0.0276
     36  CG1      -24.4260    8.9550  -36.2100 C.3    59  VAL59       0.0022
     37  CG2      -22.3900   10.4130  -36.1710 C.3    59  VAL59       0.0022
     38  N        -21.7290    5.6240  -32.0040 N.3    61  ILE61      -0.1231
     39  CA       -20.9470    4.5540  -31.3840 C.3    61  ILE61       0.1692
     40  C        -19.4710    4.9400  -31.3560 C.2    61  ILE61       0.2593
     41  O        -18.8220    5.0440  -32.3920 O.2    61  ILE61      -0.2718
     42  CB       -21.1500    3.2130  -32.1420 C.3    61  ILE61       0.0266
     43  CG1      -22.5820    2.6950  -31.9300 C.3    61  ILE61       0.0019
     44  CG2      -20.1400    2.1600  -31.7100 C.3    61  ILE61       0.0020
     45  CD1      -23.0110    1.6090  -32.9260 C.3    61  ILE61       0.0001
     46  N        -18.9480    5.2030  -30.1680 N.am   62  SER62      -0.1939
     47  CA       -17.5240    5.5070  -30.0140 C.3    62  SER62       0.2040
     48  C        -16.6900    4.2410  -30.2150 C.2    62  SER62       0.2485
     49  O        -17.2390    3.1380  -30.2100 O.2    62  SER62      -0.2729
     50  CB       -17.2440    6.0830  -28.6200 C.3    62  SER62       0.2129
     51  OG       -17.0870    5.0090  -27.7040 O.3    62  SER62      -0.2179
     52  N        -15.3630    4.3930  -30.3870 N.am   63  PRO63      -0.2726
     53  CA       -14.4520    3.2470  -30.4420 C.3    63  PRO63       0.1402
     54  C        -14.5650    2.3520  -29.2230 C.2    63  PRO63       0.2269
     55  O        -14.5050    1.1320  -29.3600 O.2    63  PRO63      -0.2865
     56  CB       -13.0700    3.9080  -30.4960 C.3    63  PRO63       0.0296
     57  CG       -13.3280    5.1870  -31.2260 C.3    63  PRO63       0.0237
     58  CD       -14.6790    5.6470  -30.7640 C.3    63  PRO63       0.0939
     59  N        -17.7780    0.4020  -29.3650 N.3    66  ALA66      -0.1245
     60  CA       -17.5570   -0.6490  -30.3510 C.3    66  ALA66       0.1562
     61  C        -16.8940   -1.8750  -29.7210 C.2    66  ALA66       0.2260
     62  O        -17.1870   -3.0120  -30.1090 O.2    66  ALA66      -0.2867
     63  CB       -16.7020   -0.1180  -31.5050 C.3    66  ALA66       0.0290
     64  N        -19.5790   -3.7600  -28.0050 N.3    69  LEU69      -0.1245
     65  CA       -20.5370   -4.3300  -28.9410 C.3    69  LEU69       0.1561
     66  C        -19.9350   -5.5100  -29.6940 C.2    69  LEU69       0.2260
     67  O        -20.6650   -6.3190  -30.2660 O.2    69  LEU69      -0.2867
     68  CB       -21.0170   -3.2740  -29.9240 C.3    69  LEU69       0.0270
     69  CG       -21.8870   -2.1550  -29.3540 C.3    69  LEU69       0.0019
     70  CD1      -22.1210   -1.0920  -30.4230 C.3    69  LEU69       0.0001
     71  CD2      -23.2150   -2.7070  -28.8280 C.3    69  LEU69       0.0001
@<TRIPOS>BOND
     1    19    18    2
     2    18    17    1
     3    24    22   ar
     4    22    21    1
     5    22    23   ar
     6    21    20    1
     7    17    20    1
     8    17    16    1
     9    11    10    2
    10    30    29    1
    11    16    10   am
    12    10     9    1
    13     8     9    1
    14    29    26    1
    15     9    12    1
    16    25    26    1
    17    35    36    1
    18    35    37    1
    19    35    32    1
    20     4     3    2
    21    31    32    1
    22    31    27   am
    23    26    27    1
    24     3     2    1
    25    32    33    1
    26    27    28    2
    27    12    14    1
    28    12    13    1
    29    13    15    1
    30     2     1    1
    31     2     5    1
    32     1     7    1
    33    33    34    2
    34     5     6    1
    35     6     7    1
    36    45    43    1
    37    41    40    2
    38    42    43    1
    39    42    44    1
    40    42    39    1
    41    38    39    1
    42    63    60    1
    43    39    40    1
    44    40    46   am
    45    57    58    1
    46    57    56    1
    47    58    52    1
    48    56    53    1
    49    53    52    1
    50    53    54    1
    51    70    69    1
    52    52    48   am
    53    60    61    1
    54    60    59    1
    55    67    66    2
    56    48    49    2
    57    48    47    1
    58    46    47    1
    59    62    61    2
    60    47    50    1
    61    68    69    1
    62    68    65    1
    63    66    65    1
    64    55    54    2
    65    69    71    1
    66    65    64    1
    67    50    51    1
