@<TRIPOS>MOLECULE
tmp/5yq7D01.pdb
 219 210 0 0 0
SMALL
GASTEIGER

@<TRIPOS>ATOM
      1  N         85.0330  132.5230  104.0500 N.3    78  GLY78      -0.1210
      2  CA        84.9070  131.1190  104.3840 C.3    78  GLY78       0.1956
      3  C         85.3950  130.8120  105.7830 C.2    78  GLY78       0.2611
      4  O         84.7430  130.0820  106.5280 O.2    78  GLY78      -0.2717
      5  N         86.5370  131.3820  106.1650 N.am   79  ILE79      -0.1979
      6  CA        87.1270  131.0640  107.4610 C.3    79  ILE79       0.1595
      7  C         86.2090  131.5040  108.5910 C.2    79  ILE79       0.2287
      8  O         85.8760  130.7150  109.4850 O.2    79  ILE79      -0.2864
      9  CB        88.5240  131.6920  107.5880 C.3    79  ILE79       0.0276
     10  CG1       89.4970  130.9930  106.6420 C.3    79  ILE79       0.0022
     11  CG2       89.0150  131.6050  109.0170 C.3    79  ILE79       0.0022
     12  CD1       90.8090  131.7090  106.4820 C.3    79  ILE79       0.0001
     13  N         82.9160  129.4700  108.6310 N.3    82  GLY82      -0.1210
     14  CA        83.1000  128.1050  109.0760 C.3    82  GLY82       0.1956
     15  C         83.3680  128.0040  110.5620 C.2    82  GLY82       0.2611
     16  O         82.7940  127.1580  111.2430 O.2    82  GLY82      -0.2717
     17  N         84.2430  128.8620  111.0860 N.am   83  VAL83      -0.1979
     18  CA        84.5450  128.7970  112.5130 C.3    83  VAL83       0.1595
     19  C         83.2900  129.0720  113.3300 C.2    83  VAL83       0.2287
     20  O         82.9340  128.3050  114.2370 O.2    83  VAL83      -0.2864
     21  CB        85.6780  129.7710  112.8770 C.3    83  VAL83       0.0276
     22  CG1       85.8660  129.8080  114.3770 C.3    83  VAL83       0.0022
     23  CG2       86.9660  129.3420  112.2180 C.3    83  VAL83       0.0022
     24  N         80.7340  126.1270  112.9270 N.3    86  TYR86      -0.1241
     25  CA        81.2160  124.9720  113.6710 C.3    86  TYR86       0.1605
     26  C         80.9670  125.1390  115.1590 C.2    86  TYR86       0.2264
     27  O         80.4910  124.2170  115.8250 O.2    86  TYR86      -0.2867
     28  CB        82.7040  124.7630  113.3930 C.3    86  TYR86       0.0534
     29  CG        83.3370  123.6490  114.1920 C.ar   86  TYR86      -0.0201
     30  CD1       83.0660  122.3230  113.9040 C.ar   86  TYR86      -0.0009
     31  CD2       84.2210  123.9270  115.2210 C.ar   86  TYR86      -0.0009
     32  CE1       83.6450  121.3070  114.6270 C.ar   86  TYR86       0.0417
     33  CE2       84.8080  122.9180  115.9450 C.ar   86  TYR86       0.0417
     34  CZ        84.5150  121.6100  115.6440 C.ar   86  TYR86       0.1957
     35  OH        85.0950  120.5960  116.3660 O.3    86  TYR86      -0.2866
     36  N         79.2760  123.4850  106.6660 N.3   127  THR127     -0.1203
     37  CA        80.6650  123.6260  107.0830 C.3   127  THR127      0.1994
     38  C         81.6070  123.0240  106.0500 C.2   127  THR127      0.2617
     39  O         82.6810  123.5750  105.7820 O.2   127  THR127     -0.2717
     40  CB        80.8700  122.9680  108.4430 C.3   127  THR127      0.1784
     41  OG1       80.0070  123.5860  109.4020 O.3   127  THR127     -0.2211
     42  CG2       82.3000  123.1320  108.8950 C.3   127  THR127      0.0376
     43  N         81.2200  121.8930  105.4620 N.am  128  MET128     -0.1979
     44  CA        82.0200  121.2940  104.3990 C.3   128  MET128      0.1605
     45  C         82.2020  122.2690  103.2490 C.2   128  MET128      0.2287
     46  O         83.3160  122.4590  102.7440 O.2   128  MET128     -0.2864
     47  CB        81.3600  120.0120  103.8960 C.3   128  MET128      0.0413
     48  CG        81.3040  118.8760  104.8910 C.3   128  MET128      0.0598
     49  SD        82.9340  118.3000  105.3750 S.3   128  MET128     -0.1393
     50  CE        83.0520  119.0310  107.0010 C.3   128  MET128      0.0692
     51  N         81.9540  125.5530  103.2000 N.3   130  ALA130     -0.1231
     52  CA        82.8040  126.6740  103.5910 C.3   130  ALA130      0.1694
     53  C         84.2730  126.2650  103.6190 C.2   130  ALA130      0.2591
     54  O         85.1450  126.9860  103.1140 O.2   130  ALA130     -0.2718
     55  CB        82.3670  127.2140  104.9500 C.3   130  ALA130      0.0304
     56  N         84.5650  125.1020  104.1980 N.am  131  ALA131     -0.1980
     57  CA        85.9470  124.6500  104.2810 C.3   131  ALA131      0.1597
     58  C         86.5510  124.4810  102.8940 C.2   131  ALA131      0.2287
     59  O         87.6490  124.9820  102.6190 O.2   131  ALA131     -0.2864
     60  CB        86.0240  123.3440  105.0690 C.3   131  ALA131      0.0319
     61  N         87.3200  127.6830  101.2200 N.3   134  ALA134     -0.1231
     62  CA        88.4900  128.3040  101.8300 C.3   134  ALA134      0.1694
     63  C         89.7760  127.6990  101.2820 C.2   134  ALA134      0.2592
     64  O         90.7050  128.4220  100.8980 O.2   134  ALA134     -0.2718
     65  CB        88.4300  128.1550  103.3470 C.3   134  ALA134      0.0304
     66  N         89.8410  126.3660  101.2380 N.am  135  PHE135     -0.1976
     67  CA        91.0290  125.7010  100.7080 C.3   135  PHE135      0.1639
     68  C         91.3390  126.1790   99.2970 C.2   135  PHE135      0.2290
     69  O         92.4700  126.5880   98.9920 O.2   135  PHE135     -0.2864
     70  CB        90.8520  124.1810  100.7030 C.3   135  PHE135      0.0560
     71  CG        90.8150  123.5570  102.0640 C.ar  135  PHE135     -0.0200
     72  CD1       91.9480  123.5200  102.8470 C.ar  135  PHE135     -0.0042
     73  CD2       89.6750  122.9290  102.5240 C.ar  135  PHE135     -0.0042
     74  CE1       91.9260  122.9340  104.0880 C.ar  135  PHE135     -0.0003
     75  CE2       89.6480  122.3330  103.7670 C.ar  135  PHE135     -0.0003
     76  CZ        90.7770  122.3340  104.5480 C.ar  135  PHE135     -0.0000
     77  N         92.5250  129.7730   98.9880 N.3   138  TRP138     -0.1241
     78  CA        93.8570  130.0040   99.5260 C.3   138  TRP138      0.1605
     79  C         94.9300  129.4800   98.5760 C.2   138  TRP138      0.2264
     80  O         95.9870  130.1060   98.4060 O.2   138  TRP138     -0.2867
     81  CB        93.9590  129.3530  100.8990 C.3   138  TRP138      0.0550
     82  CG        95.1340  129.7670  101.6780 C.ar  138  TRP138      0.0003
     83  CD1       95.3750  130.9980  102.2050 C.ar  138  TRP138      0.0946
     84  CD2       96.2410  128.9520  102.0330 C.ar  138  TRP138      0.0152
     85  NE1       96.5700  130.9980  102.8760 N.ar  138  TRP138     -0.2442
     86  CE2       97.1230  129.7490  102.7810 C.ar  138  TRP138      0.0810
     87  CE3       96.5720  127.6200  101.7950 C.ar  138  TRP138      0.0012
     88  CZ2       98.3150  129.2610  103.2860 C.ar  138  TRP138      0.0191
     89  CZ3       97.7540  127.1370  102.2940 C.ar  138  TRP138      0.0001
     90  CH2       98.6100  127.9520  103.0370 C.ar  138  TRP138      0.0015
     91  N         98.0280  131.5480   96.7590 N.3   142  GLN142     -0.1245
     92  CA        99.4460  131.2170   96.6490 C.3   142  GLN142      0.1566
     93  C         99.9270  131.3200   95.2120 C.2   142  GLN142      0.2260
     94  O        101.0160  131.8450   94.9550 O.2   142  GLN142     -0.2867
     95  CB        99.7460  129.8250   97.1970 C.3   142  GLN142      0.0367
     96  CG        99.7640  129.7330   98.7020 C.3   142  GLN142      0.0905
     97  CD       100.2700  128.3910   99.1780 C.2   142  GLN142      0.2608
     98  OE1      100.5550  127.5050   98.3750 O.2   142  GLN142     -0.2717
     99  NE2      100.3990  128.2360  100.4890 N.am  142  GLN142     -0.0878
    100  N        105.5720  125.2730   94.7980 N.3   155  VAL155     -0.1245
    101  CA       104.8050  125.1840   96.0430 C.3   155  VAL155      0.1561
    102  C        103.3310  124.8630   95.8060 C.2   155  VAL155      0.2260
    103  O        102.8060  123.9590   96.4720 O.2   155  VAL155     -0.2867
    104  CB       105.0070  126.4590   96.8770 C.3   155  VAL155      0.0252
    105  CG1      104.1300  126.4230   98.1090 C.3   155  VAL155      0.0019
    106  CG2      106.4650  126.6100   97.2600 C.3   155  VAL155      0.0019
    107  N        102.9560  121.2320   95.0180 N.3   158  ALA158     -0.1231
    108  CA       103.0540  120.4010   96.2140 C.3   158  ALA158      0.1694
    109  C        101.7450  120.4040   96.9950 C.2   158  ALA158      0.2592
    110  O        101.2520  119.3520   97.4140 O.2   158  ALA158     -0.2718
    111  CB       104.2060  120.8800   97.0920 C.3   158  ALA158      0.0304
    112  N        101.1590  121.5840   97.1840 N.am  159  PHE159     -0.1976
    113  CA        99.9490  121.6890   97.9980 C.3   159  PHE159      0.1639
    114  C         98.7470  121.0450   97.3130 C.2   159  PHE159      0.2290
    115  O         97.8180  120.5640   97.9870 O.2   159  PHE159     -0.2864
    116  CB        99.6970  123.1620   98.3060 C.3   159  PHE159      0.0560
    117  CG        98.5640  123.4140   99.2420 C.ar  159  PHE159     -0.0200
    118  CD1       98.6600  123.0690  100.5720 C.ar  159  PHE159     -0.0042
    119  CD2       97.4320  124.0690   98.8090 C.ar  159  PHE159     -0.0042
    120  CE1       97.6310  123.3250  101.4420 C.ar  159  PHE159     -0.0003
    121  CE2       96.4010  124.3350   99.6760 C.ar  159  PHE159     -0.0003
    122  CZ        96.4980  123.9590  100.9930 C.ar  159  PHE159     -0.0000
    123  N         98.4740  118.2580   95.9420 N.3   161  ALA161     -0.1231
    124  CA        98.3200  116.8500   96.2860 C.3   161  ALA161      0.1694
    125  C         97.3590  116.6790   97.4560 C.2   161  ALA161      0.2591
    126  O         96.3640  115.9470   97.3700 O.2   161  ALA161     -0.2718
    127  CB        99.6830  116.2410   96.6090 C.3   161  ALA161      0.0304
    128  N         97.6300  117.3700   98.5610 N.am  162  VAL162     -0.1980
    129  CA        96.7850  117.1920   99.7320 C.3   162  VAL162      0.1595
    130  C         95.4240  117.8440   99.5170 C.2   162  VAL162      0.2287
    131  O         94.4180  117.4020  100.0920 O.2   162  VAL162     -0.2864
    132  CB        97.5010  117.7250  100.9840 C.3   162  VAL162      0.0276
    133  CG1       97.6020  119.2320  100.9440 C.3   162  VAL162      0.0022
    134  CG2       96.8040  117.2480  102.2340 C.3   162  VAL162      0.0022
    135  N         91.8490  115.9250  100.1630 N.3   166  TRP166     -0.1241
    136  CA        90.6320  116.4160  100.8020 C.3   166  TRP166      0.1605
    137  C         89.4250  116.2690   99.8910 C.2   166  TRP166      0.2264
    138  O         88.3630  115.8150  100.3290 O.2   166  TRP166     -0.2867
    139  CB        90.7840  117.8740  101.2160 C.3   166  TRP166      0.0550
    140  CG        89.5100  118.4480  101.7550 C.ar  166  TRP166      0.0003
    141  CD1       88.6340  119.2480  101.0900 C.ar  166  TRP166      0.0946
    142  CD2       88.9680  118.2660  103.0660 C.ar  166  TRP166      0.0152
    143  NE1       87.5820  119.5780  101.9030 N.ar  166  TRP166     -0.2442
    144  CE2       87.7630  118.9850  103.1230 C.ar  166  TRP166      0.0810
    145  CE3       89.3850  117.5660  104.1970 C.ar  166  TRP166      0.0012
    146  CZ2       86.9730  119.0260  104.2620 C.ar  166  TRP166      0.0191
    147  CZ3       88.5980  117.6090  105.3270 C.ar  166  TRP166      0.0001
    148  CH2       87.4060  118.3330  105.3520 C.ar  166  TRP166      0.0015
    149  N         82.2650  111.9630  106.7340 N.3   184  PHE184     -0.1241
    150  CA        83.4240  112.1800  107.5810 C.3   184  PHE184      0.1605
    151  C         83.0150  112.8690  108.8750 C.2   184  PHE184      0.2264
    152  O         83.0640  114.1020  108.9610 O.2   184  PHE184     -0.2867
    153  CB        84.4430  113.0130  106.8120 C.3   184  PHE184      0.0534
    154  CG        85.7240  113.2250  107.5320 C.ar  184  PHE184     -0.0203
    155  CD1       86.6180  112.1920  107.6820 C.ar  184  PHE184     -0.0042
    156  CD2       86.0570  114.4680  108.0190 C.ar  184  PHE184     -0.0042
    157  CE1       87.8060  112.3880  108.3320 C.ar  184  PHE184     -0.0003
    158  CE2       87.2470  114.6690  108.6680 C.ar  184  PHE184     -0.0003
    159  CZ        88.1230  113.6290  108.8250 C.ar  184  PHE184     -0.0000
    160  N         83.0660  114.8870  111.6900 N.3   186  LEU186     -0.1231
    161  CA        84.1250  115.8150  112.0270 C.3   186  LEU186      0.1693
    162  C         84.0520  116.1470  113.5110 C.2   186  LEU186      0.2593
    163  O         83.0710  115.8380  114.1870 O.2   186  LEU186     -0.2718
    164  CB        84.0130  117.0670  111.1500 C.3   186  LEU186      0.0284
    165  CG        85.1480  118.0760  111.1140 C.3   186  LEU186      0.0019
    166  CD1       85.2380  118.6490  109.7310 C.3   186  LEU186      0.0001
    167  CD2       84.8610  119.1800  112.0950 C.3   186  LEU186      0.0001
    168  N         85.1130  116.7390  114.0230 N.am  187  GLY187     -0.1942
    169  CA        85.1580  117.0870  115.4260 C.3   187  GLY187      0.2014
    170  C         86.2040  116.2730  116.1630 C.2   187  GLY187      0.2638
    171  O         86.3200  115.0530  115.9920 O.2   187  GLY187     -0.2714
    172  N         86.9780  116.9590  117.0010 N.am  188  ILE188     -0.1977
    173  CA        88.1330  116.3330  117.6250 C.3   188  ILE188      0.1596
    174  C         87.6860  115.2130  118.5540 C.2   188  ILE188      0.2287
    175  O         86.6160  115.2760  119.1720 O.2   188  ILE188     -0.2864
    176  CB        88.9730  117.3830  118.3680 C.3   188  ILE188      0.0276
    177  CG1       90.3100  116.7830  118.7890 C.3   188  ILE188      0.0022
    178  CG2       88.2290  117.9070  119.5690 C.3   188  ILE188      0.0022
    179  CD1       91.3190  117.8100  119.2140 C.3   188  ILE188      0.0001
    180  N         86.9890  112.4450  115.6400 N.3   191  HIS191     -0.1241
    181  CA        87.9040  112.3910  114.5090 C.3   191  HIS191      0.1621
    182  C         88.4140  110.9770  114.2850 C.2   191  HIS191      0.2264
    183  O         88.5600  110.5380  113.1430 O.2   191  HIS191     -0.2867
    184  CB        89.0540  113.3640  114.8010 C.3   191  HIS191      0.0745
    185  CG        90.0840  113.4880  113.7200 C.ar  191  HIS191      0.0817
    186  ND1       91.2880  114.1240  113.9350 N.ar  191  HIS191     -0.2268
    187  CD2       90.1030  113.0780  112.4310 C.ar  191  HIS191      0.1154
    188  CE1       92.0080  114.0960  112.8290 C.ar  191  HIS191      0.1986
    189  NE2       91.3130  113.4660  111.9010 N.ar  191  HIS191     -0.2212
    190  N        106.6280  107.7150  103.5190 N.3   218  LEU218     -0.1245
    191  CA       106.5760  108.5860  104.6900 C.3   218  LEU218      0.1561
    192  C        107.8450  108.4550  105.5300 C.2   218  LEU218      0.2260
    193  O        108.5050  109.4560  105.8670 O.2   218  LEU218     -0.2867
    194  CB       105.3320  108.2290  105.5050 C.3   218  LEU218      0.0270
    195  CG       104.7590  109.1090  106.6130 C.3   218  LEU218      0.0019
    196  CD1      105.5790  109.0280  107.8890 C.3   218  LEU218      0.0001
    197  CD2      104.6230  110.5360  106.1310 C.3   218  LEU218      0.0001
    198  N        107.7640  114.1940   99.1600 N.3   270  GLY270     -0.1210
    199  CA       106.7600  114.9350   99.8870 C.3   270  GLY270      0.1956
    200  C        105.3770  114.8920   99.2930 C.2   270  GLY270      0.2611
    201  O        104.4410  115.4400   99.8780 O.2   270  GLY270     -0.2717
    202  N        105.2190  114.2710   98.1500 N.am  271  ALA271     -0.1979
    203  CA       103.9060  114.1810   97.5320 C.3   271  ALA271      0.1597
    204  C        103.5120  112.7570   97.1870 C.2   271  ALA271      0.2287
    205  O        102.3380  112.3920   97.3660 O.2   271  ALA271     -0.2864
    206  CB       103.8660  115.0540   96.2740 C.3   271  ALA271      0.0319
    207  N        103.6290  109.9340   98.4920 N.3   273  SER273     -0.1202
    208  CA       102.9620  109.1440   99.5200 C.3   273  SER273      0.2020
    209  C        101.4600  109.3910   99.5130 C.2   273  SER273      0.2618
    210  O        100.6580  108.4620   99.3380 O.2   273  SER273     -0.2717
    211  CB       103.5470  109.4790  100.8890 C.3   273  SER273      0.2103
    212  OG       103.2260  110.8090  101.2440 O.3   273  SER273     -0.2182
    213  N        101.0600  110.6450   99.7130 N.am  274  VAL274     -0.1979
    214  CA        99.6390  110.9320   99.7890 C.3   274  VAL274      0.1595
    215  C         98.9790  110.6980   98.4360 C.2   274  VAL274      0.2287
    216  O         97.8020  110.3020   98.3700 O.2   274  VAL274     -0.2864
    217  CB        99.4180  112.3610  100.3140 C.3   274  VAL274      0.0276
    218  CG1       99.7870  113.3920   99.2630 C.3   274  VAL274      0.0022
    219  CG2       98.0000  112.5330  100.7940 C.3   274  VAL274      0.0022
@<TRIPOS>BOND
     1   100   101    1
     2    94    93    2
     3   107   108    1
     4    93    92    1
     5   102   101    1
     6   102   103    2
     7   123   124    1
     8   101   104    1
     9   108   109    1
    10   108   111    1
    11   206   203    1
    12   124   127    1
    13   124   125    1
    14    92    91    1
    15    92    95    1
    16   104   106    1
    17   104   105    1
    18   109   112   am
    19   109   110    2
    20   112   113    1
    21   204   205    2
    22   204   203    1
    23    95    96    1
    24   114   115    2
    25   114   113    1
    26   126   125    2
    27   125   128   am
    28   203   202    1
    29   113   116    1
    30   202   200   am
    31   116   117    1
    32   216   215    2
    33    98    97    2
    34    80    79    2
    35   215   214    1
    36   207   208    1
    37   128   129    1
    38    79    78    1
    39    96    97    1
    40   119   117   ar
    41   119   121   ar
    42    77    78    1
    43    69    68    2
    44   198   199    1
    45    97    99   am
    46   117   118   ar
    47   218   217    1
    48   200   201    2
    49   200   199    1
    50    68    67    1
    51   210   209    2
    52   209   208    1
    53   209   213   am
    54   130   129    1
    55   130   131    2
    56   208   211    1
    57    78    81    1
    58   121   122   ar
    59   213   214    1
    60   129   132    1
    61   214   217    1
    62   137   138    2
    63   137   136    1
    64   135   136    1
    65   217   219    1
    66   118   120   ar
    67    70    67    1
    68    70    71    1
    69    67    66    1
    70   136   139    1
    71   211   212    1
    72    64    63    2
    73    81    82    1
    74   133   132    1
    75   132   134    1
    76   122   120   ar
    77   141   140   ar
    78   141   143   ar
    79   139   140    1
    80    61    62    1
    81    66    63   am
    82    63    62    1
    83    82    84   ar
    84    82    83   ar
    85   140   142   ar
    86    87    84   ar
    87    87    89   ar
    88    62    65    1
    89   143   144   ar
    90    84    86   ar
    91    71    73   ar
    92    71    72   ar
    93    83    85   ar
    94    89    90   ar
    95    73    75   ar
    96    59    58    2
    97    46    45    2
    98    86    85   ar
    99    86    88   ar
   100    72    74   ar
   101    58    57    1
   102    90    88   ar
   103   142   144   ar
   104   142   145   ar
   105    54    53    2
   106   144   146   ar
   107    51    52    1
   108    45    44    1
   109   190   191    1
   110    52    53    1
   111    52    55    1
   112    53    56   am
   113    75    76   ar
   114    47    44    1
   115    47    48    1
   116     1     2    1
   117    74    76   ar
   118   145   147   ar
   119    56    57    1
   120   146   148   ar
   121    57    60    1
   122     2     3    1
   123    44    43    1
   124   191   194    1
   125   191   192    1
   126    48    49    1
   127   147   148   ar
   128    49    50    1
   129    43    38   am
   130   194   195    1
   131   192   193    2
   132    39    38    2
   133     3     5   am
   134     3     4    2
   135    38    37    1
   136   197   195    1
   137     5     6    1
   138    12    10    1
   139   195   196    1
   140    10     9    1
   141    36    37    1
   142   149   150    1
   143   153   154    1
   144   153   150    1
   145    37    40    1
   146     6     9    1
   147     6     7    1
   148   154   155   ar
   149   154   156   ar
   150   150   151    1
   151     9    11    1
   152   155   157   ar
   153   156   158   ar
   154   157   159   ar
   155    40    42    1
   156    40    41    1
   157     7     8    2
   158    13    14    1
   159   158   159   ar
   160   151   152    2
   161    14    15    1
   162   166   165    1
   163    15    17   am
   164    15    16    2
   165    17    18    1
   166   165   164    1
   167   165   167    1
   168   164   161    1
   169   160   161    1
   170   189   187   ar
   171   189   188   ar
   172   161   162    1
   173    23    21    1
   174   187   185   ar
   175    18    21    1
   176    18    19    1
   177   188   186   ar
   178    21    22    1
   179    24    25    1
   180   183   182    2
   181    19    20    2
   182    28    25    1
   183    28    29    1
   184   162   168   am
   185   162   163    2
   186    25    26    1
   187   185   186   ar
   188   185   184    1
   189    30    29   ar
   190    30    32   ar
   191   168   169    1
   192    29    31   ar
   193   182   181    1
   194   181   184    1
   195   181   180    1
   196    32    34   ar
   197    26    27    2
   198    31    33   ar
   199   169   170    1
   200    34    33   ar
   201    34    35    1
   202   171   170    2
   203   170   172   am
   204   172   173    1
   205   173   176    1
   206   173   174    1
   207   176   177    1
   208   176   178    1
   209   174   175    2
   210   177   179    1
