@<TRIPOS>MOLECULE
tmp/5yq7J02.pdb
 197 187 0 0 0
SMALL
GASTEIGER

@<TRIPOS>ATOM
      1  N         55.7110   64.6050  103.7120 N.3    89  TYR89      -0.1241
      2  CA        56.8620   65.2120  104.3700 C.3    89  TYR89       0.1605
      3  C         58.1540   64.5020  104.0060 C.2    89  TYR89       0.2264
      4  O         59.1950   65.1450  103.8240 O.2    89  TYR89      -0.2867
      5  CB        56.6690   65.1890  105.8830 C.3    89  TYR89       0.0534
      6  CG        57.8860   65.6510  106.6410 C.ar   89  TYR89      -0.0201
      7  CD1       58.2010   66.9960  106.7320 C.ar   89  TYR89      -0.0009
      8  CD2       58.7300   64.7370  107.2530 C.ar   89  TYR89      -0.0009
      9  CE1       59.3160   67.4170  107.4220 C.ar   89  TYR89       0.0417
     10  CE2       59.8460   65.1470  107.9410 C.ar   89  TYR89       0.0417
     11  CZ        60.1350   66.4880  108.0230 C.ar   89  TYR89       0.1957
     12  OH        61.2490   66.9070  108.7110 O.3    89  TYR89      -0.2866
     13  N         63.1380   64.5380  103.3150 N.3    94  VAL94      -0.1245
     14  CA        64.1010   63.4470  103.3870 C.3    94  VAL94       0.1561
     15  C         64.7590   63.2300  102.0310 C.2    94  VAL94       0.2260
     16  O         65.8270   62.6150  101.9370 O.2    94  VAL94      -0.2867
     17  CB        63.4020   62.1780  103.9110 C.3    94  VAL94       0.0252
     18  CG1       64.3830   61.0340  104.0730 C.3    94  VAL94       0.0019
     19  CG2       62.7090   62.4750  105.2260 C.3    94  VAL94       0.0019
     20  N         68.1470   52.0980   98.6090 N.3   104  TYR104     -0.1241
     21  CA        69.3430   52.4570   99.3690 C.3   104  TYR104      0.1605
     22  C         69.0610   52.4870  100.8620 C.2   104  TYR104      0.2264
     23  O         69.9860   52.6260  101.6730 O.2   104  TYR104     -0.2867
     24  CB        69.8880   53.8130   98.8940 C.3   104  TYR104      0.0534
     25  CG        71.0140   54.4220   99.6950 C.ar  104  TYR104     -0.0201
     26  CD1       72.3150   53.9600   99.5690 C.ar  104  TYR104     -0.0009
     27  CD2       70.7760   55.4820  100.5590 C.ar  104  TYR104     -0.0009
     28  CE1       73.3440   54.5300  100.2910 C.ar  104  TYR104      0.0417
     29  CE2       71.7960   56.0560  101.2840 C.ar  104  TYR104      0.0417
     30  CZ        73.0770   55.5770  101.1460 C.ar  104  TYR104      0.1957
     31  OH        74.1000   56.1450  101.8680 O.3   104  TYR104     -0.2866
     32  N         71.9430   51.4860  108.2370 N.3   122  LYS122     -0.1245
     33  CA        71.7540   52.8590  107.7880 C.3   122  LYS122      0.1561
     34  C         70.4450   53.4170  108.3250 C.2   122  LYS122      0.2260
     35  O         70.4180   54.4890  108.9420 O.2   122  LYS122     -0.2867
     36  CB        71.7870   52.9210  106.2620 C.3   122  LYS122      0.0271
     37  CG        73.0890   52.5290  105.6170 C.3   122  LYS122      0.0035
     38  CD        73.0110   52.7920  104.1320 C.3   122  LYS122      0.0206
     39  CE        74.2680   52.3160  103.4180 C.3   122  LYS122      0.1093
     40  NZ        75.5200   52.6170  104.2010 N.3   122  LYS122     -0.1314
     41  N         70.9680   54.6240  111.8120 N.3   125  THR125     -0.1203
     42  CA        71.6240   55.9180  111.9660 C.3   125  THR125      0.1994
     43  C         70.6590   57.0570  111.6800 C.2   125  THR125      0.2617
     44  O         70.5180   57.9870  112.4840 O.2   125  THR125     -0.2717
     45  CB        72.8340   56.0060  111.0390 C.3   125  THR125      0.1784
     46  OG1       72.3980   55.8850  109.6800 O.3   125  THR125     -0.2211
     47  CG2       73.8190   54.8950  111.3460 C.3   125  THR125      0.0376
     48  N         69.9690   56.9800  110.5400 N.am  126  ALA126     -0.1979
     49  CA        68.9670   57.9780  110.1900 C.3   126  ALA126      0.1597
     50  C         68.0390   58.2470  111.3650 C.2   126  ALA126      0.2287
     51  O         67.9550   59.3770  111.8580 O.2   126  ALA126     -0.2864
     52  CB        68.1770   57.5160  108.9660 C.3   126  ALA126      0.0319
     53  N         69.7840   60.1270  114.0030 N.3   129  MET129     -0.1230
     54  CA        69.8770   61.5250  113.6110 C.3   129  MET129      0.1702
     55  C         68.5090   62.1910  113.5820 C.2   129  MET129      0.2592
     56  O         68.3990   63.3880  113.8710 O.2   129  MET129     -0.2718
     57  CB        70.5650   61.6200  112.2510 C.3   129  MET129      0.0401
     58  CG        70.8490   63.0200  111.7780 C.3   129  MET129      0.0596
     59  SD        71.7140   62.9960  110.2040 S.3   129  MET129     -0.1393
     60  CE        73.3650   62.5380  110.6990 C.3   129  MET129      0.0692
     61  N         67.4580   61.4340  113.2470 N.am  130  MET130     -0.1979
     62  CA        66.1090   61.9920  113.2550 C.3   130  MET130      0.1605
     63  C         65.7930   62.6570  114.5840 C.2   130  MET130      0.2287
     64  O         65.1680   63.7230  114.6220 O.2   130  MET130     -0.2864
     65  CB        65.0780   60.9020  112.9580 C.3   130  MET130      0.0413
     66  CG        65.0650   60.4220  111.5220 C.3   130  MET130      0.0598
     67  SD        64.5900   61.7210  110.3700 S.3   130  MET130     -0.1393
     68  CE        62.8510   61.8870  110.7610 C.3   130  MET130      0.0692
     69  N         67.8560   64.0090  116.6580 N.3   132  MET132     -0.1230
     70  CA        68.7550   65.0970  117.0160 C.3   132  MET132      0.1702
     71  C         68.0960   66.4530  116.7960 C.2   132  MET132      0.2593
     72  O         67.8070   67.1790  117.7540 O.2   132  MET132     -0.2718
     73  CB        70.0530   64.9650  116.2170 C.3   132  MET132      0.0401
     74  CG        71.1170   65.9950  116.5390 C.3   132  MET132      0.0596
     75  SD        71.0010   67.4680  115.5140 S.3   132  MET132     -0.1393
     76  CE        71.6430   66.8440  113.9660 C.3   132  MET132      0.0692
     77  N         67.8070   66.7890  115.5390 N.am  133  SER133     -0.1952
     78  CA        67.3570   68.1380  115.2100 C.3   133  SER133      0.1924
     79  C         66.1150   68.5230  116.0030 C.2   133  SER133      0.2314
     80  O         66.1050   69.5350  116.7130 O.2   133  SER133     -0.2863
     81  CB        67.0840   68.2420  113.7130 C.3   133  SER133      0.2116
     82  OG        65.9750   67.4400  113.3590 O.3   133  SER133     -0.2180
     83  N         66.5410   74.0490  111.8070 N.3   153  ILE153     -0.1231
     84  CA        67.4580   73.2040  111.0600 C.3   153  ILE153      0.1692
     85  C         66.6950   71.9450  110.6830 C.2   153  ILE153      0.2593
     86  O         65.9640   71.3810  111.5060 O.2   153  ILE153     -0.2718
     87  CB        68.7240   72.8730  111.8590 C.3   153  ILE153      0.0266
     88  CG1       68.3720   72.2270  113.1950 C.3   153  ILE153      0.0019
     89  CG2       69.5420   74.1150  112.0880 C.3   153  ILE153      0.0020
     90  CD1       69.5730   71.7130  113.9460 C.3   153  ILE153      0.0001
     91  N         66.8290   71.5270  109.4330 N.am  154  THR154     -0.1939
     92  CA        66.1950   70.2950  109.0090 C.3   154  THR154      0.2028
     93  C         67.2460   69.3020  108.5340 C.2   154  THR154      0.2642
     94  O         68.4110   69.6420  108.3240 O.2   154  THR154     -0.2714
     95  CB        65.1830   70.5530  107.8990 C.3   154  THR154      0.1808
     96  OG1       64.4360   69.3580  107.6530 O.3   154  THR154     -0.2208
     97  CG2       65.8910   70.9490  106.6290 C.3   154  THR154      0.0379
     98  N         66.8170   68.0500  108.3750 N.am  155  CYS155     -0.1967
     99  CA        67.7280   67.0210  107.8900 C.3   155  CYS155      0.1712
    100  C         68.3090   67.3990  106.5360 C.2   155  CYS155      0.2296
    101  O         69.3800   66.9160  106.1550 O.2   155  CYS155     -0.2864
    102  CB        67.0080   65.6790  107.8020 C.3   155  CYS155      0.0983
    103  SG        65.7300   65.6100  106.5290 S.3   155  CYS155     -0.0798
    104  N         68.9790   70.6170  105.8470 N.3   157  THR157     -0.1203
    105  CA        69.9770   71.6070  106.2220 C.3   157  THR157      0.1994
    106  C         71.2830   70.9080  106.5610 C.2   157  THR157      0.2618
    107  O         71.2870   69.8380  107.1740 O.2   157  THR157     -0.2717
    108  CB        69.5000   72.4230  107.4210 C.3   157  THR157      0.1784
    109  OG1       68.2560   73.0560  107.1060 O.3   157  THR157     -0.2211
    110  CG2       70.5250   73.4810  107.7840 C.3   157  THR157      0.0376
    111  N         72.3900   71.4920  106.1060 N.am  158  CYS158     -0.1955
    112  CA        73.7370   71.0150  106.4040 C.3   158  CYS158      0.1843
    113  C         74.0450   69.7240  105.6570 C.2   158  CYS158      0.2625
    114  O         75.1860   69.2560  105.6630 O.2   158  CYS158     -0.2714
    115  CB        73.9270   70.8150  107.9090 C.3   158  CYS158      0.0997
    116  SG        73.8210   72.3330  108.8660 S.3   158  CYS158     -0.0797
    117  N         73.0440   69.1460  105.0080 N.am  159  HIS159     -0.1973
    118  CA        73.2450   68.1030  104.0090 C.3   159  HIS159      0.1656
    119  C         72.9350   68.7670  102.6760 C.2   159  HIS159      0.2291
    120  O         71.8170   68.6840  102.1680 O.2   159  HIS159     -0.2864
    121  CB        72.3650   66.8820  104.2520 C.3   159  HIS159      0.0771
    122  CG        72.7400   66.0900  105.4650 C.ar  159  HIS159      0.0820
    123  ND1       73.7820   65.1880  105.4780 N.ar  159  HIS159     -0.2267
    124  CD2       72.2090   66.0670  106.7090 C.ar  159  HIS159      0.1154
    125  CE1       73.8720   64.6410  106.6770 C.ar  159  HIS159      0.1986
    126  NE2       72.9330   65.1620  107.4440 N.ar  159  HIS159     -0.2212
    127  N         75.1300   64.5900  100.1980 N.3   163  ALA163     -0.1231
    128  CA        74.6690   63.5010  101.0580 C.3   163  ALA163      0.1694
    129  C         75.7100   62.4050  101.2500 C.2   163  ALA163      0.2592
    130  O         75.3790   61.3050  101.7000 O.2   163  ALA163     -0.2718
    131  CB        73.3840   62.8830  100.5090 C.3   163  ALA163      0.0304
    132  N         76.9630   62.6890  100.9210 N.am  164  ALA164     -0.1966
    133  CA        78.0330   61.7110  101.0090 C.3   164  ALA164      0.1728
    134  C         79.3800   62.4150  101.0460 C.2   164  ALA164      0.2617
    135  O         79.6850   63.2690  100.2090 O.2   164  ALA164     -0.2715
    136  CB        77.9820   60.7340   99.8310 C.3   164  ALA164      0.0334
    137  N         80.1840   62.0420  102.0340 N.am  165  GLY165     -0.1940
    138  CA        81.4990   62.6520  102.1770 C.3   165  GLY165      0.2014
    139  C         81.4460   64.1410  102.4240 C.2   165  GLY165      0.2638
    140  O         82.3430   64.8760  101.9910 O.2   165  GLY165     -0.2714
    141  N         80.4030   64.6090  103.1050 N.am  166  LEU166     -0.1977
    142  CA        80.3150   66.0220  103.4380 C.3   166  LEU166      0.1596
    143  C         81.5160   66.4350  104.2720 C.2   166  LEU166      0.2287
    144  O         82.1400   65.6100  104.9440 O.2   166  LEU166     -0.2864
    145  CB        79.0210   66.3140  104.1890 C.3   166  LEU166      0.0297
    146  CG        77.7670   66.1470  103.3370 C.3   166  LEU166      0.0022
    147  CD1       76.5200   66.3670  104.1700 C.3   166  LEU166      0.0001
    148  CD2       77.8060   67.1050  102.1630 C.3   166  LEU166      0.0001
    149  N         77.1630   69.9930  120.5320 N.3   254  ILE254     -0.1245
    150  CA        77.1560   69.0220  119.4390 C.3   254  ILE254      0.1561
    151  C         78.4370   68.2040  119.4530 C.2   254  ILE254      0.2260
    152  O         78.4070   66.9670  119.4560 O.2   254  ILE254     -0.2867
    153  CB        76.9640   69.7230  118.0840 C.3   254  ILE254      0.0252
    154  CG1       75.5620   70.3140  117.9780 C.3   254  ILE254      0.0019
    155  CG2       77.2320   68.7570  116.9500 C.3   254  ILE254      0.0019
    156  CD1       75.3670   71.1850  116.7680 C.3   254  ILE254      0.0001
    157  N         78.9770   59.6740  114.4970 N.3   269  ILE269     -0.1231
    158  CA        78.4250   59.9000  113.1640 C.3   269  ILE269      0.1692
    159  C         79.6090   60.1560  112.2360 C.2   269  ILE269      0.2591
    160  O         80.0810   61.2890  112.0990 O.2   269  ILE269     -0.2718
    161  CB        77.4280   61.0590  113.1340 C.3   269  ILE269      0.0266
    162  CG1       76.2470   60.7410  114.0560 C.3   269  ILE269      0.0019
    163  CG2       76.9520   61.3130  111.7150 C.3   269  ILE269      0.0020
    164  CD1       75.3560   61.9210  114.3490 C.3   269  ILE269      0.0001
    165  N         80.1120   59.0900  111.6130 N.am  270  MET270     -0.1979
    166  CA        81.1390   59.1440  110.5760 C.3   270  MET270      0.1605
    167  C         82.4480   59.7570  111.0560 C.2   270  MET270      0.2287
    168  O         83.3870   59.9020  110.2670 O.2   270  MET270     -0.2864
    169  CB        80.6300   59.9130  109.3600 C.3   270  MET270      0.0413
    170  CG        81.4950   59.6500  108.1360 C.3   270  MET270      0.0598
    171  SD        80.9940   60.5880  106.6630 S.3   270  MET270     -0.1393
    172  CE        79.2380   60.3730  106.6810 C.3   270  MET270      0.0692
    173  N         83.2960   62.6630  111.5370 N.3   272  GLY272     -0.1225
    174  CA        83.6850   63.8930  110.8670 C.3   272  GLY272      0.1811
    175  C         84.4400   64.8340  111.7810 C.2   272  GLY272      0.2280
    176  O         85.3080   65.5840  111.3280 O.2   272  GLY272     -0.2866
    177  N         82.2230   69.9410  113.5560 N.3   275  PRO275     -0.2116
    178  CA        81.1140   70.8660  113.2730 C.3   275  PRO275      0.1372
    179  C         81.6560   72.2920  113.2150 C.2   275  PRO275      0.2244
    180  O         81.6090   73.0630  114.1700 O.2   275  PRO275     -0.2868
    181  CB        80.1750   70.6430  114.4590 C.3   275  PRO275      0.0268
    182  CG        80.5570   69.3140  115.0150 C.3   275  PRO275      0.0207
    183  CD        82.0310   69.2320  114.8280 C.3   275  PRO275      0.0892
    184  N         78.9140   75.5630  108.3980 N.3   279  LEU279     -0.1231
    185  CA        78.5360   74.4100  107.6060 C.3   279  LEU279      0.1693
    186  C         77.1120   74.6790  107.1560 C.2   279  LEU279      0.2592
    187  O         76.5720   73.9930  106.2850 O.2   279  LEU279     -0.2718
    188  CB        78.6730   73.1270  108.4220 C.3   279  LEU279      0.0284
    189  CG        78.7450   71.8090  107.6560 C.3   279  LEU279      0.0019
    190  CD1       79.5940   70.8310  108.4380 C.3   279  LEU279      0.0001
    191  CD2       77.3780   71.2250  107.4260 C.3   279  LEU279      0.0001
    192  N         76.5150   75.7170  107.7430 N.am  280  CYS280     -0.1970
    193  CA        75.1780   76.1360  107.3490 C.3   280  CYS280      0.1712
    194  C         75.1450   77.6260  107.0280 C.2   280  CYS280      0.2296
    195  O         74.3050   78.0780  106.2440 O.2   280  CYS280     -0.2864
    196  CB        74.1780   75.7940  108.4510 C.3   280  CYS280      0.0983
    197  SG        74.1990   74.0860  109.0490 S.3   280  CYS280     -0.0798
@<TRIPOS>BOND
     1    20    21    1
     2    24    21    1
     3    24    25    1
     4    21    22    1
     5    26    25   ar
     6    26    28   ar
     7    25    27   ar
     8   136   133    1
     9   127   128    1
    10   135   134    2
    11    28    30   ar
    12   131   128    1
    13    27    29   ar
    14    22    23    2
    15   132   133    1
    16   132   129   am
    17   133   134    1
    18   134   137   am
    19   128   129    1
    20    30    29   ar
    21    30    31    1
    22   129   130    2
    23    16    15    2
    24   140   139    2
    25    15    14    1
    26   137   138    1
    27   148   146    1
    28   120   119    2
    29   138   139    1
    30   139   141   am
    31   119   118    1
    32   141   142    1
    33    13    14    1
    34   146   147    1
    35   146   145    1
    36    14    17    1
    37    39    38    1
    38    39    40    1
    39   142   145    1
    40   142   143    1
    41     1     2    1
    42     4     3    2
    43    17    18    1
    44    17    19    1
    45     3     2    1
    46   118   121    1
    47   118   117    1
    48    38    37    1
    49   121   122    1
    50   143   144    2
    51     2     5    1
    52   117   113   am
    53   122   123   ar
    54   122   124   ar
    55   123   125   ar
    56    37    36    1
    57   113   114    2
    58   113   112    1
    59   104   105    1
    60     5     6    1
    61   111   112    1
    62   111   106   am
    63   101   100    2
    64   105   106    1
    65   105   108    1
    66   195   194    2
    67    36    33    1
    68   187   186    2
    69   112   115    1
    70   103   102    1
    71   100    99    1
    72   106   107    2
    73    97    95    1
    74     6     7   ar
    75     6     8   ar
    76   171   172    1
    77   171   170    1
    78   125   126   ar
    79   124   126   ar
    80     7     9   ar
    81   194   193    1
    82   109   108    1
    83   186   185    1
    84   186   192   am
    85     8    10   ar
    86   193   192    1
    87   193   196    1
    88   108   110    1
    89     9    11   ar
    90   191   189    1
    91   185   184    1
    92   185   188    1
    93    96    95    1
    94   189   188    1
    95   189   190    1
    96    33    32    1
    97    33    34    1
    98   102    99    1
    99    99    98    1
   100    95    92    1
   101   115   116    1
   102    10    11   ar
   103    11    12    1
   104   170   169    1
   105    94    93    2
   106    34    35    2
   107    98    93   am
   108   196   197    1
   109    93    92    1
   110   116   197    1
   111    52    49    1
   112    92    91    1
   113   169   166    1
   114    91    85   am
   115    46    45    1
   116    49    48    1
   117    49    50    1
   118    59    60    1
   119    59    58    1
   120   168   167    2
   121    67    68    1
   122    67    66    1
   123    48    43   am
   124   166   167    1
   125   166   165    1
   126    85    84    1
   127    85    86    2
   128   174   173    1
   129   174   175    1
   130    45    47    1
   131    45    42    1
   132    84    83    1
   133    84    87    1
   134   176   175    2
   135    50    51    2
   136    66    65    1
   137   165   159   am
   138    43    42    1
   139    43    44    2
   140   163   161    1
   141    58    57    1
   142    41    42    1
   143    87    89    1
   144    87    88    1
   145   160   159    2
   146   159   158    1
   147    57    54    1
   148    65    62    1
   149   161   158    1
   150   161   162    1
   151   158   157    1
   152    88    90    1
   153   179   178    1
   154   179   180    2
   155    61    62    1
   156    61    55   am
   157    62    63    1
   158   178   177    1
   159   178   181    1
   160    82    81    1
   161   177   183    1
   162    55    54    1
   163    55    56    2
   164    54    53    1
   165    81    78    1
   166    76    75    1
   167   162   164    1
   168   181   182    1
   169    63    64    2
   170   183   182    1
   171    78    77    1
   172    78    79    1
   173    75    74    1
   174    77    71   am
   175    79    80    2
   176    73    74    1
   177    73    70    1
   178    69    70    1
   179   156   154    1
   180    71    70    1
   181    71    72    2
   182   155   153    1
   183   154   153    1
   184   153   150    1
   185   150   151    1
   186   150   149    1
   187   151   152    2
