@<TRIPOS>MOLECULE
tmp/5yq7D02.pdb
 203 200 0 0 0
SMALL
GASTEIGER

@<TRIPOS>ATOM
      1  N        107.2230  105.5730  101.7770 N.3   217  LEU217     -0.1245
      2  CA       107.5050  106.9460  101.3780 C.3   217  LEU217      0.1561
      3  C        107.5670  107.8680  102.5870 C.2   217  LEU217      0.2260
      4  O        108.4680  108.7040  102.6900 O.2   217  LEU217     -0.2867
      5  CB       106.4570  107.4340  100.3820 C.3   217  LEU217      0.0270
      6  CG       106.7430  107.1600   98.9060 C.3   217  LEU217      0.0019
      7  CD1      107.9980  107.8930   98.4880 C.3   217  LEU217      0.0001
      8  CD2      106.8800  105.6810   98.6210 C.3   217  LEU217      0.0001
      9  N        115.2860  111.2200  105.1000 N.3   224  PHE224     -0.1241
     10  CA       116.0210  112.2100  104.3200 C.3   224  PHE224      0.1605
     11  C        116.0450  113.5520  105.0310 C.2   224  PHE224      0.2264
     12  O        117.0440  114.2800  104.9720 O.2   224  PHE224     -0.2867
     13  CB       115.4150  112.3830  102.9280 C.3   224  PHE224      0.0534
     14  CG       115.5370  111.1770  102.0500 C.ar  224  PHE224     -0.0203
     15  CD1      116.7680  110.7700  101.5830 C.ar  224  PHE224     -0.0042
     16  CD2      114.4120  110.5040  101.6190 C.ar  224  PHE224     -0.0042
     17  CE1      116.8800  109.6710  100.7590 C.ar  224  PHE224     -0.0003
     18  CE2      114.5140  109.4060  100.7940 C.ar  224  PHE224     -0.0003
     19  CZ       115.7500  108.9900  100.3610 C.ar  224  PHE224     -0.0000
     20  N        118.5960  113.5030  107.7470 N.3   227  MET227     -0.1230
     21  CA       119.9210  113.4400  107.1400 C.3   227  MET227      0.1702
     22  C        120.3810  114.8190  106.6880 C.2   227  MET227      0.2592
     23  O        121.4620  115.2840  107.0660 O.2   227  MET227     -0.2718
     24  CB       119.9140  112.4660  105.9640 C.3   227  MET227      0.0401
     25  CG       119.6210  111.0440  106.3660 C.3   227  MET227      0.0596
     26  SD       120.8210  110.4170  107.5450 S.3   227  MET227     -0.1393
     27  CE       122.2380  110.2360  106.4810 C.3   227  MET227      0.0692
     28  N        119.5760  115.4730  105.8460 N.am  228  HIS228     -0.1976
     29  CA       119.9240  116.8040  105.3560 C.3   228  HIS228      0.1656
     30  C        120.1830  117.7630  106.5060 C.2   228  HIS228      0.2291
     31  O        121.1580  118.5290  106.4810 O.2   228  HIS228     -0.2864
     32  CB       118.8080  117.3380  104.4630 C.3   228  HIS228      0.0771
     33  CG       119.0810  118.6930  103.8930 C.ar  228  HIS228      0.0820
     34  ND1      119.9830  118.9010  102.8750 N.ar  228  HIS228     -0.2267
     35  CD2      118.5600  119.9060  104.1870 C.ar  228  HIS228      0.1154
     36  CE1      120.0090  120.1850  102.5670 C.ar  228  HIS228      0.1986
     37  NE2      119.1530  120.8170  103.3480 N.ar  228  HIS228     -0.2212
     38  N        123.4360  116.9770  108.3840 N.3   231  ALA231     -0.1231
     39  CA       124.5700  117.3190  107.5360 C.3   231  ALA231      0.1694
     40  C        124.8420  118.8160  107.5710 C.2   231  ALA231      0.2591
     41  O        125.9380  119.2550  107.9350 O.2   231  ALA231     -0.2718
     42  CB       124.3160  116.8480  106.1050 C.3   231  ALA231      0.0304
     43  N        123.8420  119.6190  107.2090 N.am  232  VAL232     -0.1980
     44  CA       124.0850  121.0470  107.0280 C.3   232  VAL232      0.1595
     45  C        124.4340  121.7170  108.3500 C.2   232  VAL232      0.2287
     46  O        125.2780  122.6190  108.3930 O.2   232  VAL232     -0.2864
     47  CB       122.8730  121.7120  106.3590 C.3   232  VAL232      0.0276
     48  CG1      123.0630  123.2140  106.2970 C.3   232  VAL232      0.0022
     49  CG2      122.6800  121.1450  104.9700 C.3   232  VAL232      0.0022
     50  N        132.3040  118.0570  102.8400 N.3   245  ILE245     -0.1231
     51  CA       131.1510  117.2140  103.1350 C.3   245  ILE245      0.1692
     52  C        131.0290  116.1020  102.1060 C.2   245  ILE245      0.2592
     53  O        130.6600  114.9670  102.4350 O.2   245  ILE245     -0.2718
     54  CB       129.8780  118.0740  103.1910 C.3   245  ILE245      0.0266
     55  CG1      130.0130  119.1440  104.2690 C.3   245  ILE245      0.0019
     56  CG2      128.6710  117.2180  103.4770 C.3   245  ILE245      0.0020
     57  CD1      128.9390  120.2060  104.2060 C.3   245  ILE245      0.0001
     58  N        131.3000  116.4170  100.8390 N.am  246  HIS246     -0.1976
     59  CA       131.3830  115.3840   99.8140 C.3   246  HIS246      0.1656
     60  C        132.3100  114.2590  100.2500 C.2   246  HIS246      0.2291
     61  O        131.9120  113.0900  100.3090 O.2   246  HIS246     -0.2864
     62  CB       131.8740  115.9890   98.5030 C.3   246  HIS246      0.0771
     63  CG       130.9460  117.0040   97.9200 C.ar  246  HIS246      0.0820
     64  ND1      129.7740  116.6600   97.2820 N.ar  246  HIS246     -0.2267
     65  CD2      131.0190  118.3540   97.8700 C.ar  246  HIS246      0.1154
     66  CE1      129.1640  117.7550   96.8670 C.ar  246  HIS246      0.1986
     67  NE2      129.8980  118.7970   97.2110 N.ar  246  HIS246     -0.2212
     68  N        130.8460  112.1040  102.9700 N.3   249  TRP249     -0.1241
     69  CA       129.8470  111.1420  102.5160 C.3   249  TRP249      0.1605
     70  C        130.4710  110.0060  101.7300 C.2   249  TRP249      0.2264
     71  O        129.9350  108.8930  101.7280 O.2   249  TRP249     -0.2867
     72  CB       128.7760  111.8210  101.6670 C.3   249  TRP249      0.0550
     73  CG       127.8530  112.6430  102.4630 C.ar  249  TRP249      0.0003
     74  CD1      127.8310  113.9970  102.5510 C.ar  249  TRP249      0.0946
     75  CD2      126.8310  112.1660  103.3330 C.ar  249  TRP249      0.0152
     76  NE1      126.8370  114.3990  103.4050 N.ar  249  TRP249     -0.2442
     77  CE2      126.2120  113.2890  103.9040 C.ar  249  TRP249      0.0810
     78  CE3      126.3730  110.8960  103.6800 C.ar  249  TRP249      0.0012
     79  CZ2      125.1640  113.1830  104.7980 C.ar  249  TRP249      0.0191
     80  CZ3      125.3340  110.7940  104.5670 C.ar  249  TRP249      0.0001
     81  CH2      124.7410  111.9290  105.1170 C.ar  249  TRP249      0.0015
     82  N        127.1720  105.3900  101.8030 N.3   254  GLY254     -0.1210
     83  CA       126.7300  106.3550  100.8230 C.3   254  GLY254      0.1956
     84  C        127.8570  106.8740   99.9480 C.2   254  GLY254      0.2612
     85  O        128.9940  106.4010   99.9800 O.2   254  GLY254     -0.2717
     86  N        127.5060  107.8710   99.1410 N.am  255  TYR255     -0.1962
     87  CA       128.3760  108.5450   98.1900 C.3   255  TYR255      0.1771
     88  C        127.6220  109.7660   97.6890 C.2   255  TYR255      0.2620
     89  O        126.4230  109.6810   97.4190 O.2   255  TYR255     -0.2715
     90  CB       128.7570  107.6090   97.0390 C.3   255  TYR255      0.0574
     91  CG       127.5590  107.1060   96.2840 C.ar  255  TYR255     -0.0198
     92  CD1      126.8280  106.0250   96.7510 C.ar  255  TYR255     -0.0009
     93  CD2      127.1640  107.6990   95.1000 C.ar  255  TYR255     -0.0009
     94  CE1      125.7260  105.5620   96.0700 C.ar  255  TYR255      0.0417
     95  CE2      126.0770  107.2310   94.4060 C.ar  255  TYR255      0.0417
     96  CZ       125.3560  106.1710   94.8950 C.ar  255  TYR255      0.1957
     97  OH       124.2630  105.7180   94.1960 O.3   255  TYR255     -0.2866
     98  N        128.3190  110.8930   97.5630 N.am  256  SER256     -0.1936
     99  CA       127.6270  112.1650   97.3900 C.3   256  SER256      0.2055
    100  C        126.9830  112.2640   96.0180 C.2   256  SER256      0.2643
    101  O        127.3850  113.0910   95.1950 O.2   256  SER256     -0.2714
    102  CB       128.5920  113.3320   97.5920 C.3   256  SER256      0.2130
    103  OG       127.9420  114.5670   97.3520 O.3   256  SER256     -0.2179
    104  N        125.9700  111.4320   95.7700 N.am  257  ILE257     -0.1963
    105  CA       125.3590  111.3860   94.4470 C.3   257  ILE257      0.1727
    106  C        124.5040  112.6220   94.1980 C.2   257  ILE257      0.2617
    107  O        124.5950  113.2500   93.1370 O.2   257  ILE257     -0.2715
    108  CB       124.5540  110.0840   94.2720 C.3   257  ILE257      0.0290
    109  CG1      124.0290  109.9570   92.8390 C.3   257  ILE257      0.0022
    110  CG2      123.4490  109.9540   95.3120 C.3   257  ILE257      0.0023
    111  CD1      123.5060  108.5750   92.4950 C.3   257  ILE257      0.0001
    112  N        123.6740  113.0000   95.1630 N.am  258  GLY258     -0.1940
    113  CA       122.8080  114.1410   94.9770 C.3   258  GLY258      0.2014
    114  C        123.5560  115.4250   95.2450 C.2   258  GLY258      0.2639
    115  O        123.3580  116.0310   96.2980 O.2   258  GLY258     -0.2714
    116  N        124.3870  115.8520   94.2870 N.am  259  GLU259     -0.1963
    117  CA       125.3880  116.8940   94.5020 C.3   259  GLU259      0.1733
    118  C        124.8440  118.0570   95.3250 C.2   259  GLU259      0.2616
    119  O        125.3130  118.3310   96.4400 O.2   259  GLU259     -0.2715
    120  CB       125.8940  117.4090   93.1490 C.3   259  GLU259      0.0429
    121  CG       126.6330  116.3910   92.2870 C.3   259  GLU259      0.1163
    122  CD       127.9930  116.0120   92.8360 C.2   259  GLU259      0.3649
    123  OE1      128.6300  116.8630   93.4910 O.co2 259  GLU259     -0.2457
    124  OE2      128.4330  114.8660   92.5970 O.co2 259  GLU259     -0.2457
    125  N        123.8380  118.7380   94.7830 N.am  260  ILE260     -0.1977
    126  CA       123.1620  119.8280   95.4700 C.3   260  ILE260      0.1596
    127  C        121.6650  119.5610   95.4470 C.2   260  ILE260      0.2287
    128  O        120.9240  120.0070   96.3290 O.2   260  ILE260     -0.2864
    129  CB       123.4970  121.1730   94.8050 C.3   260  ILE260      0.0276
    130  CG1      125.0040  121.4090   94.8260 C.3   260  ILE260      0.0022
    131  CG2      122.7950  122.3120   95.5050 C.3   260  ILE260      0.0022
    132  CD1      125.4460  122.5330   93.9240 C.3   260  ILE260      0.0001
    133  N        119.4520  117.3040   96.1410 N.3   262  ILE262     -0.1245
    134  CA       118.6400  116.4030   96.9560 C.3   262  ILE262      0.1561
    135  C        117.3270  117.0540   97.3540 C.2   262  ILE262      0.2260
    136  O        116.3550  116.3530   97.6780 O.2   262  ILE262     -0.2867
    137  CB       119.4110  115.9300   98.2030 C.3   262  ILE262      0.0252
    138  CG1      119.8030  117.1150   99.0780 C.3   262  ILE262      0.0019
    139  CG2      120.6300  115.1300   97.8060 C.3   262  ILE262      0.0019
    140  CD1      120.3800  116.7000  100.4070 C.3   262  ILE262      0.0001
    141  N        114.5910  115.3860   95.3390 N.3   265  VAL265     -0.1245
    142  CA       114.0950  114.1290   95.8980 C.3   265  VAL265      0.1561
    143  C        113.1820  114.3940   97.0850 C.2   265  VAL265      0.2260
    144  O        112.1560  113.7190   97.2720 O.2   265  VAL265     -0.2867
    145  CB       115.2770  113.2290   96.2890 C.3   265  VAL265      0.0252
    146  CG1      114.7880  111.9810   96.9880 C.3   265  VAL265      0.0019
    147  CG2      116.0760  112.8740   95.0620 C.3   265  VAL265      0.0019
    148  N        109.8810  115.2980   95.7310 N.3   268  TRP268     -0.1227
    149  CA       109.1750  114.1450   95.1750 C.3   268  TRP268      0.1737
    150  C        108.4840  113.3510   96.2780 C.2   268  TRP268      0.2596
    151  O        107.2610  113.1220   96.2470 O.2   268  TRP268     -0.2718
    152  CB       110.1460  113.2360   94.4200 C.3   268  TRP268      0.0564
    153  CG       110.7850  113.8100   93.1930 C.ar  268  TRP268      0.0003
    154  CD1      112.0270  114.3550   93.1010 C.ar  268  TRP268      0.0946
    155  CD2      110.2370  113.8470   91.8770 C.ar  268  TRP268      0.0152
    156  NE1      112.2810  114.7570   91.8190 N.ar  268  TRP268     -0.2442
    157  CE2      111.1970  114.4510   91.0430 C.ar  268  TRP268      0.0810
    158  CE3      109.0270  113.4350   91.3210 C.ar  268  TRP268      0.0012
    159  CZ2      110.9840  114.6560   89.6910 C.ar  268  TRP268      0.0191
    160  CZ3      108.8180  113.6390   89.9760 C.ar  268  TRP268      0.0001
    161  CH2      109.7920  114.2440   89.1770 C.ar  268  TRP268      0.0015
    162  N        109.2700  112.9230   97.2690 N.am  269  THR269     -0.1953
    163  CA       108.7300  112.1040   98.3430 C.3   269  THR269      0.1897
    164  C        107.7490  112.8680   99.2130 C.2   269  THR269      0.2313
    165  O        106.9740  112.2430   99.9430 O.2   269  THR269     -0.2863
    166  CB       109.8570  111.5590   99.2090 C.3   269  THR269      0.1794
    167  OG1      110.5590  112.6530   99.8070 O.3   269  THR269     -0.2208
    168  CG2      110.8190  110.7560   98.3640 C.3   269  THR269      0.0378
    169  N        104.4660  111.9410   96.7220 N.3   272  ALA272     -0.1245
    170  CA       104.1240  110.6180   96.2030 C.3   272  ALA272      0.1562
    171  C        103.3120  109.8010   97.2030 C.2   272  ALA272      0.2260
    172  O        102.3970  109.0570   96.8190 O.2   272  ALA272     -0.2867
    173  CB       105.3960  109.8660   95.8140 C.3   272  ALA272      0.0290
    174  N         99.7250  110.8950   97.3420 N.3   275  LEU275     -0.1231
    175  CA        99.2050  110.5440   96.0250 C.3   275  LEU275      0.1693
    176  C         98.7090  109.1050   96.0010 C.2   275  LEU275      0.2592
    177  O         97.5400  108.8420   95.7010 O.2   275  LEU275     -0.2718
    178  CB       100.2730  110.7590   94.9560 C.3   275  LEU275      0.0284
    179  CG       100.6160  112.2100   94.6410 C.3   275  LEU275      0.0019
    180  CD1      101.7870  112.2720   93.6840 C.3   275  LEU275      0.0001
    181  CD2       99.4060  112.9050   94.0500 C.3   275  LEU275      0.0001
    182  N         99.5900  108.1570   96.3210 N.am  276  PHE276     -0.1976
    183  CA        99.1740  106.7560   96.3050 C.3   276  PHE276      0.1639
    184  C         98.0770  106.4790   97.3290 C.2   276  PHE276      0.2290
    185  O         97.1490  105.7030   97.0600 O.2   276  PHE276     -0.2864
    186  CB       100.3670  105.8360   96.5430 C.3   276  PHE276      0.0560
    187  CG       101.2970  105.7390   95.3760 C.ar  276  PHE276     -0.0200
    188  CD1      100.9680  104.9650   94.2810 C.ar  276  PHE276     -0.0042
    189  CD2      102.5080  106.3990   95.3800 C.ar  276  PHE276     -0.0042
    190  CE1      101.8210  104.8650   93.2070 C.ar  276  PHE276     -0.0003
    191  CE2      103.3660  106.3020   94.3080 C.ar  276  PHE276     -0.0003
    192  CZ       103.0230  105.5330   93.2200 C.ar  276  PHE276     -0.0000
    193  N         84.7930   97.9600   94.2960 N.3   287  PHE287     -0.1241
    194  CA        85.7050   97.0730   93.5880 C.3   287  PHE287      0.1605
    195  C         86.4650   96.1460   94.5330 C.2   287  PHE287      0.2264
    196  O         87.1360   95.2340   94.0550 O.2   287  PHE287     -0.2867
    197  CB        86.7410   97.8240   92.7270 C.3   287  PHE287      0.0534
    198  CG        86.1420   98.6610   91.6400 C.ar  287  PHE287     -0.0203
    199  CD1       84.8300   98.4880   91.2550 C.ar  287  PHE287     -0.0042
    200  CD2       86.8960   99.6330   91.0050 C.ar  287  PHE287     -0.0042
    201  CE1       84.2800   99.2630   90.2560 C.ar  287  PHE287     -0.0003
    202  CE2       86.3510  100.4110   90.0060 C.ar  287  PHE287     -0.0003
    203  CZ        85.0420  100.2250   89.6310 C.ar  287  PHE287     -0.0000
@<TRIPOS>BOND
     1   161   159   ar
     2   161   160   ar
     3   203   202   ar
     4   203   201   ar
     5   159   157   ar
     6   160   158   ar
     7   202   200   ar
     8   201   199   ar
     9   200   198   ar
    10   157   156   ar
    11   157   155   ar
    12   199   198   ar
    13   158   155   ar
    14   198   197    1
    15   156   154   ar
    16   155   153   ar
    17   121   122    1
    18   121   120    1
    19   111   109    1
    20   124   122   ar
    21   197   194    1
    22   122   123   ar
    23   109   108    1
    24   154   153   ar
    25   107   106    2
    26   120   117    1
    27   153   152    1
    28   190   192   ar
    29   190   188   ar
    30   192   191   ar
    31   194   193    1
    32   194   195    1
    33   180   179    1
    34   132   130    1
    35   181   179    1
    36   196   195    2
    37    97    96    1
    38   106   105    1
    39   106   112   am
    40   108   105    1
    41   108   110    1
    42   188   187   ar
    43   116   117    1
    44   116   114   am
    45   191   189   ar
    46    95    96   ar
    47    95    93   ar
    48   152   149    1
    49   105   104    1
    50   117   118    1
    51   179   178    1
    52   125   118   am
    53   125   126    1
    54   129   130    1
    55   129   126    1
    56   129   131    1
    57    96    94   ar
    58   178   175    1
    59   113   112    1
    60   113   114    1
    61   147   145    1
    62    93    91   ar
    63   149   148    1
    64   149   150    1
    65   101   100    2
    66   114   115    2
    67   118   119    2
    68   141   142    1
    69   187   189   ar
    70   187   186    1
    71   127   126    1
    72   127   128    2
    73   177   176    2
    74   104   100   am
    75   173   170    1
    76   142   145    1
    77   142   143    1
    78   176   175    1
    79   176   182   am
    80   100    99    1
    81   175   174    1
    82    94    92   ar
    83   133   134    1
    84   170   169    1
    85   170   171    1
    86   151   150    2
    87   150   162   am
    88    91    92   ar
    89    91    90    1
    90   145   146    1
    91   183   182    1
    92   183   186    1
    93   183   184    1
    94   172   171    2
    95    66    67   ar
    96    66    64   ar
    97   134   135    1
    98   134   137    1
    99    90    87    1
   100   185   184    2
   101   143   144    2
   102    67    65   ar
   103   162   163    1
   104    64    63   ar
   105   103   102    1
   106   135   136    2
   107    99    98    1
   108    99   102    1
   109    89    88    2
   110    98    88   am
   111    88    87    1
   112   139   137    1
   113    65    63   ar
   114    63    62    1
   115    87    86    1
   116   137   138    1
   117   163   166    1
   118   163   164    1
   119   168   166    1
   120     7     6    1
   121    62    59    1
   122     8     6    1
   123     6     5    1
   124   138   140    1
   125    86    84   am
   126   166   167    1
   127   164   165    2
   128    59    60    1
   129    59    58    1
   130    84    85    2
   131    84    83    1
   132    60    61    2
   133    19    17   ar
   134    19    18   ar
   135     5     2    1
   136    17    15   ar
   137    18    16   ar
   138    83    82    1
   139    58    52   am
   140     2     1    1
   141     2     3    1
   142    15    14   ar
   143    16    14   ar
   144    72    73    1
   145    72    69    1
   146    71    70    2
   147    70    69    1
   148    14    13    1
   149    52    53    2
   150    52    51    1
   151    73    74   ar
   152    73    75   ar
   153    69    68    1
   154    74    76   ar
   155    36    34   ar
   156    36    37   ar
   157     3     4    2
   158    50    51    1
   159    34    33   ar
   160    13    10    1
   161    51    54    1
   162    54    56    1
   163    54    55    1
   164    75    78   ar
   165    75    77   ar
   166    37    35   ar
   167    76    77   ar
   168    78    80   ar
   169    33    35   ar
   170    33    32    1
   171    77    79   ar
   172    57    55    1
   173    10    11    1
   174    10     9    1
   175    32    29    1
   176    80    81   ar
   177    79    81   ar
   178    49    47    1
   179    12    11    2
   180    29    28    1
   181    29    30    1
   182    28    22   am
   183    24    25    1
   184    24    21    1
   185    42    39    1
   186    48    47    1
   187    47    44    1
   188    25    26    1
   189    31    30    2
   190    27    26    1
   191    22    23    2
   192    22    21    1
   193    44    43    1
   194    44    45    1
   195    21    20    1
   196    43    40   am
   197    39    40    1
   198    39    38    1
   199    40    41    2
   200    45    46    2
