@<TRIPOS>MOLECULE
tmp/5yq7J01.pdb
 215 204 0 0 0
SMALL
GASTEIGER

@<TRIPOS>ATOM
      1  N         61.3410   58.6430   90.8870 N.3    60  ALA60      -0.1231
      2  CA        60.0570   58.3370   91.5250 C.3    60  ALA60       0.1694
      3  C         59.9800   56.8730   91.9510 C.2    60  ALA60       0.2591
      4  O         58.8930   56.3010   92.0730 O.2    60  ALA60      -0.2718
      5  CB        58.8800   58.6990   90.6140 C.3    60  ALA60       0.0304
      6  N         61.1440   56.2570   92.1600 N.am   61  ALA61      -0.1980
      7  CA        61.3000   54.8460   92.4970 C.3    61  ALA61       0.1597
      8  C         60.7550   53.9260   91.4170 C.2    61  ALA61       0.2287
      9  O         60.7060   52.7060   91.6180 O.2    61  ALA61      -0.2864
     10  CB        60.6460   54.5080   93.8440 C.3    61  ALA61       0.0319
     11  N         53.6860   53.4780   97.4650 N.3    67  GLN67      -0.1245
     12  CA        53.7470   54.5990   98.3920 C.3    67  GLN67       0.1566
     13  C         52.4230   55.3480   98.4270 C.2    67  GLN67       0.2260
     14  O         52.1390   56.0760   99.3850 O.2    67  GLN67      -0.2867
     15  CB        54.8850   55.5390   98.0030 C.3    67  GLN67       0.0367
     16  CG        56.2960   54.9630   98.1050 C.3    67  GLN67       0.0905
     17  CD        56.6180   54.4730   99.4930 C.2    67  GLN67       0.2608
     18  OE1       56.4430   55.2390  100.4610 O.2    67  GLN67      -0.2717
     19  NE2       56.9490   53.2290   99.6400 N.am   67  GLN67      -0.0878
     20  N         49.5710   52.7520  100.9930 N.3    70  PRO70      -0.2116
     21  CA        49.9320   51.6510  101.9000 C.3    70  PRO70       0.1372
     22  C         48.8940   51.4120  102.9830 C.2    70  PRO70       0.2244
     23  O         48.3430   50.3080  103.0780 O.2    70  PRO70      -0.2868
     24  CB        51.2770   52.1080  102.4800 C.3    70  PRO70       0.0268
     25  CG        51.2320   53.5900  102.3960 C.3    70  PRO70       0.0207
     26  CD        50.4570   53.9160  101.1560 C.3    70  PRO70       0.0892
     27  N         51.1470   53.7720  111.1060 N.3    75  VAL75      -0.1231
     28  CA        52.1460   52.7110  111.1610 C.3    75  VAL75       0.1692
     29  C         52.7350   52.7120  112.5640 C.2    75  VAL75       0.2592
     30  O         52.2680   53.4470  113.4410 O.2    75  VAL75      -0.2718
     31  CB        53.2410   52.8890  110.0970 C.3    75  VAL75       0.0266
     32  CG1       52.6520   52.7620  108.7040 C.3    75  VAL75       0.0020
     33  CG2       53.9250   54.2330  110.2720 C.3    75  VAL75       0.0020
     34  N         53.7640   51.8990  112.7910 N.am   76  GLN76      -0.1966
     35  CA        54.2210   51.6430  114.1500 C.3    76  GLN76       0.1733
     36  C         55.6380   52.1480  114.4040 C.2    76  GLN76       0.2616
     37  O         56.4720   51.4120  114.9390 O.2    76  GLN76      -0.2715
     38  CB        54.1380   50.1470  114.4530 C.3    76  GLN76       0.0408
     39  CG        52.7360   49.5420  114.4650 C.3    76  GLN76       0.0908
     40  CD        51.8260   50.2180  115.4580 C.2    76  GLN76       0.2608
     41  OE1       52.2040   50.3390  116.6400 O.2    76  GLN76      -0.2717
     42  NE2       50.7340   50.7570  115.0160 N.am   76  GLN76      -0.0878
     43  N         55.9270   53.3950  114.0300 N.am   77  VAL77      -0.1963
     44  CA        57.2650   53.9400  114.2420 C.3    77  VAL77       0.1727
     45  C         57.2740   55.1910  115.1230 C.2    77  VAL77       0.2616
     46  O         57.9100   55.2010  116.1830 O.2    77  VAL77      -0.2715
     47  CB        57.9590   54.2020  112.8930 C.3    77  VAL77       0.0290
     48  CG1       58.1840   52.9050  112.1240 C.3    77  VAL77       0.0023
     49  CG2       57.1180   55.1540  112.0750 C.3    77  VAL77       0.0023
     50  N         56.5950   56.2580  114.7000 N.am   78  LEU78      -0.1977
     51  CA        56.5950   57.4940  115.4760 C.3    78  LEU78       0.1596
     52  C         55.1740   57.9700  115.7430 C.2    78  LEU78       0.2287
     53  O         54.2110   57.2710  115.4140 O.2    78  LEU78      -0.2864
     54  CB        57.4030   58.5840  114.7720 C.3    78  LEU78       0.0297
     55  CG        58.9090   58.3290  114.7400 C.3    78  LEU78       0.0022
     56  CD1       59.6190   59.4080  113.9500 C.3    78  LEU78       0.0001
     57  CD2       59.4570   58.2440  116.1530 C.3    78  LEU78       0.0001
     58  N         49.5540   58.8480  107.8650 N.3    83  THR83      -0.1218
     59  CA        50.5260   58.2230  106.9700 C.3    83  THR83       0.1862
     60  C         50.6770   58.9880  105.6580 C.2    83  THR83       0.2287
     61  O         51.7910   59.1160  105.1340 O.2    83  THR83      -0.2866
     62  CB        50.1200   56.7750  106.7020 C.3    83  THR83       0.1770
     63  OG1       50.0380   56.0680  107.9450 O.3    83  THR83      -0.2211
     64  CG2       51.1360   56.0870  105.8100 C.3    83  THR83       0.0375
     65  N         52.6210   62.0160  106.2290 N.3    86  ILE86      -0.1231
     66  CA        53.9420   61.5030  106.5860 C.3    86  ILE86       0.1692
     67  C         54.7750   61.2910  105.3310 C.2    86  ILE86       0.2592
     68  O         55.8880   61.8140  105.2020 O.2    86  ILE86      -0.2718
     69  CB        53.8270   60.1970  107.3890 C.3    86  ILE86       0.0266
     70  CG1       53.2170   60.4520  108.7610 C.3    86  ILE86       0.0019
     71  CG2       55.1890   59.5460  107.5310 C.3    86  ILE86       0.0020
     72  CD1       52.8610   59.1850  109.5090 C.3    86  ILE86       0.0001
     73  N         54.2560   60.4830  104.4070 N.am   87  SER87      -0.1952
     74  CA        54.9520   60.2440  103.1490 C.3    87  SER87       0.1924
     75  C         55.2090   61.5470  102.4090 C.2    87  SER87       0.2314
     76  O         56.2620   61.7220  101.7830 O.2    87  SER87      -0.2863
     77  CB        54.1350   59.2890  102.2840 C.3    87  SER87       0.2116
     78  OG        52.8980   59.8810  101.9250 O.3    87  SER87      -0.2180
     79  N         58.1180   63.1730  103.9370 N.3    90  MET90      -0.1230
     80  CA        59.3400   62.4270  103.6690 C.3    90  MET90       0.1702
     81  C         59.8510   62.7240  102.2660 C.2    90  MET90       0.2592
     82  O         61.0420   62.9910  102.0710 O.2    90  MET90      -0.2718
     83  CB        59.1040   60.9280  103.8780 C.3    90  MET90       0.0401
     84  CG        60.3610   60.0730  103.7520 C.3    90  MET90       0.0596
     85  SD        60.1200   58.3350  104.1520 S.3    90  MET90      -0.1393
     86  CE        60.1110   58.4140  105.9310 C.3    90  MET90       0.0692
     87  N         58.9530   62.7360  101.2810 N.am   91  VAL91      -0.1980
     88  CA        59.3710   63.0690   99.9230 C.3    91  VAL91       0.1595
     89  C         59.7850   64.5320   99.8330 C.2    91  VAL91       0.2287
     90  O         60.6320   64.8980   99.0100 O.2    91  VAL91      -0.2864
     91  CB        58.2480   62.7300   98.9270 C.3    91  VAL91       0.0276
     92  CG1       58.6370   63.1390   97.5200 C.3    91  VAL91       0.0022
     93  CG2       57.9330   61.2460   98.9770 C.3    91  VAL91       0.0022
     94  N         63.1380   64.5380  103.3150 N.3    94  VAL94      -0.1245
     95  CA        64.1010   63.4470  103.3870 C.3    94  VAL94       0.1561
     96  C         64.7590   63.2300  102.0310 C.2    94  VAL94       0.2260
     97  O         65.8270   62.6150  101.9370 O.2    94  VAL94      -0.2867
     98  CB        63.4020   62.1780  103.9110 C.3    94  VAL94       0.0252
     99  CG1       64.3830   61.0340  104.0730 C.3    94  VAL94       0.0019
    100  CG2       62.7090   62.4750  105.2260 C.3    94  VAL94       0.0019
    101  N         67.1280   61.3840   96.6140 N.3   100  VAL100     -0.1231
    102  CA        66.6020   60.5610   97.6940 C.3   100  VAL100      0.1692
    103  C         66.8770   59.1050   97.3680 C.2   100  VAL100      0.2592
    104  O         67.3120   58.3370   98.2330 O.2   100  VAL100     -0.2718
    105  CB        65.0970   60.7940   97.9060 C.3   100  VAL100      0.0266
    106  CG1       64.2230   60.3800   96.7500 C.3   100  VAL100      0.0020
    107  CG2       64.6210   60.2030   99.2230 C.3   100  VAL100      0.0020
    108  N         66.6400   58.7270   96.1130 N.am  101  ASP101     -0.1960
    109  CA        66.8560   57.3600   95.6700 C.3   101  ASP101      0.1840
    110  C         66.0300   56.4040   96.5220 C.2   101  ASP101      0.2622
    111  O         66.5530   55.6940   97.3790 O.2   101  ASP101     -0.2715
    112  CB        68.3400   56.9940   95.7400 C.3   101  ASP101      0.1450
    113  CG        68.7410   55.9070   94.7490 C.2   101  ASP101      0.3671
    114  OD1       67.8920   55.5130   93.9210 O.co2 101  ASP101     -0.2456
    115  OD2       69.8870   55.4330   94.8380 O.co2 101  ASP101     -0.2456
    116  N         64.7130   56.4220   96.3060 N.am  102  CYS102     -0.1968
    117  CA        63.8080   55.7270   97.2120 C.3   102  CYS102      0.1712
    118  C         64.0740   54.2310   97.1400 C.2   102  CYS102      0.2296
    119  O         63.2490   53.4360   96.6850 O.2   102  CYS102     -0.2864
    120  CB        62.3480   56.0320   96.8700 C.3   102  CYS102      0.0983
    121  SG        61.8730   57.7580   97.1800 S.3   102  CYS102     -0.0798
    122  N         68.1470   52.0980   98.6090 N.3   104  TYR104     -0.1227
    123  CA        69.3430   52.4570   99.3690 C.3   104  TYR104      0.1736
    124  C         69.0610   52.4870  100.8620 C.2   104  TYR104      0.2596
    125  O         69.9860   52.6260  101.6730 O.2   104  TYR104     -0.2718
    126  CB        69.8880   53.8130   98.8940 C.3   104  TYR104      0.0548
    127  CG        71.0140   54.4220   99.6950 C.ar  104  TYR104     -0.0200
    128  CD1       72.3150   53.9600   99.5690 C.ar  104  TYR104     -0.0009
    129  CD2       70.7760   55.4820  100.5590 C.ar  104  TYR104     -0.0009
    130  CE1       73.3440   54.5300  100.2910 C.ar  104  TYR104      0.0417
    131  CE2       71.7960   56.0560  101.2840 C.ar  104  TYR104      0.0417
    132  CZ        73.0770   55.5770  101.1460 C.ar  104  TYR104      0.1957
    133  OH        74.1000   56.1450  101.8680 O.3   104  TYR104     -0.2866
    134  N         67.7950   52.3240  101.2330 N.am  105  CYS105     -0.1956
    135  CA        67.2830   52.3310  102.5900 C.3   105  CYS105      0.1843
    136  C         65.7800   52.1440  102.4710 C.2   105  CYS105      0.2625
    137  O         65.2470   52.0880  101.3570 O.2   105  CYS105     -0.2714
    138  CB        67.6200   53.6310  103.3200 C.3   105  CYS105      0.0997
    139  SG        66.8300   55.0880  102.6220 S.3   105  CYS105     -0.0797
    140  N         65.0950   52.0250  103.6020 N.am  106  HIS106     -0.1973
    141  CA        63.6440   52.0910  103.7150 C.3   106  HIS106      0.1656
    142  C         62.9410   50.8820  103.1070 C.2   106  HIS106      0.2291
    143  O         61.7170   50.7680  103.2580 O.2   106  HIS106     -0.2864
    144  CB        63.0740   53.3670  103.0790 C.3   106  HIS106      0.0771
    145  CG        61.6750   53.6810  103.5020 C.ar  106  HIS106      0.0820
    146  ND1       60.5780   53.0360  102.9750 N.ar  106  HIS106     -0.2267
    147  CD2       61.1920   54.5960  104.3760 C.ar  106  HIS106      0.1154
    148  CE1       59.4810   53.5200  103.5270 C.ar  106  HIS106      0.1986
    149  NE2       59.8250   54.4710  104.3770 N.ar  106  HIS106     -0.2212
    150  N         56.6550   48.2670  101.2680 N.3   110  ASN110     -0.1225
    151  CA        56.1520   49.3260  102.1460 C.3   110  ASN110      0.1785
    152  C         56.2130   48.9420  103.6200 C.2   110  ASN110      0.2597
    153  O         56.3110   49.8160  104.4890 O.2   110  ASN110     -0.2718
    154  CB        54.7190   49.6900  101.7560 C.3   110  ASN110      0.1169
    155  CG        53.7290   48.5760  101.9050 C.2   110  ASN110      0.2627
    156  OD1       54.0210   47.5670  102.5390 O.2   110  ASN110     -0.2716
    157  ND2       52.5300   48.7950  101.3790 N.am  110  ASN110     -0.0877
    158  N         56.1520   47.6480  103.9230 N.am  111  PHE111     -0.1962
    159  CA        56.2540   47.1970  105.3030 C.3   111  PHE111      0.1771
    160  C         57.5840   47.6240  105.9100 C.2   111  PHE111      0.2619
    161  O         58.6370   47.5270  105.2750 O.2   111  PHE111     -0.2715
    162  CB        56.1060   45.6780  105.3770 C.3   111  PHE111      0.0574
    163  CG        54.7240   45.1400  105.1690 C.ar  111  PHE111     -0.0200
    164  CD1       53.5830   45.8250  105.6030 C.ar  111  PHE111     -0.0042
    165  CD2       54.5720   43.8910  104.5390 C.ar  111  PHE111     -0.0042
    166  CE1       52.3280   45.2690  105.4460 C.ar  111  PHE111     -0.0003
    167  CE2       53.3090   43.3400  104.3640 C.ar  111  PHE111     -0.0003
    168  CZ        52.1840   44.0360  104.8320 C.ar  111  PHE111     -0.0000
    169  N         57.5320   48.1030  107.1480 N.am  112  ALA112     -0.1977
    170  CA        58.7410   48.5510  107.8210 C.3   112  ALA112      0.1597
    171  C         59.6350   47.3650  108.1590 C.2   112  ALA112      0.2287
    172  O         59.3930   46.6370  109.1250 O.2   112  ALA112     -0.2864
    173  CB        58.3870   49.3220  109.0900 C.3   112  ALA112      0.0319
    174  N         62.8930   46.0430  109.5900 N.3   114  GLN114     -0.1245
    175  CA        63.9900   46.3940  110.4790 C.3   114  GLN114      0.1566
    176  C         65.1280   45.3850  110.4520 C.2   114  GLN114      0.2260
    177  O         66.1830   45.6510  111.0380 O.2   114  GLN114     -0.2867
    178  CB        63.4800   46.5400  111.9180 C.3   114  GLN114      0.0367
    179  CG        62.4350   47.6420  112.0890 C.3   114  GLN114      0.0905
    180  CD        62.9020   49.0000  111.6030 C.2   114  GLN114      0.2608
    181  OE1       64.0520   49.4040  111.8500 O.2   114  GLN114     -0.2717
    182  NE2       62.0150   49.7260  110.9660 N.am  114  GLN114     -0.0878
    183  N         69.3480   52.6800  108.1190 N.3   123  LYS123     -0.1245
    184  CA        68.0590   53.0690  108.6790 C.3   123  LYS123      0.1561
    185  C         68.1600   53.3540  110.1680 C.2   123  LYS123      0.2260
    186  O         67.4480   54.2220  110.6860 O.2   123  LYS123     -0.2867
    187  CB        67.0250   51.9720  108.4220 C.3   123  LYS123      0.0271
    188  CG        66.7550   51.9190  106.8890 C.3   123  LYS123      0.0035
    189  CD        65.9580   50.6580  106.5230 C.3   123  LYS123      0.0206
    190  CE        64.9440   50.2760  107.5270 C.3   123  LYS123      0.1093
    191  NZ        63.8290   49.5140  106.8770 N.3   123  LYS123     -0.1314
    192  N         69.9690   56.9800  110.5400 N.3   126  ALA126     -0.1231
    193  CA        68.9670   57.9780  110.1900 C.3   126  ALA126      0.1694
    194  C         68.0390   58.2470  111.3650 C.2   126  ALA126      0.2591
    195  O         67.9550   59.3770  111.8580 O.2   126  ALA126     -0.2718
    196  CB        68.1770   57.5160  108.9660 C.3   126  ALA126      0.0304
    197  N         67.3640   57.2010  111.8530 N.am  127  ARG127     -0.1980
    198  CA        66.4690   57.3650  112.9950 C.3   127  ARG127      0.1597
    199  C         67.1770   58.0700  114.1370 C.2   127  ARG127      0.2287
    200  O         66.6530   59.0300  114.7110 O.2   127  ARG127     -0.2864
    201  CB        65.9350   56.0100  113.4530 C.3   127  ARG127      0.0334
    202  CG        64.9050   55.4200  112.5260 C.3   127  ARG127      0.0492
    203  CD        64.2630   54.1880  113.1210 C.3   127  ARG127      0.2205
    204  NE        65.2320   53.1120  113.2840 N.pl3 127  ARG127     -0.0865
    205  CZ        65.5450   52.2420  112.3290 C.cat 127  ARG127      0.5346
    206  NH1       64.9700   52.3260  111.1370 N.pl3 127  ARG127      0.1354
    207  NH2       66.4370   51.2900  112.5640 N.pl3 127  ARG127      0.1354
    208  N         67.4580   61.4340  113.2470 N.3   130  MET130     -0.1245
    209  CA        66.1090   61.9920  113.2550 C.3   130  MET130      0.1570
    210  C         65.7930   62.6570  114.5840 C.2   130  MET130      0.2261
    211  O         65.1680   63.7230  114.6220 O.2   130  MET130     -0.2867
    212  CB        65.0780   60.9020  112.9580 C.3   130  MET130      0.0387
    213  CG        65.0650   60.4220  111.5220 C.3   130  MET130      0.0595
    214  SD        64.5900   61.7210  110.3700 S.3   130  MET130     -0.1393
    215  CE        62.8510   61.8870  110.7610 C.3   130  MET130      0.0692
@<TRIPOS>BOND
     1     5     2    1
     2     1     2    1
     3     8     9    2
     4     8     7    1
     5     2     3    1
     6     3     4    2
     7     3     6   am
     8     6     7    1
     9     7    10    1
    10   114   113   ar
    11   113   115   ar
    12   113   112    1
    13   109   112    1
    14   109   108    1
    15   109   110    1
    16   108   103   am
    17   116   110   am
    18   116   117    1
    19   110   111    2
    20   101   102    1
    21   119   118    2
    22   106   105    1
    23   120   121    1
    24   120   117    1
    25   118   117    1
    26   103   102    1
    27   103   104    2
    28    11    12    1
    29    92    91    1
    30   102   105    1
    31   105   107    1
    32    15    16    1
    33    15    12    1
    34    16    17    1
    35    12    13    1
    36    13    14    2
    37   122   123    1
    38   126   123    1
    39   126   127    1
    40    91    93    1
    41    91    88    1
    42    90    89    2
    43   123   124    1
    44    17    19   am
    45    17    18    2
    46   128   127   ar
    47   128   130   ar
    48   127   129   ar
    49    89    88    1
    50    88    87    1
    51   130   132   ar
    52   129   131   ar
    53   124   134   am
    54   124   125    2
    55    20    26    1
    56    20    21    1
    57   132   131   ar
    58   132   133    1
    59    26    25    1
    60   134   135    1
    61   150   151    1
    62    87    81   am
    63   137   136    2
    64   157   155   am
    65   154   155    1
    66   154   151    1
    67    76    75    2
    68    21    24    1
    69    21    22    1
    70   155   156    2
    71    78    77    1
    72    97    96    2
    73    96    95    1
    74    82    81    2
    75   151   152    1
    76    81    80    1
    77    77    74    1
    78    25    24    1
    79    75    74    1
    80   136   135    1
    81   136   140   am
    82   135   138    1
    83   139   138    1
    84   146   145   ar
    85   146   148   ar
    86    22    23    2
    87   144   145    1
    88   144   141    1
    89   142   143    2
    90   142   141    1
    91    74    73    1
    92    94    95    1
    93    95    98    1
    94   145   147   ar
    95   148   149   ar
    96   140   141    1
    97   152   158   am
    98   152   153    2
    99    80    83    1
   100    80    79    1
   101    84    83    1
   102    84    85    1
   103    98    99    1
   104    98   100    1
   105   158   159    1
   106    85    86    1
   107   167   165   ar
   108   167   168   ar
   109   147   149   ar
   110    73    67   am
   111   165   163   ar
   112   168   166   ar
   113    61    60    2
   114   163   162    1
   115   163   164   ar
   116    68    67    2
   117   161   160    2
   118   159   162    1
   119   159   160    1
   120    67    66    1
   121   166   164   ar
   122    60    59    1
   123    64    62    1
   124   160   169   am
   125    65    66    1
   126   189   188    1
   127   189   190    1
   128    66    69    1
   129    62    59    1
   130    62    63    1
   131   191   190    1
   132   188   187    1
   133    59    58    1
   134   169   170    1
   135    69    71    1
   136    69    70    1
   137   170   171    1
   138   170   173    1
   139   183   184    1
   140   171   172    2
   141   187   184    1
   142   184   185    1
   143    32    31    1
   144    70    72    1
   145   196   193    1
   146   174   175    1
   147    31    33    1
   148    31    28    1
   149   185   186    2
   150   193   192    1
   151   193   194    1
   152   214   215    1
   153   214   213    1
   154   176   175    1
   155   176   177    2
   156   175   178    1
   157   182   180   am
   158    27    28    1
   159   206   205    1
   160    28    29    1
   161   194   197   am
   162   194   195    2
   163   213   212    1
   164   180   181    2
   165   180   179    1
   166   197   198    1
   167   178   179    1
   168    49    47    1
   169    48    47    1
   170   205   207    1
   171   205   204    2
   172   202   203    1
   173   202   201    1
   174    29    34   am
   175    29    30    2
   176    34    35    1
   177    47    44    1
   178   212   209    1
   179   198   201    1
   180   198   199    1
   181   203   204    1
   182   208   209    1
   183   209   210    1
   184    56    55    1
   185    43    44    1
   186    43    36   am
   187   199   200    2
   188    35    36    1
   189    35    38    1
   190    44    45    1
   191    36    37    2
   192    38    39    1
   193    39    40    1
   194   210   211    2
   195    50    45   am
   196    50    51    1
   197    55    54    1
   198    55    57    1
   199    54    51    1
   200    42    40   am
   201    45    46    2
   202    53    52    2
   203    40    41    2
   204    51    52    1
