@<TRIPOS>MOLECULE
tmp/5yq7J03.pdb
 215 212 0 0 0
SMALL
GASTEIGER

@<TRIPOS>ATOM
      1  N         83.6290   78.0710  127.4240 N.3   189  TYR189     -0.1228
      2  CA        83.5990   78.9890  126.2990 C.3   189  TYR189      0.1721
      3  C         83.1650   80.4110  126.6590 C.2   189  TYR189      0.2437
      4  O         83.8380   81.3620  126.2430 O.2   189  TYR189     -0.2733
      5  CB        82.7110   78.4280  125.1940 C.3   189  TYR189      0.0547
      6  CG        82.9150   79.1510  123.9000 C.ar  189  TYR189     -0.0200
      7  CD1       83.9630   78.8150  123.0620 C.ar  189  TYR189     -0.0009
      8  CD2       82.1070   80.2130  123.5450 C.ar  189  TYR189     -0.0009
      9  CE1       84.1680   79.4870  121.8730 C.ar  189  TYR189      0.0417
     10  CE2       82.3100   80.8930  122.3750 C.ar  189  TYR189      0.0417
     11  CZ        83.3330   80.5300  121.5360 C.ar  189  TYR189      0.1957
     12  OH        83.5080   81.2290  120.3640 O.3   189  TYR189     -0.2866
     13  N         82.0800   80.6290  127.4040 N.am  190  PRO190     -0.2718
     14  CA        81.7120   82.0140  127.7190 C.3   190  PRO190      0.1535
     15  C         82.7530   82.6310  128.6360 C.2   190  PRO190      0.2599
     16  O         82.8150   82.3250  129.8260 O.2   190  PRO190     -0.2715
     17  CB        80.3560   81.8760  128.4170 C.3   190  PRO190      0.0310
     18  CG        79.8330   80.5650  127.9680 C.3   190  PRO190      0.0237
     19  CD        81.0410   79.6900  127.8570 C.3   190  PRO190      0.0939
     20  N         83.5720   83.5110  128.0690 N.am  191  GLY191     -0.1941
     21  CA        84.7290   83.9920  128.7900 C.3   191  GLY191      0.2014
     22  C         85.9720   83.1550  128.6090 C.2   191  GLY191      0.2639
     23  O         86.7350   82.9890  129.5650 O.2   191  GLY191     -0.2714
     24  N         86.1980   82.6110  127.4130 N.am  192  GLY192     -0.1939
     25  CA        87.3790   81.7900  127.1990 C.3   192  GLY192      0.2014
     26  C         88.4180   82.4730  126.3320 C.2   192  GLY192      0.2639
     27  O         89.6210   82.3200  126.5530 O.2   192  GLY192     -0.2714
     28  N         87.9730   83.2290  125.3350 N.am  193  LEU193     -0.1963
     29  CA        88.8520   84.0390  124.5060 C.3   193  LEU193      0.1728
     30  C         88.8960   85.4360  125.1030 C.2   193  LEU193      0.2616
     31  O         88.0650   86.2860  124.7710 O.2   193  LEU193     -0.2715
     32  CB        88.3610   84.0710  123.0610 C.3   193  LEU193      0.0311
     33  CG        88.3430   82.6920  122.4050 C.3   193  LEU193      0.0022
     34  CD1       87.7420   82.7540  121.0150 C.3   193  LEU193      0.0001
     35  CD2       89.7380   82.1110  122.3630 C.3   193  LEU193      0.0001
     36  N         89.8610   85.6640  125.9890 N.am  194  VAL194     -0.1963
     37  CA        89.8090   86.7790  126.9260 C.3   194  VAL194      0.1727
     38  C         91.0650   87.6350  126.8670 C.2   194  VAL194      0.2616
     39  O         91.5070   88.1670  127.8900 O.2   194  VAL194     -0.2715
     40  CB        89.5720   86.2610  128.3510 C.3   194  VAL194      0.0290
     41  CG1       88.1850   85.6770  128.4620 C.3   194  VAL194      0.0023
     42  CG2       90.6020   85.2050  128.6830 C.3   194  VAL194      0.0023
     43  N         91.6620   87.7470  125.6860 N.am  195  VAL195     -0.1963
     44  CA        92.9280   88.4470  125.4960 C.3   195  VAL195      0.1727
     45  C         92.9830   89.8230  126.1530 C.2   195  VAL195      0.2616
     46  O         93.9510   90.1410  126.8520 O.2   195  VAL195     -0.2715
     47  CB        93.2310   88.5750  123.9970 C.3   195  VAL195      0.0290
     48  CG1       94.4370   89.4580  123.7870 C.3   195  VAL195      0.0023
     49  CG2       93.4600   87.2050  123.3970 C.3   195  VAL195      0.0023
     50  N         91.9530   90.6420  125.9440 N.am  196  THR196     -0.1951
     51  CA        92.0580   92.0770  126.1990 C.3   196  THR196      0.1897
     52  C         92.4380   92.3820  127.6400 C.2   196  THR196      0.2313
     53  O         91.6730   92.1040  128.5670 O.2   196  THR196     -0.2863
     54  CB        90.7420   92.7680  125.8620 C.3   196  THR196      0.1794
     55  OG1       89.7040   92.2400  126.6950 O.3   196  THR196     -0.2208
     56  CG2       90.3860   92.5450  124.4110 C.3   196  THR196      0.0378
     57  N         93.7690   83.5840  119.0940 N.3   209  ASN209     -0.1225
     58  CA        92.4000   84.0840  119.0600 C.3   209  ASN209      0.1785
     59  C         92.0660   84.7030  117.7080 C.2   209  ASN209      0.2597
     60  O         90.9480   84.5390  117.1980 O.2   209  ASN209     -0.2718
     61  CB        92.2090   85.1120  120.1730 C.3   209  ASN209      0.1169
     62  CG        90.7660   85.4870  120.3820 C.2   209  ASN209      0.2627
     63  OD1       89.8740   84.9640  119.7220 O.2   209  ASN209     -0.2716
     64  ND2       90.5270   86.4130  121.3010 N.am  209  ASN209     -0.0877
     65  N         93.0180   85.4390  117.1390 N.am  210  GLN210     -0.1979
     66  CA        92.7770   86.1300  115.8800 C.3   210  GLN210      0.1601
     67  C         92.4040   85.1600  114.7740 C.2   210  GLN210      0.2287
     68  O         91.5420   85.4660  113.9430 O.2   210  GLN210     -0.2864
     69  CB        94.0000   86.9430  115.4800 C.3   210  GLN210      0.0394
     70  CG        94.2280   88.1140  116.3750 C.3   210  GLN210      0.0908
     71  CD        93.0560   89.0490  116.3530 C.2   210  GLN210      0.2608
     72  OE1       92.3240   89.1640  117.3310 O.2   210  GLN210     -0.2717
     73  NE2       92.8570   89.7150  115.2270 N.am  210  GLN210     -0.0878
     74  N         88.7810   84.2710  115.1930 N.3   213  MET213     -0.1230
     75  CA        87.9750   85.4220  114.8000 C.3   213  MET213      0.1702
     76  C         87.8630   85.5330  113.2830 C.2   213  MET213      0.2592
     77  O         86.7740   85.7700  112.7460 O.2   213  MET213     -0.2718
     78  CB        88.5620   86.7010  115.3890 C.3   213  MET213      0.0401
     79  CG        88.2560   86.9320  116.8550 C.3   213  MET213      0.0596
     80  SD        86.5340   87.4240  117.0870 S.3   213  MET213     -0.1393
     81  CE        85.7980   85.9320  117.7280 C.3   213  MET213      0.0692
     82  N         88.9800   85.3860  112.5710 N.am  214  TYR214     -0.1976
     83  CA        88.9100   85.5710  111.1260 C.3   214  TYR214      0.1639
     84  C         88.0800   84.4830  110.4730 C.2   214  TYR214      0.2290
     85  O         87.3520   84.7450  109.5080 O.2   214  TYR214     -0.2864
     86  CB        90.2900   85.6030  110.4900 C.3   214  TYR214      0.0560
     87  CG        90.1710   85.7820  108.9990 C.ar  214  TYR214     -0.0198
     88  CD1       89.8480   87.0140  108.4580 C.ar  214  TYR214     -0.0009
     89  CD2       90.3330   84.7130  108.1350 C.ar  214  TYR214     -0.0009
     90  CE1       89.7190   87.1810  107.1010 C.ar  214  TYR214      0.0417
     91  CE2       90.2040   84.8710  106.7780 C.ar  214  TYR214      0.0417
     92  CZ        89.8970   86.1060  106.2670 C.ar  214  TYR214      0.1957
     93  OH        89.7700   86.2670  104.9120 O.3   214  TYR214     -0.2866
     94  N         85.5810   83.0630  111.8770 N.3   216  MET216     -0.1230
     95  CA        84.2210   83.4720  112.1870 C.3   216  MET216      0.1702
     96  C         83.7210   84.4930  111.1800 C.2   216  MET216      0.2592
     97  O         82.5920   84.3940  110.6900 O.2   216  MET216     -0.2718
     98  CB        84.1640   84.0390  113.6000 C.3   216  MET216      0.0401
     99  CG        82.7720   84.1540  114.1310 C.3   216  MET216      0.0596
    100  SD        82.0980   82.4980  114.2740 S.3   216  MET216     -0.1393
    101  CE        83.0050   81.8980  115.6910 C.3   216  MET216      0.0692
    102  N         84.5540   85.4790  110.8540 N.am  217  ASN217     -0.1974
    103  CA        84.1610   86.4780  109.8660 C.3   217  ASN217      0.1688
    104  C         83.8950   85.8350  108.5150 C.2   217  ASN217      0.2292
    105  O         82.7780   85.8930  107.9930 O.2   217  ASN217     -0.2864
    106  CB        85.2350   87.5480  109.7140 C.3   217  ASN217      0.1181
    107  CG        84.8120   88.6550  108.7670 C.2   217  ASN217      0.2629
    108  OD1       83.6670   88.7040  108.3230 O.2   217  ASN217     -0.2716
    109  ND2       85.7510   89.5160  108.4100 N.am  217  ASN217     -0.0877
    110  N         80.5120   84.0980  107.9200 N.3   220  MET220     -0.1245
    111  CA        79.3820   84.9530  107.6130 C.3   220  MET220      0.1570
    112  C         79.7070   85.8680  106.4380 C.2   220  MET220      0.2261
    113  O         80.8520   85.9890  105.9980 O.2   220  MET220     -0.2867
    114  CB        78.9870   85.7810  108.8300 C.3   220  MET220      0.0387
    115  CG        78.4230   84.9670  109.9680 C.3   220  MET220      0.0595
    116  SD        76.9750   84.0330  109.4520 S.3   220  MET220     -0.1393
    117  CE        75.8290   85.3570  109.0830 C.3   220  MET220      0.0692
    118  N         82.9340   91.6400  109.5490 N.3   224  CYS224     -0.1221
    119  CA        83.5650   91.7380  110.8650 C.3   224  CYS224      0.1808
    120  C         83.3800   93.1020  111.5210 C.2   224  CYS224      0.2602
    121  O         84.2900   93.6160  112.1700 O.2   224  CYS224     -0.2717
    122  CB        85.0490   91.4050  110.7720 C.3   224  CYS224      0.0970
    123  SG        85.8620   91.2250  112.3670 S.3   224  CYS224     -0.0800
    124  N         82.2050   93.7070  111.3500 N.am  225  THR225     -0.1939
    125  CA        81.8700   94.9050  112.1050 C.3   225  THR225      0.2028
    126  C         80.5000   94.8810  112.7480 C.2   225  THR225      0.2642
    127  O         80.2750   95.6570  113.6800 O.2   225  THR225     -0.2714
    128  CB        81.9570   96.1640  111.2360 C.3   225  THR225      0.1808
    129  OG1       81.0840   96.0360  110.1090 O.3   225  THR225     -0.2208
    130  CG2       83.3720   96.3930  110.7820 C.3   225  THR225      0.0379
    131  N         79.5850   94.0280  112.3050 N.am  226  PHE226     -0.1959
    132  CA        78.3150   93.9050  113.0200 C.3   226  PHE226      0.1771
    133  C         78.5020   93.0690  114.2790 C.2   226  PHE226      0.2620
    134  O         77.7490   92.1590  114.6110 O.2   226  PHE226     -0.2715
    135  CB        77.2240   93.3480  112.1070 C.3   226  PHE226      0.0574
    136  CG        77.4370   91.9300  111.6650 C.ar  226  PHE226     -0.0200
    137  CD1       78.2930   91.6410  110.6200 C.ar  226  PHE226     -0.0042
    138  CD2       76.7070   90.8990  112.2310 C.ar  226  PHE226     -0.0042
    139  CE1       78.4670   90.3460  110.1940 C.ar  226  PHE226     -0.0003
    140  CE2       76.8780   89.6060  111.8150 C.ar  226  PHE226     -0.0003
    141  CZ        77.7560   89.3250  110.7950 C.ar  226  PHE226     -0.0000
    142  N         79.5620   93.4230  114.9940 N.am  227  CYS227     -0.1954
    143  CA        79.9280   92.9280  116.3090 C.3   227  CYS227      0.1843
    144  C         81.1740   93.7130  116.7050 C.2   227  CYS227      0.2625
    145  O         81.8010   94.3710  115.8700 O.2   227  CYS227     -0.2714
    146  CB        80.1800   91.4220  116.3130 C.3   227  CYS227      0.0997
    147  SG        80.4290   90.7290  117.9510 S.3   227  CYS227     -0.0797
    148  N         81.4770   93.6980  118.0000 N.am  228  HIS228     -0.1973
    149  CA        82.7310   94.2020  118.5550 C.3   228  HIS228      0.1656
    150  C         82.8410   95.7250  118.5270 C.2   228  HIS228      0.2291
    151  O         83.7250   96.2870  119.1780 O.2   228  HIS228     -0.2864
    152  CB        83.9210   93.6130  117.7930 C.3   228  HIS228      0.0771
    153  CG        84.0180   92.1220  117.8570 C.ar  228  HIS228      0.0820
    154  ND1       84.6110   91.4490  118.9040 N.ar  228  HIS228     -0.2267
    155  CD2       83.5870   91.1710  116.9970 C.ar  228  HIS228      0.1154
    156  CE1       84.5530   90.1490  118.6780 C.ar  228  HIS228      0.1986
    157  NE2       83.9280   89.9530  117.5320 N.ar  228  HIS228     -0.2212
    158  N         86.5550   96.4290  122.1150 N.3   233  PHE233     -0.1228
    159  CA        85.9780   95.1240  121.8120 C.3   233  PHE233      0.1721
    160  C         85.1570   94.4960  122.9320 C.2   233  PHE233      0.2437
    161  O         84.0890   93.9410  122.6290 O.2   233  PHE233     -0.2733
    162  CB        87.1040   94.1840  121.3680 C.3   233  PHE233      0.0547
    163  CG        87.6920   94.5460  120.0390 C.ar  233  PHE233     -0.0202
    164  CD1       87.0770   94.1500  118.8700 C.ar  233  PHE233     -0.0042
    165  CD2       88.8450   95.2950  119.9560 C.ar  233  PHE233     -0.0042
    166  CE1       87.6040   94.4830  117.6450 C.ar  233  PHE233     -0.0003
    167  CE2       89.3780   95.6290  118.7310 C.ar  233  PHE233     -0.0003
    168  CZ        88.7530   95.2230  117.5750 C.ar  233  PHE233     -0.0000
    169  N         85.5570   94.5360  124.2060 N.am  234  PRO234     -0.2729
    170  CA        84.7300   93.8980  125.2420 C.3   234  PRO234      0.1401
    171  C         83.3280   94.4710  125.3710 C.2   234  PRO234      0.2269
    172  O         82.5340   93.9240  126.1440 O.2   234  PRO234     -0.2865
    173  CB        85.5350   94.1240  126.5240 C.3   234  PRO234      0.0296
    174  CG        86.9260   94.2770  126.0570 C.3   234  PRO234      0.0237
    175  CD        86.8400   95.0000  124.7580 C.3   234  PRO234      0.0939
    176  N         74.0740   91.8630  119.0910 N.3   240  GLN240     -0.1231
    177  CA        74.4250   90.8550  118.1060 C.3   240  GLN240      0.1698
    178  C         75.4580   89.8950  118.6800 C.2   240  GLN240      0.2592
    179  O         75.4680   88.7080  118.3430 O.2   240  GLN240     -0.2718
    180  CB        74.9530   91.5290  116.8440 C.3   240  GLN240      0.0381
    181  CG        75.0550   90.6150  115.6580 C.3   240  GLN240      0.0905
    182  CD        73.6950   90.2010  115.1580 C.2   240  GLN240      0.2608
    183  OE1       72.7590   90.9960  115.1520 O.2   240  GLN240     -0.2717
    184  NE2       73.5780   88.9570  114.7230 N.am  240  GLN240     -0.0878
    185  N         76.3260   90.3990  119.5590 N.am  241  LYS241     -0.1980
    186  CA        77.3640   89.5570  120.1460 C.3   241  LYS241      0.1596
    187  C         76.7620   88.5610  121.1260 C.2   241  LYS241      0.2287
    188  O         76.8600   87.3430  120.9360 O.2   241  LYS241     -0.2864
    189  CB        78.4110   90.4210  120.8460 C.3   241  LYS241      0.0298
    190  CG        79.5740   89.6270  121.4090 C.3   241  LYS241      0.0038
    191  CD        80.5740   90.5370  122.0870 C.3   241  LYS241      0.0206
    192  CE        80.0390   90.9920  123.4300 C.3   241  LYS241      0.1093
    193  NZ        81.0090   91.8400  124.1750 N.3   241  LYS241     -0.1314
    194  N         75.0870   85.3890  119.9910 N.3   244  SER244     -0.1202
    195  CA        75.8380   84.3850  119.2430 C.3   244  SER244      0.2020
    196  C         76.5050   83.3460  120.1390 C.2   244  SER244      0.2618
    197  O         76.6650   82.1830  119.7460 O.2   244  SER244     -0.2717
    198  CB        76.8930   85.0680  118.3790 C.3   244  SER244      0.2103
    199  OG        77.8620   85.6990  119.1910 O.3   244  SER244     -0.2182
    200  N         76.9360   83.7620  121.3310 N.am  245  ILE245     -0.1979
    201  CA        77.5820   82.8190  122.2370 C.3   245  ILE245      0.1595
    202  C         76.6620   81.6520  122.5560 C.2   245  ILE245      0.2287
    203  O         77.1280   80.5540  122.8790 O.2   245  ILE245     -0.2864
    204  CB        78.0440   83.5310  123.5190 C.3   245  ILE245      0.0276
    205  CG1       76.8580   84.1790  124.2260 C.3   245  ILE245      0.0022
    206  CG2       79.0890   84.5590  123.2040 C.3   245  ILE245      0.0022
    207  CD1       77.1990   84.7240  125.5900 C.3   245  ILE245      0.0001
    208  N         77.3360   79.2970  119.9790 N.3   248  LEU248     -0.1245
    209  CA        78.6380   78.7020  120.2590 C.3   248  LEU248      0.1561
    210  C         78.5200   77.5750  121.2760 C.2   248  LEU248      0.2260
    211  O         79.1350   76.5120  121.1180 O.2   248  LEU248     -0.2867
    212  CB        79.5850   79.7880  120.7360 C.3   248  LEU248      0.0270
    213  CG        79.8140   80.6880  119.5330 C.3   248  LEU248      0.0019
    214  CD1       80.4310   82.0110  119.9060 C.3   248  LEU248      0.0001
    215  CD2       80.6950   79.9350  118.5500 C.3   248  LEU248      0.0001
@<TRIPOS>BOND
     1    93    92    1
     2   113   112    2
     3    92    91   ar
     4    92    90   ar
     5   112   111    1
     6    91    89   ar
     7    90    88   ar
     8   111   110    1
     9   111   114    1
    10   105   104    2
    11    89    87   ar
    12   108   107    2
    13   109   107   am
    14    88    87   ar
    15   104   103    1
    16   107   106    1
    17   114   115    1
    18    87    86    1
    19   117   116    1
    20   116   115    1
    21    85    84    2
    22   118   119    1
    23   106   103    1
    24   103   102    1
    25   129   128    1
    26   139   137   ar
    27   139   141   ar
    28    84    83    1
    29    86    83    1
    30   137   136   ar
    31    97    96    2
    32   122   119    1
    33   122   123    1
    34   130   128    1
    35   141   140   ar
    36   102    96   am
    37   119   120    1
    38    83    82    1
    39    96    95    1
    40   128   125    1
    41   124   120   am
    42   124   125    1
    43   120   121    2
    44   136   135    1
    45   136   138   ar
    46   140   138   ar
    47    94    95    1
    48   125   126    1
    49   135   132    1
    50    95    98    1
    51   131   126   am
    52   131   132    1
    53    82    76   am
    54    77    76    2
    55   126   127    2
    56   132   133    1
    57    76    75    1
    58    98    99    1
    59    68    67    2
    60    99   100    1
    61   100   101    1
    62   133   134    2
    63   133   142   am
    64   184   182   am
    65    67    66    1
    66    75    74    1
    67    75    78    1
    68   142   143    1
    69   183   182    2
    70   182   181    1
    71    73    71   am
    72    78    79    1
    73    69    66    1
    74    69    70    1
    75   181   180    1
    76   145   144    2
    77    66    65    1
    78   143   146    1
    79   143   144    1
    80   146   147    1
    81    71    70    1
    82    71    72    2
    83   144   148   am
    84   180   177    1
    85    79    80    1
    86   155   157   ar
    87   155   153   ar
    88    80    81    1
    89    65    59   am
    90    60    59    2
    91   157   156   ar
    92   168   166   ar
    93   168   167   ar
    94   166   164   ar
    95    59    58    1
    96   152   153    1
    97   152   149    1
    98   153   154   ar
    99   148   149    1
   100   177   178    1
   101   177   176    1
   102   179   178    2
   103   198   199    1
   104   198   195    1
   105   150   149    1
   106   150   151    2
   107   215   213    1
   108   156   154   ar
   109   178   185   am
   110   167   165   ar
   111   164   163   ar
   112    58    57    1
   113    58    61    1
   114   195   194    1
   115   195   196    1
   116   213   214    1
   117   213   212    1
   118   185   186    1
   119    63    62    2
   120   197   196    2
   121   165   163   ar
   122   208   209    1
   123   163   162    1
   124   196   200   am
   125   186   189    1
   126   186   187    1
   127    61    62    1
   128   209   212    1
   129   209   210    1
   130    12    11    1
   131    62    64   am
   132   189   190    1
   133   188   187    2
   134    34    33    1
   135   211   210    2
   136   200   201    1
   137   162   159    1
   138   190   191    1
   139    11     9   ar
   140    11    10   ar
   141   159   158    1
   142   159   160    1
   143     9     7   ar
   144   191   192    1
   145   201   202    1
   146   201   204    1
   147    35    33    1
   148    10     8   ar
   149    33    32    1
   150   202   203    2
   151   161   160    2
   152   160   169   am
   153    32    29    1
   154     7     6   ar
   155   206   204    1
   156    49    47    1
   157   192   193    1
   158   204   205    1
   159     8     6   ar
   160    48    47    1
   161     6     5    1
   162    47    44    1
   163   169   175    1
   164   169   170    1
   165   205   207    1
   166    56    54    1
   167    29    30    1
   168    29    28    1
   169   175   174    1
   170    31    30    2
   171    30    36   am
   172     5     2    1
   173   170   171    1
   174   170   173    1
   175    28    26   am
   176   171   172    2
   177    44    43    1
   178    44    45    1
   179    43    38   am
   180    54    51    1
   181    54    55    1
   182    50    45   am
   183    50    51    1
   184    36    37    1
   185   174   173    1
   186    45    46    2
   187    51    52    1
   188     4     3    2
   189     2     3    1
   190     2     1    1
   191    26    27    2
   192    26    25    1
   193     3    13   am
   194    38    37    1
   195    38    39    2
   196    37    40    1
   197    25    24    1
   198    13    14    1
   199    13    19    1
   200    24    22   am
   201    52    53    2
   202    14    17    1
   203    14    15    1
   204    19    18    1
   205    18    17    1
   206    20    15   am
   207    20    21    1
   208    40    41    1
   209    40    42    1
   210    22    21    1
   211    22    23    2
   212    15    16    2
