@<TRIPOS>MOLECULE
tmp/5yq7D00.pdb
 232 229 0 0 0
SMALL
GASTEIGER

@<TRIPOS>ATOM
      1  N         89.8410  126.3660  101.2380 N.3   135  PHE135     -0.1241
      2  CA        91.0290  125.7010  100.7080 C.3   135  PHE135      0.1605
      3  C         91.3390  126.1790   99.2970 C.2   135  PHE135      0.2264
      4  O         92.4700  126.5880   98.9920 O.2   135  PHE135     -0.2867
      5  CB        90.8520  124.1810  100.7030 C.3   135  PHE135      0.0534
      6  CG        90.8150  123.5570  102.0640 C.ar  135  PHE135     -0.0203
      7  CD1       91.9480  123.5200  102.8470 C.ar  135  PHE135     -0.0042
      8  CD2       89.6750  122.9290  102.5240 C.ar  135  PHE135     -0.0042
      9  CE1       91.9260  122.9340  104.0880 C.ar  135  PHE135     -0.0003
     10  CE2       89.6480  122.3330  103.7670 C.ar  135  PHE135     -0.0003
     11  CZ        90.7770  122.3340  104.5480 C.ar  135  PHE135     -0.0000
     12  N        101.1590  121.5840   97.1840 N.3   159  PHE159     -0.1241
     13  CA        99.9490  121.6890   97.9980 C.3   159  PHE159      0.1605
     14  C         98.7470  121.0450   97.3130 C.2   159  PHE159      0.2264
     15  O         97.8180  120.5640   97.9870 O.2   159  PHE159     -0.2867
     16  CB        99.6970  123.1620   98.3060 C.3   159  PHE159      0.0534
     17  CG        98.5640  123.4140   99.2420 C.ar  159  PHE159     -0.0203
     18  CD1       98.6600  123.0690  100.5720 C.ar  159  PHE159     -0.0042
     19  CD2       97.4320  124.0690   98.8090 C.ar  159  PHE159     -0.0042
     20  CE1       97.6310  123.3250  101.4420 C.ar  159  PHE159     -0.0003
     21  CE2       96.4010  124.3350   99.6760 C.ar  159  PHE159     -0.0003
     22  CZ        96.4980  123.9590  100.9930 C.ar  159  PHE159     -0.0000
     23  N         97.6300  117.3700   98.5610 N.3   162  VAL162     -0.1231
     24  CA        96.7850  117.1920   99.7320 C.3   162  VAL162      0.1692
     25  C         95.4240  117.8440   99.5170 C.2   162  VAL162      0.2591
     26  O         94.4180  117.4020  100.0920 O.2   162  VAL162     -0.2718
     27  CB        97.5010  117.7250  100.9840 C.3   162  VAL162      0.0266
     28  CG1       97.6020  119.2320  100.9440 C.3   162  VAL162      0.0020
     29  CG2       96.8040  117.2480  102.2340 C.3   162  VAL162      0.0020
     30  N         95.3460  118.8750   98.6710 N.am  163  VAL163     -0.1980
     31  CA        94.0230  119.3950   98.3280 C.3   163  VAL163      0.1595
     32  C         93.2110  118.3360   97.5980 C.2   163  VAL163      0.2287
     33  O         92.0180  118.1410   97.8740 O.2   163  VAL163     -0.2864
     34  CB        94.1400  120.6810   97.4970 C.3   163  VAL163      0.0276
     35  CG1       92.7730  121.1040   97.0080 C.3   163  VAL163      0.0022
     36  CG2       94.7350  121.7680   98.3340 C.3   163  VAL163      0.0022
     37  N         93.5680  115.2240   97.9580 N.3   165  SER165     -0.1202
     38  CA        93.1890  114.2670   98.9910 C.3   165  SER165      0.2020
     39  C         91.8960  114.6840   99.6750 C.2   165  SER165      0.2618
     40  O         90.9500  113.8930   99.7820 O.2   165  SER165     -0.2717
     41  CB        94.3130  114.1310  100.0100 C.3   165  SER165      0.2103
     42  OG        95.4590  113.5850   99.3930 O.3   165  SER165     -0.2182
     43  N         91.8490  115.9250  100.1630 N.am  166  TRP166     -0.1975
     44  CA        90.6320  116.4160  100.8020 C.3   166  TRP166      0.1640
     45  C         89.4250  116.2690   99.8910 C.2   166  TRP166      0.2290
     46  O         88.3630  115.8150  100.3290 O.2   166  TRP166     -0.2864
     47  CB        90.7840  117.8740  101.2160 C.3   166  TRP166      0.0576
     48  CG        89.5100  118.4480  101.7550 C.ar  166  TRP166      0.0006
     49  CD1       88.6340  119.2480  101.0900 C.ar  166  TRP166      0.0946
     50  CD2       88.9680  118.2660  103.0660 C.ar  166  TRP166      0.0152
     51  NE1       87.5820  119.5780  101.9030 N.ar  166  TRP166     -0.2442
     52  CE2       87.7630  118.9850  103.1230 C.ar  166  TRP166      0.0810
     53  CE3       89.3850  117.5660  104.1970 C.ar  166  TRP166      0.0012
     54  CZ2       86.9730  119.0260  104.2620 C.ar  166  TRP166      0.0191
     55  CZ3       88.5980  117.6090  105.3270 C.ar  166  TRP166      0.0001
     56  CH2       87.4060  118.3330  105.3520 C.ar  166  TRP166      0.0015
     57  N         88.2960  112.6000   99.7450 N.3   169  LEU169     -0.1245
     58  CA        87.7170  111.9590  100.9140 C.3   169  LEU169      0.1561
     59  C         86.3760  112.5550  101.3260 C.2   169  LEU169      0.2260
     60  O         85.6650  111.9360  102.1220 O.2   169  LEU169     -0.2867
     61  CB        88.7240  112.0290  102.0610 C.3   169  LEU169      0.0270
     62  CG        88.5230  111.1930  103.3150 C.3   169  LEU169      0.0019
     63  CD1       89.8740  110.7760  103.8330 C.3   169  LEU169      0.0001
     64  CD2       87.8170  112.0060  104.3670 C.3   169  LEU169      0.0001
     65  N         82.2650  111.9630  106.7340 N.3   184  PHE184     -0.1241
     66  CA        83.4240  112.1800  107.5810 C.3   184  PHE184      0.1605
     67  C         83.0150  112.8690  108.8750 C.2   184  PHE184      0.2264
     68  O         83.0640  114.1020  108.9610 O.2   184  PHE184     -0.2867
     69  CB        84.4430  113.0130  106.8120 C.3   184  PHE184      0.0534
     70  CG        85.7240  113.2250  107.5320 C.ar  184  PHE184     -0.0203
     71  CD1       86.6180  112.1920  107.6820 C.ar  184  PHE184     -0.0042
     72  CD2       86.0570  114.4680  108.0190 C.ar  184  PHE184     -0.0042
     73  CE1       87.8060  112.3880  108.3320 C.ar  184  PHE184     -0.0003
     74  CE2       87.2470  114.6690  108.6680 C.ar  184  PHE184     -0.0003
     75  CZ        88.1230  113.6290  108.8250 C.ar  184  PHE184     -0.0000
     76  N         85.8600  107.1540  113.6080 N.3   194  TRP194     -0.1227
     77  CA        85.4690  106.8680  112.2330 C.3   194  TRP194      0.1737
     78  C         86.5710  106.1130  111.5060 C.2   194  TRP194      0.2595
     79  O         86.3120  105.1250  110.8050 O.2   194  TRP194     -0.2718
     80  CB        85.1470  108.1570  111.4940 C.3   194  TRP194      0.0564
     81  CG        84.7200  107.9040  110.1050 C.ar  194  TRP194      0.0003
     82  CD1       83.5480  107.3530  109.7000 C.ar  194  TRP194      0.0946
     83  CD2       85.4810  108.1470  108.9230 C.ar  194  TRP194      0.0152
     84  NE1       83.5170  107.2630  108.3320 N.ar  194  TRP194     -0.2442
     85  CE2       84.6980  107.7420  107.8330 C.ar  194  TRP194      0.0810
     86  CE3       86.7470  108.6790  108.6820 C.ar  194  TRP194      0.0012
     87  CZ2       85.1370  107.8530  106.5220 C.ar  194  TRP194      0.0191
     88  CZ3       87.1810  108.7870  107.3840 C.ar  194  TRP194      0.0001
     89  CH2       86.3800  108.3780  106.3200 C.ar  194  TRP194      0.0015
     90  N         87.8090  106.5820  111.6460 N.am  195  VAL195     -0.1966
     91  CA        88.9370  105.8850  111.0430 C.3   195  VAL195      0.1727
     92  C         89.0440  104.4790  111.6040 C.2   195  VAL195      0.2616
     93  O         89.2770  103.5150  110.8700 O.2   195  VAL195     -0.2715
     94  CB        90.2310  106.6790  111.2720 C.3   195  VAL195      0.0290
     95  CG1       91.4110  105.9200  110.7220 C.3   195  VAL195      0.0023
     96  CG2       90.1190  108.0380  110.6330 C.3   195  VAL195      0.0023
     97  N         88.8720  104.3420  112.9140 N.am  196  SER196     -0.1950
     98  CA        88.9990  103.0280  113.5300 C.3   196  SER196      0.1924
     99  C         87.9120  102.0810  113.0480 C.2   196  SER196      0.2314
    100  O         88.1300  100.8680  112.9780 O.2   196  SER196     -0.2863
    101  CB        88.9590  103.1480  115.0490 C.3   196  SER196      0.2116
    102  OG        89.0580  101.8720  115.6530 O.3   196  SER196     -0.2180
    103  N         86.3360  102.3250  109.8880 N.3   198  ILE198     -0.1231
    104  CA        86.7170  102.0000  108.5150 C.3   198  ILE198      0.1692
    105  C         87.8600  101.0030  108.5050 C.2   198  ILE198      0.2593
    106  O         87.9710  100.1780  107.5930 O.2   198  ILE198     -0.2718
    107  CB        87.0860  103.2790  107.7380 C.3   198  ILE198      0.0266
    108  CG1       85.8970  104.2270  107.6780 C.3   198  ILE198      0.0019
    109  CG2       87.5080  102.9440  106.3290 C.3   198  ILE198      0.0020
    110  CD1       84.7260  103.6540  106.9330 C.3   198  ILE198      0.0001
    111  N         88.7080  101.0430  109.5220 N.am  199  GLY199     -0.1942
    112  CA        89.8540  100.1660  109.5710 C.3   199  GLY199      0.2014
    113  C         89.4630   98.7090  109.5810 C.2   199  GLY199      0.2638
    114  O         89.7070   97.9920  108.6090 O.2   199  GLY199     -0.2714
    115  N         88.8210   98.2620  110.6540 N.am  200  TYR200     -0.1973
    116  CA        88.4760   96.8540  110.7230 C.3   200  TYR200      0.1639
    117  C         87.2450   96.5130  109.9020 C.2   200  TYR200      0.2290
    118  O         86.7910   95.3670  109.9540 O.2   200  TYR200     -0.2864
    119  CB        88.2770   96.4420  112.1750 C.3   200  TYR200      0.0560
    120  CG        89.5380   96.5340  112.9920 C.ar  200  TYR200     -0.0198
    121  CD1       90.4990   95.5410  112.9340 C.ar  200  TYR200     -0.0009
    122  CD2       89.7700   97.6170  113.8180 C.ar  200  TYR200     -0.0009
    123  CE1       91.6500   95.6230  113.6780 C.ar  200  TYR200      0.0417
    124  CE2       90.9160   97.7060  114.5630 C.ar  200  TYR200      0.0417
    125  CZ        91.8520   96.7090  114.4890 C.ar  200  TYR200      0.1957
    126  OH        92.9960   96.8020  115.2380 O.3   200  TYR200     -0.2866
    127  N         91.8750   94.1750  108.4560 N.3   204  ASN204     -0.1225
    128  CA        93.2800   94.3340  108.8260 C.3   204  ASN204      0.1785
    129  C         94.0540   95.2740  107.9160 C.2   204  ASN204      0.2597
    130  O         95.1600   95.6940  108.2620 O.2   204  ASN204     -0.2718
    131  CB        93.9840   92.9700  108.9080 C.3   204  ASN204      0.1169
    132  CG        94.3130   92.3520  107.5470 C.2   204  ASN204      0.2627
    133  OD1       94.3450   93.0140  106.5130 O.2   204  ASN204     -0.2716
    134  ND2       94.5340   91.0470  107.5550 N.am  204  ASN204     -0.0877
    135  N         93.5100   95.5880  106.7500 N.am  205  PHE205     -0.1962
    136  CA        93.7850   96.7640  105.9400 C.3   205  PHE205      0.1771
    137  C         95.2840   96.9660  105.6740 C.2   205  PHE205      0.2619
    138  O         95.6400   97.8740  104.9290 O.2   205  PHE205     -0.2715
    139  CB        93.1910   98.0490  106.5440 C.3   205  PHE205      0.0574
    140  CG        93.2380   99.2260  105.6290 C.ar  205  PHE205     -0.0200
    141  CD1       92.3940   99.3040  104.5410 C.ar  205  PHE205     -0.0042
    142  CD2       94.1110  100.2640  105.8670 C.ar  205  PHE205     -0.0042
    143  CE1       92.4300  100.3880  103.7050 C.ar  205  PHE205     -0.0003
    144  CE2       94.1510  101.3520  105.0330 C.ar  205  PHE205     -0.0003
    145  CZ        93.3090  101.4150  103.9510 C.ar  205  PHE205     -0.0000
    146  N         96.1720   96.1340  106.2260 N.am  206  PHE206     -0.1974
    147  CA        97.5860   96.2300  105.8820 C.3   206  PHE206      0.1639
    148  C         97.8650   95.5850  104.5360 C.2   206  PHE206      0.2290
    149  O         98.5670   96.1590  103.6980 O.2   206  PHE206     -0.2864
    150  CB        98.4540   95.5500  106.9340 C.3   206  PHE206      0.0560
    151  CG        98.5900   96.2980  108.2200 C.ar  206  PHE206     -0.0200
    152  CD1       99.4650   97.3580  108.3260 C.ar  206  PHE206     -0.0042
    153  CD2       97.9040   95.8900  109.3460 C.ar  206  PHE206     -0.0042
    154  CE1       99.6150   98.0250  109.5190 C.ar  206  PHE206     -0.0003
    155  CE2       98.0510   96.5530  110.5390 C.ar  206  PHE206     -0.0003
    156  CZ        98.9090   97.6200  110.6260 C.ar  206  PHE206     -0.0000
    157  N         98.7040  101.1280  100.4960 N.3   211  HIS211     -0.1241
    158  CA        98.8820  101.5430  101.8780 C.3   211  HIS211      0.1621
    159  C        100.1330  100.9260  102.4690 C.2   211  HIS211      0.2264
    160  O        100.4440  101.1760  103.6370 O.2   211  HIS211     -0.2867
    161  CB        97.6710  101.1620  102.7370 C.3   211  HIS211      0.0745
    162  CG        97.6750  101.7870  104.0970 C.ar  211  HIS211      0.0817
    163  ND1       98.3540  101.2410  105.1640 N.ar  211  HIS211     -0.2268
    164  CD2       97.0820  102.9110  104.5650 C.ar  211  HIS211      0.1154
    165  CE1       98.1790  102.0010  106.2310 C.ar  211  HIS211      0.1986
    166  NE2       97.4100  103.0210  105.8950 N.ar  211  HIS211     -0.2212
    167  N        102.7710  103.9930  100.6200 N.3   214  GLY214     -0.1210
    168  CA       102.6730  105.2800  101.2840 C.3   214  GLY214      0.1956
    169  C        103.3450  105.3310  102.6370 C.2   214  GLY214      0.2611
    170  O        103.6680  106.4270  103.1080 O.2   214  GLY214     -0.2717
    171  N        103.5720  104.1860  103.2650 N.am  215  ILE215     -0.1979
    172  CA       104.2910  104.1530  104.5290 C.3   215  ILE215      0.1595
    173  C        105.7900  104.2200  104.3060 C.2   215  ILE215      0.2287
    174  O        106.5020  104.9450  105.0120 O.2   215  ILE215     -0.2864
    175  CB       103.8980  102.8880  105.3050 C.3   215  ILE215      0.0276
    176  CG1      102.3880  102.8420  105.4580 C.3   215  ILE215      0.0022
    177  CG2      104.5560  102.8750  106.6600 C.3   215  ILE215      0.0022
    178  CD1      101.8370  104.0480  106.1410 C.3   215  ILE215      0.0001
    179  N        106.6280  107.7150  103.5190 N.3   218  LEU218     -0.1231
    180  CA       106.5760  108.5860  104.6900 C.3   218  LEU218      0.1693
    181  C        107.8450  108.4550  105.5300 C.2   218  LEU218      0.2592
    182  O        108.5050  109.4560  105.8670 O.2   218  LEU218     -0.2718
    183  CB       105.3320  108.2290  105.5050 C.3   218  LEU218      0.0284
    184  CG       104.7590  109.1090  106.6130 C.3   218  LEU218      0.0019
    185  CD1      105.5790  109.0280  107.8890 C.3   218  LEU218      0.0001
    186  CD2      104.6230  110.5360  106.1310 C.3   218  LEU218      0.0001
    187  N        108.1970  107.2200  105.8880 N.am  219  PHE219     -0.1976
    188  CA       109.3830  107.0150  106.7110 C.3   219  PHE219      0.1639
    189  C        110.6430  107.4610  105.9850 C.2   219  PHE219      0.2290
    190  O        111.5280  108.0820  106.5870 O.2   219  PHE219     -0.2864
    191  CB       109.5000  105.5530  107.1320 C.3   219  PHE219      0.0560
    192  CG       108.4790  105.1300  108.1390 C.ar  219  PHE219     -0.0200
    193  CD1      107.6830  106.0600  108.7740 C.ar  219  PHE219     -0.0042
    194  CD2      108.3340  103.7990  108.4700 C.ar  219  PHE219     -0.0042
    195  CE1      106.7520  105.6630  109.7030 C.ar  219  PHE219     -0.0003
    196  CE2      107.4060  103.4010  109.3980 C.ar  219  PHE219     -0.0003
    197  CZ       106.6130  104.3320  110.0140 C.ar  219  PHE219     -0.0000
    198  N        103.6290  109.9340   98.4920 N.3   273  SER273     -0.1202
    199  CA       102.9620  109.1440   99.5200 C.3   273  SER273      0.2020
    200  C        101.4600  109.3910   99.5130 C.2   273  SER273      0.2618
    201  O        100.6580  108.4620   99.3380 O.2   273  SER273     -0.2717
    202  CB       103.5470  109.4790  100.8890 C.3   273  SER273      0.2103
    203  OG       103.2260  110.8090  101.2440 O.3   273  SER273     -0.2182
    204  N        101.0600  110.6450   99.7130 N.am  274  VAL274     -0.1979
    205  CA        99.6390  110.9320   99.7890 C.3   274  VAL274      0.1595
    206  C         98.9790  110.6980   98.4360 C.2   274  VAL274      0.2287
    207  O         97.8020  110.3020   98.3700 O.2   274  VAL274     -0.2864
    208  CB        99.4180  112.3610  100.3140 C.3   274  VAL274      0.0276
    209  CG1       99.7870  113.3920   99.2630 C.3   274  VAL274      0.0022
    210  CG2       98.0000  112.5330  100.7940 C.3   274  VAL274      0.0022
    211  N         98.1590  107.1050   98.5050 N.3   277  SER277     -0.1202
    212  CA        97.1980  106.7940   99.5600 C.3   277  SER277      0.2020
    213  C         95.7740  107.1600   99.1600 C.2   277  SER277      0.2618
    214  O         94.8140  106.5000   99.5940 O.2   277  SER277     -0.2717
    215  CB        97.5820  107.5140  100.8470 C.3   277  SER277      0.2103
    216  OG        97.4150  108.9110  100.7020 O.3   277  SER277     -0.2182
    217  N         95.6110  108.2240   98.3690 N.am  278  ASN278     -0.1974
    218  CA        94.2850  108.5740   97.8650 C.3   278  ASN278      0.1688
    219  C         93.6280  107.3890   97.1680 C.2   278  ASN278      0.2292
    220  O         92.5540  106.9240   97.5710 O.2   278  ASN278     -0.2864
    221  CB        94.3880  109.7570   96.9100 C.3   278  ASN278      0.1181
    222  CG        94.7480  111.0300   97.6160 C.2   278  ASN278      0.2629
    223  OD1       94.2560  111.2980   98.7070 O.2   278  ASN278     -0.2716
    224  ND2       95.6130  111.8270   97.0020 N.am  278  ASN278     -0.0877
    225  N         92.6870  104.3780   99.5720 N.3   281  ILE281     -0.1245
    226  CA        91.4380  104.3640  100.3210 C.3   281  ILE281      0.1561
    227  C         90.2340  104.4590   99.4030 C.2   281  ILE281      0.2260
    228  O         89.1390  104.0420   99.7910 O.2   281  ILE281     -0.2867
    229  CB        91.3650  105.4900  101.3630 C.3   281  ILE281      0.0252
    230  CG1       91.2030  106.8450  100.6820 C.3   281  ILE281      0.0019
    231  CG2       92.6080  105.4790  102.2120 C.3   281  ILE281      0.0019
    232  CD1       90.8350  107.9610  101.6360 C.3   281  ILE281      0.0001
@<TRIPOS>BOND
     1   221   222    1
     2   221   218    1
     3   224   222   am
     4    35    34    1
     5   219   220    2
     6   219   218    1
     7    12    13    1
     8    14    15    2
     9    14    13    1
    10    34    31    1
    11    34    36    1
    12    32    33    2
    13    32    31    1
    14   222   223    2
    15   218   217    1
    16    37    38    1
    17    13    16    1
    18    16    17    1
    19    31    30    1
    20   217   213   am
    21   207   206    2
    22   206   205    1
    23   198   199    1
    24   211   212    1
    25    23    24    1
    26    30    25   am
    27    19    17   ar
    28    19    21   ar
    29    38    39    1
    30    38    41    1
    31     4     3    2
    32   213   212    1
    33   213   214    2
    34    17    18   ar
    35   209   208    1
    36     3     2    1
    37   201   200    2
    38    42    41    1
    39   227   228    2
    40   227   226    1
    41   200   199    1
    42   200   204   am
    43    25    24    1
    44    25    26    2
    45   199   202    1
    46   212   215    1
    47   225   226    1
    48    39    40    2
    49    39    43   am
    50    21    22   ar
    51   204   205    1
    52    24    27    1
    53    57    58    1
    54   205   208    1
    55    45    46    2
    56    45    44    1
    57    43    44    1
    58   208   210    1
    59   226   229    1
    60   157   158    1
    61    18    20   ar
    62   167   168    1
    63   230   229    1
    64   230   232    1
    65   216   215    1
    66     5     2    1
    67     5     6    1
    68     2     1    1
    69    44    47    1
    70   202   203    1
    71    58    59    1
    72    58    61    1
    73    28    27    1
    74    27    29    1
    75    22    20   ar
    76    49    48   ar
    77    49    51   ar
    78    47    48    1
    79   168   169    1
    80    59    60    2
    81   229   231    1
    82    48    50   ar
    83   158   159    1
    84   158   161    1
    85    51    52   ar
    86    61    62    1
    87     6     8   ar
    88     6     7   ar
    89   159   160    2
    90     8    10   ar
    91   169   170    2
    92   169   171   am
    93   161   162    1
    94     7     9   ar
    95    50    52   ar
    96    50    53   ar
    97    52    54   ar
    98   171   172    1
    99    62    63    1
   100    62    64    1
   101   179   180    1
   102   149   148    2
   103   143   145   ar
   104   143   141   ar
   105    10    11   ar
   106   145   144   ar
   107     9    11   ar
   108   162   164   ar
   109   162   163   ar
   110    53    55   ar
   111    54    56   ar
   112   173   172    1
   113   173   174    2
   114   172   175    1
   115   148   147    1
   116   141   140   ar
   117   164   166   ar
   118   180   183    1
   119   180   181    1
   120   138   137    2
   121   144   142   ar
   122   163   165   ar
   123   175   176    1
   124   175   177    1
   125    55    56   ar
   126   176   178    1
   127   183   184    1
   128   181   182    2
   129   181   187   am
   130   140   142   ar
   131   140   139    1
   132   137   136    1
   133   137   146   am
   134   147   146    1
   135   147   150    1
   136   187   188    1
   137   166   165   ar
   138   136   139    1
   139   136   135    1
   140   189   190    2
   141   189   188    1
   142   186   184    1
   143    89    87   ar
   144    89    88   ar
   145   109   107    1
   146   133   132    2
   147    87    85   ar
   148   184   185    1
   149   188   191    1
   150    65    66    1
   151   135   129   am
   152    69    70    1
   153    69    66    1
   154   110   108    1
   155   150   151    1
   156   191   192    1
   157    88    86   ar
   158    70    71   ar
   159    70    72   ar
   160   132   134   am
   161   132   131    1
   162    66    67    1
   163   106   105    2
   164   108   107    1
   165    71    73   ar
   166   107   104    1
   167    85    84   ar
   168    85    83   ar
   169   129   130    2
   170   129   128    1
   171    72    74   ar
   172   192   194   ar
   173   192   193   ar
   174   151   152   ar
   175   151   153   ar
   176   152   154   ar
   177    73    75   ar
   178    84    82   ar
   179   127   128    1
   180   194   196   ar
   181   105   104    1
   182   105   111   am
   183   104   103    1
   184   114   113    2
   185    74    75   ar
   186    86    83   ar
   187   193   195   ar
   188   128   131    1
   189    67    68    2
   190    83    81   ar
   191   153   155   ar
   192   196   197   ar
   193   154   156   ar
   194   111   112    1
   195   112   113    1
   196   113   115   am
   197    82    81   ar
   198   195   197   ar
   199   117   118    2
   200   117   116    1
   201    81    80    1
   202   155   156   ar
   203    96    94    1
   204   115   116    1
   205    95    94    1
   206   116   119    1
   207    79    78    2
   208    93    92    2
   209    91    94    1
   210    91    92    1
   211    91    90    1
   212    80    77    1
   213    78    90   am
   214    78    77    1
   215    92    97   am
   216   119   120    1
   217    77    76    1
   218    97    98    1
   219   121   120   ar
   220   121   123   ar
   221   100    99    2
   222   120   122   ar
   223    99    98    1
   224    98   101    1
   225   123   125   ar
   226   122   124   ar
   227   125   124   ar
   228   125   126    1
   229   101   102    1
