@<TRIPOS>MOLECULE
tmp/5yq7D03.pdb
 113 105 0 0 0
SMALL
GASTEIGER

@<TRIPOS>ATOM
      1  N        105.6330  126.6830  120.4910 N.3    20  ILE20      -0.1245
      2  CA       105.6240  127.2290  119.1370 C.3    20  ILE20       0.1561
      3  C        105.3340  128.7220  119.1700 C.2    20  ILE20       0.2260
      4  O        106.0130  129.5170  118.5100 O.2    20  ILE20      -0.2867
      5  CB       104.6240  126.4730  118.2450 C.3    20  ILE20       0.0252
      6  CG1      105.1300  125.0600  117.9700 C.3    20  ILE20       0.0019
      7  CG2      104.4010  127.2110  116.9420 C.3    20  ILE20       0.0019
      8  CD1      104.1310  124.1880  117.2640 C.3    20  ILE20       0.0001
      9  N         97.3600  144.6760  103.5120 N.3    63  ILE63      -0.1245
     10  CA        97.0500  144.8690  104.9190 C.3    63  ILE63       0.1561
     11  C         98.1550  144.2740  105.7710 C.2    63  ILE63       0.2260
     12  O         98.5970  143.1410  105.5460 O.2    63  ILE63      -0.2867
     13  CB        95.6860  144.2520  105.2470 C.3    63  ILE63       0.0252
     14  CG1       94.5970  144.9600  104.4440 C.3    63  ILE63       0.0019
     15  CG2       95.4050  144.3530  106.7300 C.3    63  ILE63       0.0019
     16  CD1       93.2560  144.2740  104.4910 C.3    63  ILE63       0.0001
     17  N        100.9780  141.2010  104.8900 N.3    66  PHE66      -0.1241
     18  CA       100.7090  140.3230  103.7590 C.3    66  PHE66       0.1605
     19  C         99.6310  140.8920  102.8380 C.2    66  PHE66       0.2264
     20  O         98.8400  141.7570  103.2230 O.2    66  PHE66      -0.2867
     21  CB       100.3140  138.9350  104.2560 C.3    66  PHE66       0.0534
     22  CG        99.2580  138.9500  105.3180 C.ar   66  PHE66      -0.0203
     23  CD1       97.9210  139.0490  104.9910 C.ar   66  PHE66      -0.0042
     24  CD2       99.6110  138.8870  106.6530 C.ar   66  PHE66      -0.0042
     25  CE1       96.9580  139.0700  105.9740 C.ar   66  PHE66      -0.0003
     26  CE2       98.6530  138.9010  107.6410 C.ar   66  PHE66      -0.0003
     27  CZ        97.3220  138.9930  107.3020 C.ar   66  PHE66      -0.0000
     28  N         96.4200  140.5600   99.9430 N.3    68  VAL68      -0.1245
     29  CA        95.1890  139.8190   99.6900 C.3    68  VAL68       0.1561
     30  C         94.5130  140.3630   98.4420 C.2    68  VAL68       0.2260
     31  O         93.8160  141.3800   98.5010 O.2    68  VAL68      -0.2867
     32  CB        94.2360  139.8990  100.8950 C.3    68  VAL68       0.0252
     33  CG1       94.7900  139.1310  102.0800 C.3    68  VAL68       0.0019
     34  CG2       93.9270  141.3550  101.2480 C.3    68  VAL68       0.0019
     35  N         91.8200  136.4080   98.8140 N.3    72  GLY72      -0.1225
     36  CA        91.8220  136.4320  100.2620 C.3    72  GLY72       0.1811
     37  C         90.5060  136.8670  100.8630 C.2    72  GLY72       0.2280
     38  O         90.1950  136.4820  101.9920 O.2    72  GLY72      -0.2866
     39  N         88.6550  133.7820  101.0510 N.3    75  SER75      -0.1202
     40  CA        89.2680  132.9880  102.1080 C.3    75  SER75       0.2020
     41  C         88.7610  133.4160  103.4770 C.2    75  SER75       0.2618
     42  O         88.3650  132.5800  104.2940 O.2    75  SER75      -0.2717
     43  CB        90.7880  133.1090  102.0300 C.3    75  SER75       0.2103
     44  OG        91.2690  132.5830  100.8080 O.3    75  SER75      -0.2182
     45  N         88.7500  134.7220  103.7380 N.am   76  ILE76      -0.1979
     46  CA        88.3670  135.2150  105.0550 C.3    76  ILE76       0.1595
     47  C         86.8780  135.0080  105.2940 C.2    76  ILE76       0.2287
     48  O         86.4580  134.6590  106.4070 O.2    76  ILE76      -0.2864
     49  CB        88.7800  136.6880  105.2000 C.3    76  ILE76       0.0276
     50  CG1       88.0590  137.5120  104.1400 C.3    76  ILE76       0.0022
     51  CG2       90.2720  136.8430  105.0540 C.3    76  ILE76       0.0022
     52  CD1       88.2020  139.0010  104.2960 C.3    76  ILE76       0.0001
     53  N         86.5370  131.3820  106.1650 N.3    79  ILE79      -0.1231
     54  CA        87.1270  131.0640  107.4610 C.3    79  ILE79       0.1692
     55  C         86.2090  131.5040  108.5910 C.2    79  ILE79       0.2591
     56  O         85.8760  130.7150  109.4850 O.2    79  ILE79      -0.2718
     57  CB        88.5240  131.6920  107.5880 C.3    79  ILE79       0.0266
     58  CG1       89.4970  130.9930  106.6420 C.3    79  ILE79       0.0019
     59  CG2       89.0150  131.6050  109.0170 C.3    79  ILE79       0.0020
     60  CD1       90.8090  131.7090  106.4820 C.3    79  ILE79       0.0001
     61  N         85.7970  132.7720  108.5790 N.am   80  ILE80      -0.1980
     62  CA        84.9590  133.2720  109.6640 C.3    80  ILE80       0.1595
     63  C         83.6510  132.4980  109.7190 C.2    80  ILE80       0.2287
     64  O         83.2080  132.0600  110.7930 O.2    80  ILE80      -0.2864
     65  CB        84.7150  134.7810  109.5090 C.3    80  ILE80       0.0276
     66  CG1       86.0320  135.5420  109.6150 C.3    80  ILE80       0.0022
     67  CG2       83.7450  135.2670  110.5650 C.3    80  ILE80       0.0022
     68  CD1       85.9100  136.9950  109.2470 C.3    80  ILE80       0.0001
     69  N         84.2430  128.8620  111.0860 N.3    83  VAL83      -0.1231
     70  CA        84.5450  128.7970  112.5130 C.3    83  VAL83       0.1692
     71  C         83.2900  129.0720  113.3300 C.2    83  VAL83       0.2591
     72  O         82.9340  128.3050  114.2370 O.2    83  VAL83      -0.2718
     73  CB        85.6780  129.7710  112.8770 C.3    83  VAL83       0.0266
     74  CG1       85.8660  129.8080  114.3770 C.3    83  VAL83       0.0020
     75  CG2       86.9660  129.3420  112.2180 C.3    83  VAL83       0.0020
     76  N         82.5980  130.1720  113.0200 N.am   84  ALA84      -0.1980
     77  CA        81.4120  130.5240  113.7910 C.3    84  ALA84       0.1597
     78  C         80.3650  129.4220  113.7270 C.2    84  ALA84       0.2287
     79  O         79.7390  129.0830  114.7380 O.2    84  ALA84      -0.2864
     80  CB        80.8310  131.8420  113.2870 C.3    84  ALA84       0.0319
     81  N         81.2920  126.3080  115.7090 N.3    87  LEU87      -0.1245
     82  CA        81.0450  126.5070  117.1330 C.3    87  LEU87       0.1561
     83  C         79.5550  126.4880  117.4420 C.2    87  LEU87       0.2260
     84  O         79.1350  125.9980  118.5020 O.2    87  LEU87      -0.2867
     85  CB        81.6900  127.8050  117.5980 C.3    87  LEU87       0.0270
     86  CG        83.2090  127.6710  117.5540 C.3    87  LEU87       0.0019
     87  CD1       83.8940  128.9800  117.8820 C.3    87  LEU87       0.0001
     88  CD2       83.6480  126.5780  118.5080 C.3    87  LEU87       0.0001
     89  N         92.5250  129.7730   98.9880 N.3   138  TRP138     -0.1241
     90  CA        93.8570  130.0040   99.5260 C.3   138  TRP138      0.1605
     91  C         94.9300  129.4800   98.5760 C.2   138  TRP138      0.2264
     92  O         95.9870  130.1060   98.4060 O.2   138  TRP138     -0.2867
     93  CB        93.9590  129.3530  100.8990 C.3   138  TRP138      0.0550
     94  CG        95.1340  129.7670  101.6780 C.ar  138  TRP138      0.0003
     95  CD1       95.3750  130.9980  102.2050 C.ar  138  TRP138      0.0946
     96  CD2       96.2410  128.9520  102.0330 C.ar  138  TRP138      0.0152
     97  NE1       96.5700  130.9980  102.8760 N.ar  138  TRP138     -0.2442
     98  CE2       97.1230  129.7490  102.7810 C.ar  138  TRP138      0.0810
     99  CE3       96.5720  127.6200  101.7950 C.ar  138  TRP138      0.0012
    100  CZ2       98.3150  129.2610  103.2860 C.ar  138  TRP138      0.0191
    101  CZ3       97.7540  127.1370  102.2940 C.ar  138  TRP138      0.0001
    102  CH2       98.6100  127.9520  103.0370 C.ar  138  TRP138      0.0015
    103  N         95.3430  131.9710   95.9630 N.3   141  ARG141     -0.1245
    104  CA        96.1370  133.0670   96.5050 C.3   141  ARG141      0.1563
    105  C         97.6260  132.7730   96.4160 C.2   141  ARG141      0.2260
    106  O         98.4210  133.6550   96.0680 O.2   141  ARG141     -0.2867
    107  CB        95.7440  133.3290   97.9520 C.3   141  ARG141      0.0307
    108  CG        96.5420  134.4240   98.6110 C.3   141  ARG141      0.0489
    109  CD        96.0840  134.6050  100.0340 C.3   141  ARG141      0.2205
    110  NE        96.8940  135.5760  100.7520 N.pl3 141  ARG141     -0.0865
    111  CZ        96.6940  135.9070  102.0210 C.cat 141  ARG141      0.5346
    112  NH1       95.7100  135.3420  102.7030 N.pl3 141  ARG141      0.1354
    113  NH2       97.4770  136.8020  102.6060 N.pl3 141  ARG141      0.1354
@<TRIPOS>BOND
     1   103   104    1
     2   106   105    2
     3   105   104    1
     4   104   107    1
     5   107   108    1
     6    92    91    2
     7    30    31    2
     8    30    29    1
     9    91    90    1
    10   108   109    1
    11    35    36    1
    12    89    90    1
    13    90    93    1
    14    29    28    1
    15    29    32    1
    16   109   110    1
    17    36    37    1
    18   110   111    2
    19    44    43    1
    20    37    38    2
    21    32    34    1
    22    32    33    1
    23    93    94    1
    24    39    40    1
    25    94    96   ar
    26    94    95   ar
    27    99    96   ar
    28    99   101   ar
    29   111   113    1
    30   111   112    1
    31    43    40    1
    32    96    98   ar
    33    40    41    1
    34    95    97   ar
    35   101   102   ar
    36    98    97   ar
    37    98   100   ar
    38    19    20    2
    39    19    18    1
    40   102   100   ar
    41    41    45   am
    42    41    42    2
    43     9    10    1
    44    45    46    1
    45    18    21    1
    46    18    17    1
    47    50    52    1
    48    50    49    1
    49    21    22    1
    50    14    16    1
    51    14    13    1
    52    10    13    1
    53    10    11    1
    54    23    22   ar
    55    23    25   ar
    56    51    49    1
    57    46    49    1
    58    46    47    1
    59    13    15    1
    60    47    48    2
    61    22    24   ar
    62    12    11    2
    63    25    27   ar
    64    53    54    1
    65    60    58    1
    66    58    57    1
    67    24    26   ar
    68    27    26   ar
    69    54    57    1
    70    54    55    1
    71    57    59    1
    72    61    55   am
    73    61    62    1
    74    55    56    2
    75    68    66    1
    76    65    66    1
    77    65    62    1
    78    65    67    1
    79    62    63    1
    80    63    64    2
    81    69    70    1
    82    75    73    1
    83    70    73    1
    84    70    71    1
    85    73    74    1
    86    76    71   am
    87    76    77    1
    88    80    77    1
    89    71    72    2
    90    78    77    1
    91    78    79    2
    92    81    82    1
    93     7     5    1
    94    82    83    1
    95    82    85    1
    96     8     6    1
    97    83    84    2
    98    86    85    1
    99    86    87    1
   100    86    88    1
   101     6     5    1
   102     5     2    1
   103     4     3    2
   104     2     3    1
   105     2     1    1
