@<TRIPOS>MOLECULE
tmp/5yqaA01.pdb
 121 113 0 0 0
SMALL
GASTEIGER

@<TRIPOS>ATOM
      1  N         13.0140   16.5490   15.1770 N.3    76  ARG76      -0.1245
      2  CA        12.7160   17.0270   16.5310 C.3    76  ARG76       0.1563
      3  C         14.0580   17.4230   17.1240 C.2    76  ARG76       0.2260
      4  O         15.0950   17.0130   16.6160 O.2    76  ARG76      -0.2867
      5  CB        12.0720   15.9210   17.3850 C.3    76  ARG76       0.0307
      6  CG        12.9710   14.7070   17.5790 C.3    76  ARG76       0.0489
      7  CD        12.3500   13.6270   18.4480 C.3    76  ARG76       0.2205
      8  NE        13.3110   12.5520   18.6360 N.pl3  76  ARG76      -0.0865
      9  CZ        13.2220   11.6260   19.5850 C.cat  76  ARG76       0.5346
     10  NH1       12.1950   11.6350   20.4330 N.pl3  76  ARG76       0.1354
     11  NH2       14.1630   10.7010   19.6820 N.pl3  76  ARG76       0.1354
     12  N         18.1200   14.2050   20.6220 N.3    79  SER79      -0.1217
     13  CA        18.2590   13.5270   21.8940 C.3    79  SER79       0.1889
     14  C         19.5900   13.8910   22.5300 C.2    79  SER79       0.2288
     15  O         20.6300   13.8930   21.8660 O.2    79  SER79      -0.2866
     16  CB        18.1890   12.0150   21.6790 C.3    79  SER79       0.2089
     17  OG        18.5530   11.3200   22.8600 O.3    79  SER79      -0.2183
     18  N         21.1380   12.1350   24.5510 N.3    81  ILE81      -0.1231
     19  CA        21.9010   10.9240   24.8130 C.3    81  ILE81       0.1692
     20  C         22.1690   10.1040   23.5330 C.2    81  ILE81       0.2591
     21  O         23.3260    9.8720   23.1780 O.2    81  ILE81      -0.2718
     22  CB        21.2730   10.1000   25.9820 C.3    81  ILE81       0.0266
     23  CG1       22.1630    8.9070   26.3270 C.3    81  ILE81       0.0019
     24  CG2       19.8260    9.7040   25.6900 C.3    81  ILE81       0.0020
     25  CD1       21.6000    8.0040   27.4140 C.3    81  ILE81       0.0001
     26  N         21.1160    9.7160   22.8140 N.am   82  LEU82      -0.1980
     27  CA        21.2980    8.8980   21.6160 C.3    82  LEU82       0.1596
     28  C         22.0750    9.6510   20.5360 C.2    82  LEU82       0.2287
     29  O         22.8960    9.0670   19.8220 O.2    82  LEU82      -0.2864
     30  CB        19.9400    8.4790   21.0520 C.3    82  LEU82       0.0297
     31  CG        20.0260    7.5890   19.8120 C.3    82  LEU82       0.0022
     32  CD1       20.4960    6.1750   20.1640 C.3    82  LEU82       0.0001
     33  CD2       18.6660    7.5630   19.1550 C.3    82  LEU82       0.0001
     34  N          9.2180    7.7110   15.9790 N.3   165  VAL165     -0.1231
     35  CA        10.6370    7.8430   16.2760 C.3   165  VAL165      0.1692
     36  C         11.4260    6.8210   15.4700 C.2   165  VAL165      0.2592
     37  O         12.4310    7.1460   14.8460 O.2   165  VAL165     -0.2718
     38  CB        10.9050    7.6340   17.7620 C.3   165  VAL165      0.0266
     39  CG1       12.4000    7.4720   18.0160 C.3   165  VAL165      0.0020
     40  CG2       10.3240    8.7910   18.5530 C.3   165  VAL165      0.0020
     41  N         10.9680    5.5760   15.4750 N.am  166  PHE166     -0.1976
     42  CA        11.7140    4.5320   14.7920 C.3   166  PHE166      0.1639
     43  C         11.6150    4.5860   13.2580 C.2   166  PHE166      0.2290
     44  O         12.5850    4.3060   12.5520 O.2   166  PHE166     -0.2864
     45  CB        11.3540    3.1690   15.3860 C.3   166  PHE166      0.0560
     46  CG        12.0020    2.9300   16.7200 C.ar  166  PHE166     -0.0200
     47  CD1       11.3370    3.2190   17.9070 C.ar  166  PHE166     -0.0042
     48  CD2       13.3030    2.4690   16.7770 C.ar  166  PHE166     -0.0042
     49  CE1       11.9620    3.0200   19.1340 C.ar  166  PHE166     -0.0003
     50  CE2       13.9350    2.2660   17.9930 C.ar  166  PHE166     -0.0003
     51  CZ        13.2700    2.5440   19.1720 C.ar  166  PHE166     -0.0000
     52  N         14.2150    7.2840   11.8320 N.3   169  PHE169     -0.1241
     53  CA        15.6260    6.9590   11.6050 C.3   169  PHE169      0.1605
     54  C         15.8360    6.5180   10.1620 C.2   169  PHE169      0.2264
     55  O         16.9670    6.4470    9.6800 O.2   169  PHE169     -0.2867
     56  CB        16.1030    5.8270   12.5150 C.3   169  PHE169      0.0534
     57  CG        16.1090    6.1640   13.9820 C.ar  169  PHE169     -0.0203
     58  CD1       15.3920    5.3860   14.8800 C.ar  169  PHE169     -0.0042
     59  CD2       16.8530    7.2370   14.4690 C.ar  169  PHE169     -0.0042
     60  CE1       15.3960    5.6830   16.2370 C.ar  169  PHE169     -0.0003
     61  CE2       16.8620    7.5410   15.8270 C.ar  169  PHE169     -0.0003
     62  CZ        16.1370    6.7620   16.7110 C.ar  169  PHE169     -0.0000
     63  N         11.9290   12.4460   27.6290 N.3   227  ARG227     -0.1231
     64  CA        11.5460   12.1500   26.2540 C.3   227  ARG227      0.1694
     65  C         12.2620   10.9060   25.7360 C.2   227  ARG227      0.2592
     66  O         11.6880   10.1150   24.9970 O.2   227  ARG227     -0.2718
     67  CB        11.8270   13.3430   25.3380 C.3   227  ARG227      0.0321
     68  CG        11.0810   13.2820   24.0040 C.3   227  ARG227      0.0489
     69  CD        11.5750   14.3400   23.0400 C.3   227  ARG227      0.2205
     70  NE        12.9380   14.0250   22.6390 N.pl3 227  ARG227     -0.0865
     71  CZ        13.6630   14.7160   21.7720 C.cat 227  ARG227      0.5346
     72  NH1       14.8840   14.2930   21.4710 N.pl3 227  ARG227      0.1354
     73  NH2       13.1890   15.8360   21.2290 N.pl3 227  ARG227      0.1354
     74  N         13.5370   10.7640   26.0720 N.am  228  SER228     -0.1952
     75  CA        14.2780    9.5700   25.6760 C.3   228  SER228      0.1924
     76  C         13.6160    8.2790   26.1440 C.2   228  SER228      0.2314
     77  O         13.5170    7.3330   25.3850 O.2   228  SER228     -0.2863
     78  CB        15.7300    9.6270   26.1560 C.3   228  SER228      0.2116
     79  OG        16.4480   10.6030   25.4200 O.3   228  SER228     -0.2180
     80  N         10.5050    7.5710   24.2650 N.3   231  SER231     -0.1202
     81  CA        10.7780    7.2260   22.8730 C.3   231  SER231      0.2020
     82  C         11.2330    5.7820   22.7590 C.2   231  SER231      0.2618
     83  O         10.7680    5.0440   21.8810 O.2   231  SER231     -0.2717
     84  CB        11.8720    8.1250   22.2960 C.3   231  SER231      0.2103
     85  OG        11.5050    9.4880   22.3310 O.3   231  SER231     -0.2182
     86  N         12.1490    5.3950   23.6460 N.am  232  ALA232     -0.1979
     87  CA        12.8650    4.1350   23.5270 C.3   232  ALA232      0.1597
     88  C         12.3600    3.0280   24.4320 C.2   232  ALA232      0.2287
     89  O         12.7400    1.8740   24.2490 O.2   232  ALA232     -0.2864
     90  CB        14.3460    4.3630   23.8070 C.3   232  ALA232      0.0319
     91  N         10.1430   -0.8730   21.9770 N.3   236  THR236     -0.1218
     92  CA        11.2610   -1.7980   21.9490 C.3   236  THR236      0.1862
     93  C         10.8870   -3.0680   22.7200 C.2   236  THR236      0.2287
     94  O         11.0550   -4.1760   22.2260 O.2   236  THR236     -0.2866
     95  CB        12.4740   -1.1600   22.6130 C.3   236  THR236      0.1770
     96  OG1       12.0530   -0.6210   23.8690 O.3   236  THR236     -0.2211
     97  CG2       13.0330   -0.0370   21.7320 C.3   236  THR236      0.0375
     98  N         15.3900   -4.3310   17.2180 N.3   279  VAL279     -0.1245
     99  CA        16.0000   -3.1100   16.7060 C.3   279  VAL279      0.1561
    100  C         17.0240   -3.5580   15.6650 C.2   279  VAL279      0.2260
    101  O         18.0700   -4.1300   15.9970 O.2   279  VAL279     -0.2867
    102  CB        16.6560   -2.2950   17.8290 C.3   279  VAL279      0.0252
    103  CG1       17.2920   -1.0420   17.2550 C.3   279  VAL279      0.0019
    104  CG2       15.6170   -1.9480   18.8990 C.3   279  VAL279      0.0019
    105  N         21.0860    0.7690   12.9790 N.3   282  PHE282     -0.1241
    106  CA        21.3830    2.1640   13.3080 C.3   282  PHE282      0.1605
    107  C         22.4850    2.6490   12.3840 C.2   282  PHE282      0.2264
    108  O         23.2240    1.8320   11.8200 O.2   282  PHE282     -0.2867
    109  CB        21.7740    2.3510   14.7850 C.3   282  PHE282      0.0534
    110  CG        20.5940    2.5300   15.6950 C.ar  282  PHE282     -0.0203
    111  CD1       20.2940    1.5820   16.6650 C.ar  282  PHE282     -0.0042
    112  CD2       19.7750    3.6450   15.5730 C.ar  282  PHE282     -0.0042
    113  CE1       19.2000    1.7510   17.4920 C.ar  282  PHE282     -0.0003
    114  CE2       18.6700    3.8110   16.3990 C.ar  282  PHE282     -0.0003
    115  CZ        18.3890    2.8640   17.3580 C.ar  282  PHE282     -0.0000
    116  N         22.3770   -0.0880   25.0840 N.3   342  CYS342     -0.1235
    117  CA        21.0710    0.2310   25.6710 C.3   342  CYS342      0.1677
    118  C         21.0900    0.5540   27.1680 C.2   342  CYS342      0.2270
    119  O         21.3050   -0.3310   27.9950 O.2   342  CYS342     -0.2867
    120  CB        20.1280   -0.9320   25.4550 C.3   342  CYS342      0.0956
    121  SG        18.4960   -0.6330   26.1020 S.3   342  CYS342     -0.0801
@<TRIPOS>BOND
     1    55    54    2
     2    54    53    1
     3    53    52    1
     4    53    56    1
     5   108   107    2
     6   107   106    1
     7    56    57    1
     8    44    43    2
     9   105   106    1
    10    43    42    1
    11   106   109    1
    12    57    59   ar
    13    57    58   ar
    14    59    61   ar
    15   109   110    1
    16    42    45    1
    17    42    41    1
    18    37    36    2
    19    58    60   ar
    20     1     2    1
    21    45    46    1
    22    36    41   am
    23    36    35    1
    24   112   110   ar
    25   112   114   ar
    26   100   101    2
    27   100    99    1
    28   110   111   ar
    29    61    62   ar
    30    34    35    1
    31    60    62   ar
    32    35    38    1
    33   114   115   ar
    34     2     3    1
    35     2     5    1
    36     4     3    2
    37   111   113   ar
    38    99    98    1
    39    99   102    1
    40    46    48   ar
    41    46    47   ar
    42    48    50   ar
    43   103   102    1
    44   115   113   ar
    45     5     6    1
    46     6     7    1
    47    38    39    1
    48    38    40    1
    49   102   104    1
    50    47    49   ar
    51    50    51   ar
    52     7     8    1
    53     8     9    2
    54    49    51   ar
    55    33    31    1
    56     9    11    1
    57     9    10    1
    58    31    32    1
    59    31    30    1
    60    29    28    2
    61    28    27    1
    62    12    13    1
    63    30    27    1
    64    73    71    1
    65    72    71    1
    66    27    26    1
    67    16    13    1
    68    16    17    1
    69    97    95    1
    70    71    70    2
    71    15    14    2
    72    83    82    2
    73    13    14    1
    74    92    91    1
    75    92    95    1
    76    92    93    1
    77    94    93    2
    78    84    85    1
    79    84    81    1
    80    95    96    1
    81    70    69    1
    82    82    81    1
    83    82    86   am
    84    26    20   am
    85    81    80    1
    86    69    68    1
    87    21    20    2
    88    87    86    1
    89    87    90    1
    90    87    88    1
    91    20    19    1
    92    68    67    1
    93    89    88    2
    94    18    19    1
    95    19    22    1
    96    66    65    2
    97   116   117    1
    98    67    64    1
    99    77    76    2
   100    79    78    1
   101   120   117    1
   102   120   121    1
   103   117   118    1
   104    75    74    1
   105    75    76    1
   106    75    78    1
   107    24    22    1
   108    65    74   am
   109    65    64    1
   110    22    23    1
   111    64    63    1
   112    23    25    1
   113   118   119    2
