@<TRIPOS>MOLECULE
tmp/5yqbA00.pdb
 159 152 0 0 0
SMALL
GASTEIGER

@<TRIPOS>ATOM
      1  N         42.8540  -23.8150  -40.4750 N.3   102  LEU102     -0.1245
      2  CA        43.6890  -24.6310  -39.5820 C.3   102  LEU102      0.1561
      3  C         44.2910  -25.8390  -40.2790 C.2   102  LEU102      0.2260
      4  O         44.3540  -26.9250  -39.6770 O.2   102  LEU102     -0.2867
      5  CB        43.0450  -24.9520  -38.2030 C.3   102  LEU102      0.0270
      6  CG        42.2230  -23.8380  -37.5720 C.3   102  LEU102      0.0019
      7  CD1       41.6640  -24.2500  -36.2140 C.3   102  LEU102      0.0001
      8  CD2       42.9580  -22.5760  -37.4190 C.3   102  LEU102      0.0001
      9  N         49.2410  -28.4920  -39.2160 N.3   115  GLN115     -0.1245
     10  CA        48.4790  -29.7480  -39.3880 C.3   115  GLN115      0.1566
     11  C         48.6170  -30.1560  -40.8290 C.2   115  GLN115      0.2260
     12  O         48.1500  -29.4040  -41.7140 O.2   115  GLN115     -0.2867
     13  CB        47.0060  -29.5810  -38.9920 C.3   115  GLN115      0.0367
     14  CG        46.2080  -30.8490  -39.2360 C.3   115  GLN115      0.0905
     15  CD        46.7480  -32.0680  -38.6110 C.2   115  GLN115      0.2608
     16  OE1       47.2580  -32.0500  -37.5080 O.2   115  GLN115     -0.2717
     17  NE2       46.6520  -33.1850  -39.2950 N.am  115  GLN115     -0.0878
     18  N         48.0790  -33.7100  -42.0780 N.3   117  GLU117     -0.1231
     19  CA        47.2030  -34.8030  -42.5370 C.3   117  GLU117      0.1699
     20  C         45.8680  -34.2030  -42.8630 C.2   117  GLU117      0.2592
     21  O         45.2980  -33.4080  -42.0920 O.2   117  GLU117     -0.2718
     22  CB        47.0680  -35.9290  -41.4780 C.3   117  GLU117      0.0402
     23  CG        46.4140  -37.1450  -42.0720 C.3   117  GLU117      0.1161
     24  CD        46.2790  -38.3080  -41.1370 C.2   117  GLU117      0.3649
     25  OE1       46.6590  -38.1850  -39.9420 O.co2 117  GLU117     -0.2457
     26  OE2       45.7890  -39.3720  -41.5700 O.co2 117  GLU117     -0.2457
     27  N         45.1620  -34.6240  -43.9870 N.am  118  ALA118     -0.1980
     28  CA        45.7330  -35.4700  -45.0350 C.3   118  ALA118      0.1597
     29  C         46.6230  -34.7760  -46.0510 C.2   118  ALA118      0.2287
     30  O         47.6880  -35.3280  -46.3770 O.2   118  ALA118     -0.2864
     31  CB        44.5610  -36.1770  -45.7500 C.3   118  ALA118      0.0319
     32  N         42.4840  -26.4610  -32.8930 N.3   254  PHE254     -0.1227
     33  CA        42.8310  -27.7160  -33.5760 C.3   254  PHE254      0.1736
     34  C         41.5250  -28.3390  -34.0320 C.2   254  PHE254      0.2595
     35  O         40.5890  -28.4690  -33.2170 O.2   254  PHE254     -0.2718
     36  CB        43.6120  -28.6230  -32.6220 C.3   254  PHE254      0.0547
     37  CG        44.3530  -29.7590  -33.3280 C.ar  254  PHE254     -0.0202
     38  CD1       45.5140  -29.4470  -34.0130 C.ar  254  PHE254     -0.0042
     39  CD2       43.8120  -31.0480  -33.3380 C.ar  254  PHE254     -0.0042
     40  CE1       46.2010  -30.5250  -34.6270 C.ar  254  PHE254     -0.0003
     41  CE2       44.4630  -32.0710  -33.9400 C.ar  254  PHE254     -0.0003
     42  CZ        45.6410  -31.7960  -34.6260 C.ar  254  PHE254     -0.0000
     43  N         41.4200  -28.7520  -35.2930 N.am  255  ASN255     -0.1960
     44  CA        40.1170  -29.2930  -35.8120 C.3   255  ASN255      0.1819
     45  C         39.8120  -30.6540  -35.2910 C.2   255  ASN255      0.2621
     46  O         38.6070  -30.9560  -35.1710 O.2   255  ASN255     -0.2715
     47  CB        40.1190  -29.2380  -37.3090 C.3   255  ASN255      0.1195
     48  CG        40.0460  -27.8190  -37.8670 C.2   255  ASN255      0.2630
     49  OD1       39.6130  -26.9100  -37.1740 O.2   255  ASN255     -0.2716
     50  ND2       40.4460  -27.6380  -39.1190 N.am  255  ASN255     -0.0877
     51  N         40.7720  -31.5030  -35.0910 N.am  256  MET256     -0.1977
     52  CA        40.5350  -32.8760  -34.6650 C.3   256  MET256      0.1605
     53  C         40.9820  -33.0980  -33.2550 C.2   256  MET256      0.2287
     54  O         40.8070  -32.1780  -32.4280 O.2   256  MET256     -0.2864
     55  CB        41.1930  -33.7750  -35.6730 C.3   256  MET256      0.0413
     56  CG        40.6370  -33.6270  -37.0670 C.3   256  MET256      0.0598
     57  SD        39.1400  -34.6010  -37.1460 S.3   256  MET256     -0.1393
     58  CE        39.8880  -36.2610  -37.3850 C.3   256  MET256      0.0692
     59  N         43.9500  -35.1820  -32.1010 N.3   258  ALA258     -0.1231
     60  CA        45.4020  -35.1260  -31.9520 C.3   258  ALA258      0.1694
     61  C         46.0020  -35.7270  -33.1980 C.2   258  ALA258      0.2592
     62  O         45.3180  -36.3810  -34.0120 O.2   258  ALA258     -0.2718
     63  CB        45.8530  -35.8800  -30.6990 C.3   258  ALA258      0.0304
     64  N         47.3460  -35.6180  -33.3500 N.am  259  MET259     -0.1965
     65  CA        48.0250  -35.9450  -34.5790 C.3   259  MET259      0.1736
     66  C         49.3480  -36.6030  -34.3140 C.2   259  MET259      0.2616
     67  O         50.1640  -36.0420  -33.5630 O.2   259  MET259     -0.2715
     68  CB        48.1430  -34.7530  -35.4760 C.3   259  MET259      0.0427
     69  CG        48.8800  -35.0240  -36.7640 C.3   259  MET259      0.0599
     70  SD        47.9560  -36.1800  -37.8400 S.3   259  MET259     -0.1393
     71  CE        49.3200  -36.9850  -38.6420 C.3   259  MET259      0.0692
     72  N         49.6260  -37.7360  -34.9320 N.am  260  GLU260     -0.1977
     73  CA        50.7680  -38.6060  -34.6560 C.3   260  GLU260      0.1602
     74  C         52.1370  -38.2000  -35.3510 C.2   260  GLU260      0.2287
     75  O         52.9090  -39.0680  -35.6650 O.2   260  GLU260     -0.2864
     76  CB        50.4530  -40.0190  -35.0150 C.3   260  GLU260      0.0415
     77  CG        50.2740  -40.3360  -36.5040 C.3   260  GLU260      0.1163
     78  CD        48.8900  -40.2160  -37.0610 C.2   260  GLU260      0.3649
     79  OE1       48.0260  -39.4830  -36.5340 O.co2 260  GLU260     -0.2457
     80  OE2       48.6290  -40.8250  -38.1380 O.co2 260  GLU260     -0.2457
     81  N         46.5670  -43.6890  -28.4510 N.3   293  HIS293     -0.1226
     82  CA        46.3240  -43.8040  -29.8820 C.3   293  HIS293      0.1752
     83  C         47.4920  -43.1660  -30.7100 C.2   293  HIS293      0.2595
     84  O         48.0110  -43.8000  -31.6170 O.2   293  HIS293     -0.2718
     85  CB        44.9960  -43.0860  -30.1820 C.3   293  HIS293      0.0759
     86  CG        44.5480  -43.1810  -31.6290 C.ar  293  HIS293      0.0818
     87  ND1       43.6850  -44.1540  -32.0730 N.ar  293  HIS293     -0.2268
     88  CD2       44.8780  -42.4310  -32.7210 C.ar  293  HIS293      0.1154
     89  CE1       43.4870  -43.9820  -33.3700 C.ar  293  HIS293      0.1986
     90  NE2       44.2370  -42.9970  -33.7900 N.ar  293  HIS293     -0.2212
     91  N         47.8380  -41.9170  -30.3470 N.am  294  GLU294     -0.1979
     92  CA        48.8810  -41.2690  -31.1490 C.3   294  GLU294      0.1602
     93  C         50.1980  -42.0040  -30.9800 C.2   294  GLU294      0.2287
     94  O         50.9640  -42.1310  -31.9310 O.2   294  GLU294     -0.2864
     95  CB        49.0120  -39.8090  -30.8730 C.3   294  GLU294      0.0415
     96  CG        47.6730  -39.0250  -30.9240 C.3   294  GLU294      0.1163
     97  CD        46.8710  -39.1930  -32.1640 C.2   294  GLU294      0.3649
     98  OE1       47.3770  -39.5790  -33.2060 O.co2 294  GLU294     -0.2457
     99  OE2       45.6230  -38.9270  -32.1660 O.co2 294  GLU294     -0.2457
    100  N         50.3340  -45.1210  -33.1290 N.3   297  HIS297     -0.1241
    101  CA        50.6290  -44.8200  -34.5430 C.3   297  HIS297      0.1621
    102  C         52.1180  -44.8450  -34.8620 C.2   297  HIS297      0.2264
    103  O         52.4710  -44.9890  -36.0300 O.2   297  HIS297     -0.2867
    104  CB        50.1090  -43.4360  -34.9570 C.3   297  HIS297      0.0745
    105  CG        48.6810  -43.4050  -35.4650 C.ar  297  HIS297      0.0817
    106  ND1       48.2440  -44.2370  -36.4700 N.ar  297  HIS297     -0.2268
    107  CD2       47.6620  -42.6300  -35.0870 C.ar  297  HIS297      0.1154
    108  CE1       46.9420  -43.9270  -36.7200 C.ar  297  HIS297      0.1986
    109  NE2       46.5990  -42.9560  -35.9000 N.ar  297  HIS297     -0.2212
    110  N         44.1740  -46.5310  -39.3040 N.3   316  GLU316     -0.1245
    111  CA        43.2000  -46.0650  -38.3020 C.3   316  GLU316      0.1567
    112  C         42.4050  -47.2170  -37.6530 C.2   316  GLU316      0.2260
    113  O         42.2540  -47.1770  -36.4100 O.2   316  GLU316     -0.2867
    114  CB        42.2790  -45.0150  -38.8150 C.3   316  GLU316      0.0388
    115  CG        42.9390  -43.7340  -39.2670 C.3   316  GLU316      0.1160
    116  CD        43.7840  -43.0960  -38.2350 C.2   316  GLU316      0.3649
    117  OE1       43.5540  -43.3520  -37.0240 O.co2 316  GLU316     -0.2457
    118  OE2       44.6800  -42.3020  -38.5500 O.co2 316  GLU316     -0.2457
    119  N         39.5020  -35.1850  -46.3570 N.3   369  ASN369     -0.1240
    120  CA        39.2570  -34.9210  -44.9380 C.3   369  ASN369      0.1653
    121  C         37.8660  -35.2950  -44.5160 C.2   369  ASN369      0.2266
    122  O         37.5790  -35.4540  -43.3170 O.2   369  ASN369     -0.2867
    123  CB        39.5900  -33.4540  -44.6250 C.3   369  ASN369      0.1155
    124  CG        41.1620  -33.2490  -44.7020 C.2   369  ASN369      0.2627
    125  OD1       41.9980  -33.9640  -44.1530 O.2   369  ASN369     -0.2716
    126  ND2       41.5600  -32.3950  -45.5660 N.am  369  ASN369     -0.0877
    127  N         37.5990  -39.2100  -42.5600 N.3   372  TYR372     -0.1241
    128  CA        38.0460  -39.5100  -41.1600 C.3   372  TYR372      0.1605
    129  C         36.8090  -39.7710  -40.3460 C.2   372  TYR372      0.2264
    130  O         36.2920  -38.8350  -39.6960 O.2   372  TYR372     -0.2867
    131  CB        38.9450  -38.3970  -40.6440 C.3   372  TYR372      0.0534
    132  CG        40.2740  -38.3790  -41.3360 C.ar  372  TYR372     -0.0201
    133  CD1       40.4560  -37.8680  -42.6200 C.ar  372  TYR372     -0.0009
    134  CD2       41.3740  -38.8980  -40.7450 C.ar  372  TYR372     -0.0009
    135  CE1       41.6330  -38.0490  -43.2920 C.ar  372  TYR372      0.0417
    136  CE2       42.6080  -39.0100  -41.3910 C.ar  372  TYR372      0.0417
    137  CZ        42.7390  -38.5680  -42.6600 C.ar  372  TYR372      0.1957
    138  OH        43.9050  -38.7510  -43.3550 O.3   372  TYR372     -0.2866
    139  N         37.3750  -45.5300  -38.7850 N.3   377  TYR377     -0.1241
    140  CA        37.9080  -45.6920  -37.4190 C.3   377  TYR377      0.1605
    141  C         37.3000  -46.8470  -36.6810 C.2   377  TYR377      0.2264
    142  O         37.9930  -47.8040  -36.3330 O.2   377  TYR377     -0.2867
    143  CB        37.8680  -44.4210  -36.6410 C.3   377  TYR377      0.0534
    144  CG        38.8780  -43.3460  -36.9640 C.ar  377  TYR377     -0.0201
    145  CD1       38.9420  -42.7270  -38.1740 C.ar  377  TYR377     -0.0009
    146  CD2       39.8690  -43.0410  -36.0270 C.ar  377  TYR377     -0.0009
    147  CE1       39.9460  -41.7840  -38.4550 C.ar  377  TYR377      0.0417
    148  CE2       40.7950  -42.1200  -36.3060 C.ar  377  TYR377      0.0417
    149  CZ        40.8650  -41.5110  -37.4870 C.ar  377  TYR377      0.1957
    150  OH        41.8840  -40.6080  -37.8550 O.3   377  TYR377     -0.2866
    151  N         36.4920  -27.7690  -42.6460 N.3   817  GLN817     -0.1196
    152  CA        36.5410  -29.0540  -41.9990 C.3   817  GLN817      0.1782
    153  C         35.5520  -29.1300  -40.8680 C.2   817  GLN817      0.2306
    154  O         34.8750  -30.1400  -40.6940 O.2   817  GLN817     -0.2863
    155  CB        37.9950  -29.3840  -41.5610 C.2   817  GLN817      0.0051
    156  CG        38.9170  -29.7600  -42.6480 C.2   817  GLN817      0.0584
    157  CD        40.4330  -29.7990  -42.3340 C.2   817  GLN817      0.2840
    158  OE1       40.7980  -29.7440  -41.2000 O.2   817  GLN817     -0.2667
    159  NE2       41.2320  -30.1800  -43.3190 N.am  817  GLN817     -0.0837
@<TRIPOS>BOND
     1    30    29    2
     2   119   120    1
     3    29    28    1
     4    31    28    1
     5   126   124   am
     6    28    27    1
     7   120   123    1
     8   120   121    1
     9   124   123    1
    10   124   125    2
    11   121   122    2
    12    27    20   am
    13   138   137    1
    14   159   157   am
    15   135   137   ar
    16   135   133   ar
    17    20    19    1
    18    20    21    2
    19   137   136   ar
    20   156   157    1
    21   156   155    2
    22   151   152    1
    23   133   132   ar
    24   127   128    1
    25    19    18    1
    26    19    22    1
    27   157   158    2
    28    23    22    1
    29    23    24    1
    30   152   155    1
    31   152   153    1
    32    12    11    2
    33    26    24   ar
    34   136   134   ar
    35   132   134   ar
    36   132   131    1
    37   128   131    1
    38   128   129    1
    39    24    25   ar
    40   153   154    2
    41    11    10    1
    42     1     2    1
    43   129   130    2
    44     3     4    2
    45     3     2    1
    46     2     5    1
    47    10     9    1
    48    10    13    1
    49   110   111    1
    50    17    15   am
    51   115   114    1
    52   115   116    1
    53    14    13    1
    54    14    15    1
    55    50    48   am
    56   114   111    1
    57   139   140    1
    58    71    70    1
    59    15    16    2
    60   118   116   ar
    61   147   145   ar
    62   147   149   ar
    63   111   112    1
    64   116   117   ar
    65     5     6    1
    66   145   144   ar
    67    80    78   ar
    68    48    47    1
    69    48    49    2
    70   150   149    1
    71    70    69    1
    72   112   113    2
    73     6     8    1
    74     6     7    1
    75   149   148   ar
    76   140   141    1
    77   140   143    1
    78    58    57    1
    79    47    44    1
    80    57    56    1
    81    56    55    1
    82    78    79   ar
    83    78    77    1
    84   144   143    1
    85   144   146   ar
    86    69    68    1
    87   108   106   ar
    88   108   109   ar
    89   141   142    2
    90    77    76    1
    91   106   105   ar
    92   148   146   ar
    93   103   102    2
    94   109   107   ar
    95    44    43    1
    96    44    45    1
    97    55    52    1
    98    75    74    2
    99    68    65    1
   100   105   107   ar
   101   105   104    1
   102    74    73    1
   103    43    34   am
   104    45    46    2
   105    45    51   am
   106    51    52    1
   107    76    73    1
   108   104   101    1
   109    72    73    1
   110    72    66   am
   111   102   101    1
   112    52    53    1
   113    40    42   ar
   114    40    38   ar
   115    42    41   ar
   116    65    66    1
   117    65    64    1
   118   101   100    1
   119    66    67    2
   120    34    33    1
   121    34    35    2
   122    38    37   ar
   123    62    61    2
   124    41    39   ar
   125    90    89   ar
   126    90    88   ar
   127    33    32    1
   128    33    36    1
   129    89    87   ar
   130    64    61   am
   131    39    37   ar
   132    37    36    1
   133    53    54    2
   134    98    97   ar
   135    61    60    1
   136    88    86   ar
   137    99    97   ar
   138    97    96    1
   139    59    60    1
   140    87    86   ar
   141    60    63    1
   142    94    93    2
   143    86    85    1
   144    84    83    2
   145    92    93    1
   146    92    95    1
   147    92    91    1
   148    96    95    1
   149    83    91   am
   150    83    82    1
   151    85    82    1
   152    82    81    1
