@<TRIPOS>MOLECULE
tmp/5yqbA01.pdb
 128 123 0 0 0
SMALL
GASTEIGER

@<TRIPOS>ATOM
      1  N         40.7720  -31.5030  -35.0910 N.3   256  MET256     -0.1230
      2  CA        40.5350  -32.8760  -34.6650 C.3   256  MET256      0.1702
      3  C         40.9820  -33.0980  -33.2550 C.2   256  MET256      0.2593
      4  O         40.8070  -32.1780  -32.4280 O.2   256  MET256     -0.2718
      5  CB        41.1930  -33.7750  -35.6730 C.3   256  MET256      0.0401
      6  CG        40.6370  -33.6270  -37.0670 C.3   256  MET256      0.0596
      7  SD        39.1400  -34.6010  -37.1460 S.3   256  MET256     -0.1393
      8  CE        39.8880  -36.2610  -37.3850 C.3   256  MET256      0.0692
      9  N         41.3460  -34.3010  -32.9100 N.am  257  GLY257     -0.1942
     10  CA        41.6890  -34.6580  -31.5590 C.3   257  GLY257      0.2014
     11  C         43.1750  -34.5190  -31.2900 C.2   257  GLY257      0.2638
     12  O         43.5750  -33.8050  -30.3520 O.2   257  GLY257     -0.2714
     13  N         43.9500  -35.1820  -32.1010 N.am  258  ALA258     -0.1977
     14  CA        45.4020  -35.1260  -31.9520 C.3   258  ALA258      0.1597
     15  C         46.0020  -35.7270  -33.1980 C.2   258  ALA258      0.2287
     16  O         45.3180  -36.3810  -34.0120 O.2   258  ALA258     -0.2864
     17  CB        45.8530  -35.8800  -30.6990 C.3   258  ALA258      0.0319
     18  N         43.2200  -42.5790  -23.6910 N.3   289  ARG289     -0.1231
     19  CA        43.0470  -43.2400  -24.9580 C.3   289  ARG289      0.1694
     20  C         43.6530  -42.4900  -26.1730 C.2   289  ARG289      0.2591
     21  O         44.1770  -43.1630  -27.0300 O.2   289  ARG289     -0.2718
     22  CB        41.5250  -43.4600  -25.1400 C.3   289  ARG289      0.0321
     23  CG        40.7990  -42.8430  -26.1520 C.3   289  ARG289      0.0489
     24  CD        39.2880  -43.4410  -26.2990 C.3   289  ARG289      0.2205
     25  NE        38.5430  -43.1480  -25.0260 N.pl3 289  ARG289     -0.0865
     26  CZ        38.2540  -43.9930  -23.9820 C.cat 289  ARG289      0.5346
     27  NH1       38.6370  -45.2710  -23.9580 N.pl3 289  ARG289      0.1354
     28  NH2       37.6950  -43.5670  -22.9000 N.pl3 289  ARG289      0.1354
     29  N         43.5870  -41.1720  -26.1660 N.am  290  VAL290     -0.1980
     30  CA        44.1420  -40.3710  -27.2550 C.3   290  VAL290      0.1595
     31  C         45.6420  -40.3050  -27.2250 C.2   290  VAL290      0.2287
     32  O         46.3160  -40.4690  -28.2460 O.2   290  VAL290     -0.2864
     33  CB        43.4790  -39.0240  -27.3920 C.3   290  VAL290      0.0276
     34  CG1       44.1140  -38.1170  -28.4460 C.3   290  VAL290      0.0022
     35  CG2       41.9450  -39.1540  -27.6460 C.3   290  VAL290      0.0022
     36  N         46.5670  -43.6890  -28.4510 N.3   293  HIS293     -0.1226
     37  CA        46.3240  -43.8040  -29.8820 C.3   293  HIS293      0.1752
     38  C         47.4920  -43.1660  -30.7100 C.2   293  HIS293      0.2595
     39  O         48.0110  -43.8000  -31.6170 O.2   293  HIS293     -0.2718
     40  CB        44.9960  -43.0860  -30.1820 C.3   293  HIS293      0.0759
     41  CG        44.5480  -43.1810  -31.6290 C.ar  293  HIS293      0.0818
     42  ND1       43.6850  -44.1540  -32.0730 N.ar  293  HIS293     -0.2268
     43  CD2       44.8780  -42.4310  -32.7210 C.ar  293  HIS293      0.1154
     44  CE1       43.4870  -43.9820  -33.3700 C.ar  293  HIS293      0.1986
     45  NE2       44.2370  -42.9970  -33.7900 N.ar  293  HIS293     -0.2212
     46  N         47.8380  -41.9170  -30.3470 N.am  294  GLU294     -0.1979
     47  CA        48.8810  -41.2690  -31.1490 C.3   294  GLU294      0.1602
     48  C         50.1980  -42.0040  -30.9800 C.2   294  GLU294      0.2287
     49  O         50.9640  -42.1310  -31.9310 O.2   294  GLU294     -0.2864
     50  CB        49.0120  -39.8090  -30.8730 C.3   294  GLU294      0.0415
     51  CG        47.6730  -39.0250  -30.9240 C.3   294  GLU294      0.1163
     52  CD        46.8710  -39.1930  -32.1640 C.2   294  GLU294      0.3649
     53  OE1       47.3770  -39.5790  -33.2060 O.co2 294  GLU294     -0.2457
     54  OE2       45.6230  -38.9270  -32.1660 O.co2 294  GLU294     -0.2457
     55  N         42.9930  -47.7340  -33.7140 N.3   320  VAL320     -0.1245
     56  CA        41.8760  -47.7310  -32.8000 C.3   320  VAL320      0.1561
     57  C         41.7660  -49.0800  -32.0930 C.2   320  VAL320      0.2260
     58  O         41.5240  -49.0560  -30.8570 O.2   320  VAL320     -0.2867
     59  CB        40.5580  -47.4150  -33.5730 C.3   320  VAL320      0.0252
     60  CG1       39.3200  -47.6990  -32.6450 C.3   320  VAL320      0.0019
     61  CG2       40.5440  -46.0270  -34.0970 C.3   320  VAL320      0.0019
     62  N         44.2760  -48.8210  -29.3660 N.3   323  ASP323     -0.1239
     63  CA        43.8480  -47.9370  -28.2730 C.3   323  ASP323      0.1674
     64  C         42.7590  -48.6060  -27.4340 C.2   323  ASP323      0.2266
     65  O         42.7960  -48.4490  -26.2020 O.2   323  ASP323     -0.2867
     66  CB        43.6090  -46.5070  -28.6810 C.3   323  ASP323      0.1410
     67  CG        42.2580  -46.1720  -29.1990 C.2   323  ASP323      0.3668
     68  OD1       41.2120  -46.4600  -28.5570 O.co2 323  ASP323     -0.2456
     69  OD2       42.1390  -45.4860  -30.2800 O.co2 323  ASP323     -0.2456
     70  N         37.5990  -39.2100  -42.5600 N.3   372  TYR372     -0.1227
     71  CA        38.0460  -39.5100  -41.1600 C.3   372  TYR372      0.1736
     72  C         36.8090  -39.7710  -40.3460 C.2   372  TYR372      0.2596
     73  O         36.2920  -38.8350  -39.6960 O.2   372  TYR372     -0.2718
     74  CB        38.9450  -38.3970  -40.6440 C.3   372  TYR372      0.0548
     75  CG        40.2740  -38.3790  -41.3360 C.ar  372  TYR372     -0.0200
     76  CD1       40.4560  -37.8680  -42.6200 C.ar  372  TYR372     -0.0009
     77  CD2       41.3740  -38.8980  -40.7450 C.ar  372  TYR372     -0.0009
     78  CE1       41.6330  -38.0490  -43.2920 C.ar  372  TYR372      0.0417
     79  CE2       42.6080  -39.0100  -41.3910 C.ar  372  TYR372      0.0417
     80  CZ        42.7390  -38.5680  -42.6600 C.ar  372  TYR372      0.1957
     81  OH        43.9050  -38.7510  -43.3550 O.3   372  TYR372     -0.2866
     82  N         36.2880  -40.9780  -40.4950 N.am  373  THR373     -0.1939
     83  CA        34.9030  -41.2520  -40.1140 C.3   373  THR373      0.2028
     84  C         34.8010  -42.3580  -39.0640 C.2   373  THR373      0.2642
     85  O         35.6700  -43.2120  -38.8510 O.2   373  THR373     -0.2714
     86  CB        34.1260  -41.7150  -41.3500 C.3   373  THR373      0.1808
     87  OG1       34.7650  -42.8680  -41.9310 O.3   373  THR373     -0.2208
     88  CG2       33.9850  -40.6040  -42.3140 C.3   373  THR373      0.0379
     89  N         33.5860  -42.3950  -38.4770 N.am  374  LEU374     -0.1977
     90  CA        33.2080  -43.4980  -37.6500 C.3   374  LEU374      0.1596
     91  C         33.4280  -44.8190  -38.3450 C.2   374  LEU374      0.2287
     92  O         33.7960  -45.8450  -37.7380 O.2   374  LEU374     -0.2864
     93  CB        31.7100  -43.4120  -37.2570 C.3   374  LEU374      0.0297
     94  CG        31.3430  -42.2710  -36.3190 C.3   374  LEU374      0.0022
     95  CD1       29.9440  -41.8280  -36.5430 C.3   374  LEU374      0.0001
     96  CD2       31.5190  -42.6930  -34.9060 C.3   374  LEU374      0.0001
     97  N         37.3750  -45.5300  -38.7850 N.3   377  TYR377     -0.1227
     98  CA        37.9080  -45.6920  -37.4190 C.3   377  TYR377      0.1736
     99  C         37.3000  -46.8470  -36.6810 C.2   377  TYR377      0.2595
    100  O         37.9930  -47.8040  -36.3330 O.2   377  TYR377     -0.2718
    101  CB        37.8680  -44.4210  -36.6410 C.3   377  TYR377      0.0548
    102  CG        38.8780  -43.3460  -36.9640 C.ar  377  TYR377     -0.0200
    103  CD1       38.9420  -42.7270  -38.1740 C.ar  377  TYR377     -0.0009
    104  CD2       39.8690  -43.0410  -36.0270 C.ar  377  TYR377     -0.0009
    105  CE1       39.9460  -41.7840  -38.4550 C.ar  377  TYR377      0.0417
    106  CE2       40.7950  -42.1200  -36.3060 C.ar  377  TYR377      0.0417
    107  CZ        40.8650  -41.5110  -37.4870 C.ar  377  TYR377      0.1957
    108  OH        41.8840  -40.6080  -37.8550 O.3   377  TYR377     -0.2866
    109  N         36.0300  -46.7000  -36.3380 N.am  378  GLU378     -0.1979
    110  CA        35.4030  -47.6310  -35.4100 C.3   378  GLU378      0.1602
    111  C         34.9540  -48.9050  -36.0490 C.2   378  GLU378      0.2287
    112  O         35.2570  -50.0250  -35.5910 O.2   378  GLU378     -0.2864
    113  CB        34.2250  -46.9840  -34.7390 C.3   378  GLU378      0.0415
    114  CG        34.4910  -45.6810  -34.0560 C.3   378  GLU378      0.1163
    115  CD        35.1730  -45.7270  -32.8670 C.2   378  GLU378      0.3649
    116  OE1       34.8990  -44.6890  -32.1820 O.co2 378  GLU378     -0.2457
    117  OE2       35.8480  -46.7230  -32.5420 O.co2 378  GLU378     -0.2457
    118  N         31.8140  -31.4470  -40.5020 N.3   821  ARG821     -0.1245
    119  CA        31.3040  -32.2350  -39.4100 C.3   821  ARG821      0.1563
    120  C         29.9050  -31.7670  -38.9660 C.2   821  ARG821      0.2260
    121  O         29.0330  -32.5790  -38.6010 O.2   821  ARG821     -0.2867
    122  CB        32.2690  -32.1230  -38.2170 C.3   821  ARG821      0.0307
    123  CG        33.6060  -32.7350  -38.6300 C.3   821  ARG821      0.0489
    124  CD        34.6280  -33.1800  -37.6020 C.3   821  ARG821      0.2205
    125  NE        34.6770  -34.6120  -37.7890 N.pl3 821  ARG821     -0.0865
    126  CZ        35.1870  -35.2950  -38.8230 C.cat 821  ARG821      0.5346
    127  NH1       35.8140  -34.7580  -39.8840 N.pl3 821  ARG821      0.1354
    128  NH2       34.9440  -36.5870  -38.8060 N.pl3 821  ARG821      0.1354
@<TRIPOS>BOND
     1    81    80    1
     2    78    80   ar
     3    78    76   ar
     4    80    79   ar
     5    76    75   ar
     6    70    71    1
     7    88    86    1
     8    87    86    1
     9    79    77   ar
    10    86    83    1
    11    75    77   ar
    12    75    74    1
    13    71    74    1
    14    71    72    1
    15   118   119    1
    16    82    72   am
    17    82    83    1
    18    72    73    2
    19    83    84    1
    20   127   126    1
    21   119   120    1
    22   119   122    1
    23    84    85    2
    24    84    89   am
    25   120   121    2
    26   126   128    1
    27   126   125    2
    28    97    98    1
    29   123   122    1
    30   123   124    1
    31    89    90    1
    32   105   103   ar
    33   105   107   ar
    34    91    92    2
    35    91    90    1
    36   103   102   ar
    37   108   107    1
    38   125   124    1
    39    90    93    1
    40   107   106   ar
    41    98    99    1
    42    98   101    1
    43     8     7    1
    44    93    94    1
    45     7     6    1
    46     6     5    1
    47   102   101    1
    48   102   104   ar
    49    99   109   am
    50    99   100    2
    51    95    94    1
    52   109   110    1
    53    94    96    1
    54   106   104   ar
    55   111   112    2
    56   111   110    1
    57     5     2    1
    58   110   113    1
    59     1     2    1
    60   113   114    1
    61     2     3    1
    62    61    59    1
    63   114   115    1
    64    16    15    2
    65    45    44   ar
    66    45    43   ar
    67    55    56    1
    68    59    56    1
    69    59    60    1
    70    44    42   ar
    71     3     9   am
    72     3     4    2
    73    53    52   ar
    74    15    14    1
    75     9    10    1
    76   115   117   ar
    77   115   116   ar
    78    56    57    1
    79    43    41   ar
    80    54    52   ar
    81    52    51    1
    82    13    14    1
    83    13    11   am
    84    57    58    2
    85    42    41   ar
    86    14    17    1
    87    49    48    2
    88    41    40    1
    89    39    38    2
    90    10    11    1
    91    11    12    2
    92    47    48    1
    93    47    50    1
    94    47    46    1
    95    51    50    1
    96    38    46   am
    97    38    37    1
    98    69    67   ar
    99    40    37    1
   100    37    36    1
   101    62    63    1
   102    67    66    1
   103    67    68   ar
   104    66    63    1
   105    34    33    1
   106    63    64    1
   107    32    31    2
   108    35    33    1
   109    64    65    2
   110    33    30    1
   111    30    31    1
   112    30    29    1
   113    21    20    2
   114    24    23    1
   115    24    25    1
   116    20    29   am
   117    20    19    1
   118    23    22    1
   119    22    19    1
   120    25    26    2
   121    19    18    1
   122    26    27    1
   123    26    28    1
