@<TRIPOS>MOLECULE
tmp/5yqhB03.pdb
 78 71 0 0 0
SMALL
GASTEIGER

@<TRIPOS>ATOM
      1  N         10.7040   11.4590    3.4310 N.3   137  GLU137     -0.1245
      2  CA         9.3250   11.0330    3.6860 C.3   137  GLU137      0.1567
      3  C          9.1440    9.5610    3.3200 C.2   137  GLU137      0.2260
      4  O          8.6680    8.7690    4.1340 O.2   137  GLU137     -0.2867
      5  CB         8.2970   11.9360    2.9620 C.3   137  GLU137      0.0388
      6  CG         8.2800   13.3810    3.4980 C.3   137  GLU137      0.1160
      7  CD         7.2680   14.3180    2.8110 C.2   137  GLU137      0.3649
      8  OE1        6.6670   13.9450    1.7860 O.co2 137  GLU137     -0.2457
      9  OE2        7.0820   15.4440    3.3120 O.co2 137  GLU137     -0.2457
     10  N          1.2950   12.1890    8.0920 N.3   159  LEU159     -0.1231
     11  CA         2.0940   13.4070    8.0320 C.3   159  LEU159      0.1678
     12  C          1.2810   14.6360    8.4550 C.2   159  LEU159      0.2434
     13  O          1.6700   15.3470    9.3870 O.2   159  LEU159     -0.2733
     14  CB         2.6960   13.6030    6.6320 C.3   159  LEU159      0.0284
     15  CG         3.7440   12.5670    6.2160 C.3   159  LEU159      0.0019
     16  CD1        4.0760   12.6520    4.7260 C.3   159  LEU159      0.0001
     17  CD2        4.9990   12.6980    7.0690 C.3   159  LEU159      0.0001
     18  N          0.1460   14.8920    7.7830 N.am  160  PRO160     -0.2729
     19  CA        -0.5820   16.0970    8.1910 C.3   160  PRO160      0.1401
     20  C         -1.1090   15.9950    9.6130 C.2   160  PRO160      0.2269
     21  O         -1.1780   17.0130   10.2920 O.2   160  PRO160     -0.2865
     22  CB        -1.7150   16.2100    7.1620 C.3   160  PRO160      0.0296
     23  CG        -1.7820   14.8870    6.4960 C.3   160  PRO160      0.0237
     24  CD        -0.4170   14.2840    6.5690 C.3   160  PRO160      0.0939
     25  N          1.6610   17.0770   11.6240 N.3   163  GLY163     -0.1225
     26  CA         1.7570   18.4920   11.3240 C.3   163  GLY163      0.1811
     27  C          0.8340   19.2740   12.2390 C.2   163  GLY163      0.2280
     28  O          1.2580   20.2100   12.9250 O.2   163  GLY163     -0.2866
     29  N          6.8900   12.5590   11.6760 N.3   235  ASP235     -0.1239
     30  CA         7.3370   13.8330   11.1100 C.3   235  ASP235      0.1674
     31  C          8.7020   14.2460   11.6380 C.2   235  ASP235      0.2266
     32  O          9.5370   14.7750   10.9110 O.2   235  ASP235     -0.2867
     33  CB         6.3170   14.9240   11.4160 C.3   235  ASP235      0.1410
     34  CG         5.0630   14.8040   10.5700 C.2   235  ASP235      0.3668
     35  OD1        4.8070   13.6930   10.0470 O.co2 235  ASP235     -0.2456
     36  OD2        4.3350   15.8190   10.4310 O.co2 235  ASP235     -0.2456
     37  N         11.2980   12.0890    9.8210 N.3   238  VAL238     -0.1231
     38  CA        11.3160   12.6480    8.4740 C.3   238  VAL238      0.1692
     39  C         12.1940   13.8990    8.3890 C.2   238  VAL238      0.2592
     40  O         13.0050   14.0420    7.4700 O.2   238  VAL238     -0.2718
     41  CB         9.9120   13.0600    8.0220 C.3   238  VAL238      0.0266
     42  CG1        9.9950   13.9060    6.7590 C.3   238  VAL238      0.0020
     43  CG2        9.0250   11.8400    7.8200 C.3   238  VAL238      0.0020
     44  N         12.0170   14.8250    9.3280 N.am  239  ASN239     -0.1974
     45  CA        12.8040   16.0650    9.3000 C.3   239  ASN239      0.1688
     46  C         14.2670   15.8090    9.6750 C.2   239  ASN239      0.2292
     47  O         15.1790   16.4390    9.1300 O.2   239  ASN239     -0.2864
     48  CB        12.1670   17.1520   10.1830 C.3   239  ASN239      0.1181
     49  CG        10.8200   17.6270    9.6420 C.2   239  ASN239      0.2629
     50  OD1       10.4720   17.3520    8.4930 O.2   239  ASN239     -0.2716
     51  ND2       10.0670   18.3530   10.4590 N.am  239  ASN239     -0.0877
     52  N          9.3040   24.0050    4.8770 N.3   375  ARG375     -0.1245
     53  CA         8.0310   23.6490    5.4760 C.3   375  ARG375      0.1563
     54  C          7.8360   24.4560    6.7260 C.2   375  ARG375      0.2260
     55  O          8.6700   24.4060    7.6220 O.2   375  ARG375     -0.2867
     56  CB         8.0630   22.2040    5.9100 C.3   375  ARG375      0.0307
     57  CG         7.0240   21.3890    5.2580 C.3   375  ARG375      0.0489
     58  CD         5.6760   21.5200    5.9020 C.3   375  ARG375      0.2205
     59  NE         4.6750   20.9650    4.9910 N.pl3 375  ARG375     -0.0865
     60  CZ         4.8400   19.8420    4.2910 C.cat 375  ARG375      0.5346
     61  NH1        5.9600   19.1270    4.4140 N.pl3 375  ARG375      0.1354
     62  NH2        3.8770   19.4290    3.4740 N.pl3 375  ARG375      0.1354
     63  N          5.9700   25.2360   10.2520 N.3   377  ASN377     -0.1240
     64  CA         5.2420   24.5990   11.3440 C.3   377  ASN377      0.1653
     65  C          5.6330   25.3300   12.6220 C.2   377  ASN377      0.2266
     66  O          6.7760   25.7270   12.7670 O.2   377  ASN377     -0.2867
     67  CB         5.6080   23.1080   11.4520 C.3   377  ASN377      0.1155
     68  CG         4.7690   22.3760   12.4990 C.2   377  ASN377      0.2627
     69  OD1        5.1010   22.3670   13.6870 O.2   377  ASN377     -0.2716
     70  ND2        3.6670   21.7860   12.0650 N.am  377  ASN377     -0.0877
     71  N          7.9590   22.3120   14.4280 N.3   380  LEU380     -0.1245
     72  CA         8.8820   21.4760   13.6390 C.3   380  LEU380      0.1561
     73  C          9.6530   22.2910   12.6020 C.2   380  LEU380      0.2260
     74  O          9.0790   23.1110   11.8950 O.2   380  LEU380     -0.2867
     75  CB         8.1430   20.3340   12.9260 C.3   380  LEU380      0.0270
     76  CG         7.4010   19.2400   13.7140 C.3   380  LEU380      0.0019
     77  CD1        6.6600   18.2890   12.7750 C.3   380  LEU380      0.0001
     78  CD2        8.3560   18.4380   14.5980 C.3   380  LEU380      0.0001
@<TRIPOS>BOND
     1     8     7   ar
     2     7     9   ar
     3     7     6    1
     4     5     6    1
     5     5     2    1
     6     3     2    1
     7     3     4    2
     8     1     2    1
     9    62    60    1
    10    60    61    1
    11    60    59    2
    12    16    15    1
    13    52    53    1
    14    59    58    1
    15    57    58    1
    16    57    56    1
    17    53    56    1
    18    53    54    1
    19    15    14    1
    20    15    17    1
    21    23    24    1
    22    23    22    1
    23    24    18    1
    24    14    11    1
    25    54    55    2
    26    42    41    1
    27    22    19    1
    28    40    39    2
    29    18    19    1
    30    18    12   am
    31    43    41    1
    32    41    38    1
    33    11    10    1
    34    11    12    1
    35    19    20    1
    36    39    38    1
    37    39    44   am
    38    12    13    2
    39    38    37    1
    40    50    49    2
    41    47    46    2
    42    45    44    1
    43    45    46    1
    44    45    48    1
    45    20    21    2
    46    49    48    1
    47    49    51   am
    48    35    34   ar
    49    63    64    1
    50    36    34   ar
    51    34    33    1
    52    32    31    2
    53    30    33    1
    54    30    31    1
    55    30    29    1
    56    26    25    1
    57    26    27    1
    58    64    67    1
    59    64    65    1
    60    67    68    1
    61    74    73    2
    62    70    68   am
    63    27    28    2
    64    68    69    2
    65    73    72    1
    66    65    66    2
    67    77    76    1
    68    75    72    1
    69    75    76    1
    70    72    71    1
    71    76    78    1
