@<TRIPOS>MOLECULE
tmp/5yqhB01.pdb
 117 112 0 0 0
SMALL
GASTEIGER

@<TRIPOS>ATOM
      1  N         -7.2600   19.0290   22.4480 N.3    76  ARG76      -0.1245
      2  CA        -7.6390   17.6080   22.4730 C.3    76  ARG76       0.1563
      3  C         -7.2980   17.0560   23.8600 C.2    76  ARG76       0.2260
      4  O         -6.6610   17.7490   24.6580 O.2    76  ARG76      -0.2867
      5  CB        -6.9260   16.7940   21.3780 C.3    76  ARG76       0.0307
      6  CG        -5.4130   16.6910   21.5540 C.3    76  ARG76       0.0489
      7  CD        -4.7260   15.6740   20.6200 C.3    76  ARG76       0.2205
      8  NE        -3.3040   15.5700   20.9610 N.pl3  76  ARG76      -0.0865
      9  CZ        -2.4390   14.7070   20.4330 C.cat  76  ARG76       0.5346
     10  NH1       -2.8230   13.8290   19.5140 N.pl3  76  ARG76       0.1354
     11  NH2       -1.1740   14.7150   20.8350 N.pl3  76  ARG76       0.1354
     12  N         -1.8020   14.4890   26.2470 N.3    79  SER79      -0.1202
     13  CA        -0.9960   13.2740   26.1660 C.3    79  SER79       0.2020
     14  C         -0.8310   12.6690   27.5650 C.2    79  SER79       0.2619
     15  O         -0.4880   13.3700   28.5210 O.2    79  SER79      -0.2717
     16  CB         0.3680   13.5870   25.5430 C.3    79  SER79       0.2103
     17  OG         1.1420   12.4170   25.3150 O.3    79  SER79      -0.2182
     18  N         -1.1000   11.3720   27.6850 N.am   80  LEU80      -0.1965
     19  CA        -0.8570   10.6480   28.9270 C.3    80  LEU80       0.1728
     20  C          0.6140   10.6980   29.3170 C.2    80  LEU80       0.2616
     21  O          0.9570   10.6150   30.4950 O.2    80  LEU80      -0.2715
     22  CB        -1.2490    9.1760   28.7740 C.3    80  LEU80       0.0311
     23  CG        -2.7350    8.8580   28.7090 C.3    80  LEU80       0.0022
     24  CD1       -2.9340    7.3520   28.7590 C.3    80  LEU80       0.0001
     25  CD2       -3.4680    9.5590   29.8410 C.3    80  LEU80       0.0001
     26  N          1.4860   10.7990   28.3210 N.am   81  ILE81      -0.1963
     27  CA         2.9130   10.7910   28.5840 C.3    81  ILE81       0.1727
     28  C          3.5900   12.1670   28.4660 C.2    81  ILE81       0.2616
     29  O          4.2840   12.5670   29.3840 O.2    81  ILE81      -0.2715
     30  CB         3.6280    9.7470   27.7260 C.3    81  ILE81       0.0290
     31  CG1        5.1110    9.6970   28.0830 C.3    81  ILE81       0.0022
     32  CG2        3.3670   10.0020   26.2450 C.3    81  ILE81       0.0023
     33  CD1        5.8860    8.6660   27.2890 C.3    81  ILE81       0.0001
     34  N          3.3730   12.8840   27.3620 N.am   82  LEU82      -0.1977
     35  CA         4.0590   14.1680   27.1150 C.3    82  LEU82       0.1596
     36  C          3.5880   15.2950   28.0440 C.2    82  LEU82       0.2287
     37  O          4.3590   16.1790   28.4130 O.2    82  LEU82      -0.2864
     38  CB         3.8800   14.6250   25.6600 C.3    82  LEU82       0.0297
     39  CG         4.5340   15.9640   25.2690 C.3    82  LEU82       0.0022
     40  CD1        6.0430   15.8440   25.2050 C.3    82  LEU82       0.0001
     41  CD2        3.9990   16.4680   23.9380 C.3    82  LEU82       0.0001
     42  N         -0.4690   18.3170   15.0640 N.3   165  VAL165     -0.1231
     43  CA        -0.1200   18.1440   16.4690 C.3   165  VAL165      0.1692
     44  C          0.9530   19.1440   16.9040 C.2   165  VAL165      0.2592
     45  O          0.8270   19.7990   17.9420 O.2   165  VAL165     -0.2718
     46  CB         0.3160   16.6930   16.7770 C.3   165  VAL165      0.0266
     47  CG1        0.7010   16.5460   18.2390 C.3   165  VAL165      0.0020
     48  CG2       -0.8100   15.7210   16.4300 C.3   165  VAL165      0.0020
     49  N          1.9880   19.2840   16.0890 N.am  166  PHE166     -0.1976
     50  CA         3.0680   20.1980   16.3950 C.3   166  PHE166      0.1639
     51  C          2.7110   21.6910   16.1750 C.2   166  PHE166      0.2290
     52  O          3.1820   22.5560   16.9240 O.2   166  PHE166     -0.2864
     53  CB         4.3380   19.7840   15.6410 C.3   166  PHE166      0.0560
     54  CG         5.0360   18.5760   16.2360 C.ar  166  PHE166     -0.0200
     55  CD1        4.7670   17.2940   15.7650 C.ar  166  PHE166     -0.0042
     56  CD2        5.9650   18.7260   17.2630 C.ar  166  PHE166     -0.0042
     57  CE1        5.4090   16.1850   16.3150 C.ar  166  PHE166     -0.0003
     58  CE2        6.6140   17.6230   17.8080 C.ar  166  PHE166     -0.0003
     59  CZ         6.3400   16.3570   17.3400 C.ar  166  PHE166     -0.0000
     60  N          1.0760   23.1590   19.4850 N.3   169  PHE169     -0.1241
     61  CA         1.8750   23.5830   20.6380 C.3   169  PHE169      0.1605
     62  C          2.1080   25.0900   20.5580 C.2   169  PHE169      0.2264
     63  O          2.4310   25.7540   21.5480 O.2   169  PHE169     -0.2867
     64  CB         3.2410   22.8670   20.6480 C.3   169  PHE169      0.0534
     65  CG         3.1490   21.3760   20.8490 C.ar  169  PHE169     -0.0203
     66  CD1        3.8650   20.5080   20.0390 C.ar  169  PHE169     -0.0042
     67  CD2        2.3310   20.8460   21.8500 C.ar  169  PHE169     -0.0042
     68  CE1        3.7880   19.1250   20.2190 C.ar  169  PHE169     -0.0003
     69  CE2        2.2280   19.4650   22.0410 C.ar  169  PHE169     -0.0003
     70  CZ         2.9650   18.5970   21.2220 C.ar  169  PHE169     -0.0000
     71  N         -4.7760    5.9320   23.4270 N.3   224  LEU224     -0.1245
     72  CA        -3.9830    7.1450   23.6460 C.3   224  LEU224      0.1561
     73  C         -2.4570    6.9620   23.4880 C.2   224  LEU224      0.2260
     74  O         -1.7610    7.8590   22.9830 O.2   224  LEU224     -0.2867
     75  CB        -4.3020    7.7520   25.0060 C.3   224  LEU224      0.0270
     76  CG        -5.7120    8.3360   25.0810 C.3   224  LEU224      0.0019
     77  CD1       -5.9970    8.9010   26.4670 C.3   224  LEU224      0.0001
     78  CD2       -5.8570    9.4210   24.0190 C.3   224  LEU224      0.0001
     79  N         -1.6890    6.5460   20.0610 N.3   227  ARG227     -0.1231
     80  CA        -1.8140    7.9090   19.5360 C.3   227  ARG227      0.1694
     81  C         -0.5060    8.6870   19.7390 C.2   227  ARG227      0.2592
     82  O         -0.0390    9.3830   18.8260 O.2   227  ARG227     -0.2718
     83  CB        -3.0040    8.6490   20.1800 C.3   227  ARG227      0.0321
     84  CG        -3.6410    9.7440   19.2890 C.3   227  ARG227      0.0489
     85  CD        -4.5680   10.6730   20.0870 C.3   227  ARG227      0.2205
     86  NE        -3.8230   11.3070   21.1650 N.pl3 227  ARG227     -0.0865
     87  CZ        -4.3430   12.1470   22.0510 C.cat 227  ARG227      0.5346
     88  NH1       -3.5720   12.6850   22.9950 N.pl3 227  ARG227      0.1354
     89  NH2       -5.6310   12.4480   21.9950 N.pl3 227  ARG227      0.1354
     90  N          0.0840    8.5510   20.9270 N.am  228  SER228     -0.1952
     91  CA         1.3550    9.2020   21.2210 C.3   228  SER228      0.1924
     92  C          2.3800    8.9250   20.1510 C.2   228  SER228      0.2314
     93  O          3.0600    9.8340   19.6880 O.2   228  SER228     -0.2863
     94  CB         1.9030    8.7490   22.5660 C.3   228  SER228      0.2116
     95  OG         1.2700    9.4670   23.6050 O.3   228  SER228     -0.2180
     96  N          1.6770   10.5350   16.7790 N.3   231  SER231     -0.1202
     97  CA         1.8120   11.9830   16.7960 C.3   231  SER231      0.2020
     98  C          3.2650   12.3350   16.6140 C.2   231  SER231      0.2618
     99  O          3.6040   13.1720   15.7820 O.2   231  SER231     -0.2717
    100  CB         1.3300   12.5330   18.1280 C.3   231  SER231      0.2103
    101  OG        -0.0720   12.4000   18.2420 O.3   231  SER231     -0.2182
    102  N          4.1210   11.6430   17.3660 N.am  232  ALA232     -0.1979
    103  CA         5.4820   12.0860   17.5960 C.3   232  ALA232      0.1597
    104  C          6.5100   11.3440   16.7690 C.2   232  ALA232      0.2287
    105  O          7.6540   11.7850   16.6590 O.2   232  ALA232     -0.2864
    106  CB         5.8180   11.9360   19.0630 C.3   232  ALA232      0.0319
    107  N          9.7020   23.9840   22.8990 N.3   282  PHE282     -0.1241
    108  CA         8.6890   23.3680   23.7570 C.3   282  PHE282      0.1605
    109  C          8.5570   24.3130   24.9460 C.2   282  PHE282      0.2264
    110  O          9.4750   25.0770   25.2230 O.2   282  PHE282     -0.2867
    111  CB         9.1550   22.0010   24.2890 C.3   282  PHE282      0.0534
    112  CG         8.6130   20.8190   23.5420 C.ar  282  PHE282     -0.0203
    113  CD1        9.4720   19.9000   22.9500 C.ar  282  PHE282     -0.0042
    114  CD2        7.2450   20.5890   23.4610 C.ar  282  PHE282     -0.0042
    115  CE1        8.9600   18.7800   22.2680 C.ar  282  PHE282     -0.0003
    116  CE2        6.7350   19.4630   22.7840 C.ar  282  PHE282     -0.0003
    117  CZ         7.5960   18.5670   22.1910 C.ar  282  PHE282     -0.0000
@<TRIPOS>BOND
     1    42    43    1
     2    53    54    1
     3    53    50    1
     4    55    54   ar
     5    55    57   ar
     6    99    98    2
     7    49    50    1
     8    49    44   am
     9    51    50    1
    10    51    52    2
    11    54    56   ar
    12    57    59   ar
    13    48    46    1
    14    43    46    1
    15    43    44    1
    16    98    97    1
    17    98   102   am
    18   105   104    2
    19   104   103    1
    20    46    47    1
    21    96    97    1
    22    97   100    1
    23    44    45    2
    24    56    58   ar
    25    59    58   ar
    26   102   103    1
    27   103   106    1
    28   100   101    1
    29    82    81    2
    30    84    85    1
    31    84    83    1
    32    60    61    1
    33    10     9    1
    34    80    81    1
    35    80    79    1
    36    80    83    1
    37    93    92    2
    38    81    90   am
    39    66    68   ar
    40    66    65   ar
    41    85    86    1
    42    92    91    1
    43    68    70   ar
    44     9    11    1
    45     9     8    2
    46    62    61    1
    47    62    63    2
    48     7     8    1
    49     7     6    1
    50    61    64    1
    51    64    65    1
    52    65    67   ar
    53    90    91    1
    54    86    87    2
    55    91    94    1
    56    70    69   ar
    57     5     6    1
    58     5     2    1
    59    67    69   ar
    60    89    87    1
    61    87    88    1
    62   117   115   ar
    63   117   116   ar
    64   115   113   ar
    65     1     2    1
    66     2     3    1
    67    94    95    1
    68   116   114   ar
    69   107   108    1
    70   113   112   ar
    71    74    73    2
    72    71    72    1
    73   114   112   ar
    74    73    72    1
    75   112   111    1
    76    72    75    1
    77   108   111    1
    78   108   109    1
    79     3     4    2
    80    41    39    1
    81    78    76    1
    82   109   110    2
    83    75    76    1
    84    76    77    1
    85    40    39    1
    86    39    38    1
    87    17    16    1
    88    16    13    1
    89    38    35    1
    90    13    12    1
    91    13    14    1
    92    32    30    1
    93    35    34    1
    94    35    36    1
    95    33    31    1
    96    34    28   am
    97    14    18   am
    98    14    15    2
    99    18    19    1
   100    30    31    1
   101    30    27    1
   102    36    37    2
   103    26    27    1
   104    26    20   am
   105    28    27    1
   106    28    29    2
   107    23    24    1
   108    23    22    1
   109    23    25    1
   110    22    19    1
   111    19    20    1
   112    20    21    2
