@<TRIPOS>MOLECULE
tmp/5yqlA00.pdb
 212 209 0 0 0
SMALL
GASTEIGER

@<TRIPOS>ATOM
      1  N        -18.8270   -4.6520   -8.5940 N.3    43  ILE43      -0.1231
      2  CA       -18.4950   -5.3790   -9.8150 C.3    43  ILE43       0.1678
      3  C        -19.0850   -6.7890   -9.7410 C.2    43  ILE43       0.2434
      4  O        -18.5660   -7.6510   -9.0360 O.2    43  ILE43      -0.2733
      5  CB       -16.9660   -5.4370  -10.0370 C.3    43  ILE43       0.0265
      6  CG1      -16.4120   -4.0080  -10.1140 C.3    43  ILE43       0.0019
      7  CG2      -16.6410   -6.2160  -11.3240 C.3    43  ILE43       0.0020
      8  CD1      -14.9420   -3.9040  -10.3560 C.3    43  ILE43       0.0001
      9  N        -20.1970   -7.0280  -10.4540 N.am   44  PRO44      -0.2729
     10  CA       -20.8040   -8.3640  -10.4130 C.3    44  PRO44       0.1401
     11  C        -19.8930   -9.4780  -10.9200 C.2    44  PRO44       0.2269
     12  O        -19.0350   -9.2490  -11.7750 O.2    44  PRO44      -0.2865
     13  CB       -22.0220   -8.2250  -11.3340 C.3    44  PRO44       0.0296
     14  CG       -22.3220   -6.7870  -11.3630 C.3    44  PRO44       0.0237
     15  CD       -21.0110   -6.0830  -11.2400 C.3    44  PRO44       0.0939
     16  N        -19.6750  -12.1080  -13.3050 N.3    46  PHE46      -0.1241
     17  CA       -20.4630  -12.3490  -14.5080 C.3    46  PHE46       0.1605
     18  C        -20.7370  -13.8400  -14.6850 C.2    46  PHE46       0.2264
     19  O        -21.4140  -14.2430  -15.6280 O.2    46  PHE46      -0.2867
     20  CB       -19.7860  -11.7530  -15.7550 C.3    46  PHE46       0.0534
     21  CG       -18.4530  -12.3660  -16.1060 C.ar   46  PHE46      -0.0203
     22  CD1      -18.3780  -13.6350  -16.6650 C.ar   46  PHE46      -0.0042
     23  CD2      -17.2780  -11.6450  -15.9330 C.ar   46  PHE46      -0.0042
     24  CE1      -17.1570  -14.1900  -17.0080 C.ar   46  PHE46      -0.0003
     25  CE2      -16.0530  -12.1930  -16.2750 C.ar   46  PHE46      -0.0003
     26  CZ       -15.9920  -13.4670  -16.8150 C.ar   46  PHE46      -0.0000
     27  N        -24.9060  -13.2370  -17.9530 N.3    53  LEU53      -0.1245
     28  CA       -24.5880  -12.6450  -19.2470 C.3    53  LEU53       0.1561
     29  C        -25.6800  -12.9360  -20.2730 C.2    53  LEU53       0.2260
     30  O        -26.8240  -12.5100  -20.1150 O.2    53  LEU53      -0.2867
     31  CB       -23.2410  -13.1670  -19.7510 C.3    53  LEU53       0.0270
     32  CG       -21.9830  -12.6570  -19.0440 C.3    53  LEU53       0.0019
     33  CD1      -21.0090  -13.7960  -18.7920 C.3    53  LEU53       0.0001
     34  CD2      -21.3220  -11.5630  -19.8660 C.3    53  LEU53       0.0001
     35  N        -19.2350  -14.7150  -27.8880 N.3    65  ILE65      -0.1231
     36  CA       -18.7250  -13.4300  -27.4370 C.3    65  ILE65       0.1692
     37  C        -17.5220  -13.5940  -26.5040 C.2    65  ILE65       0.2592
     38  O        -16.8110  -12.6260  -26.2300 O.2    65  ILE65      -0.2718
     39  CB       -19.8250  -12.6100  -26.7280 C.3    65  ILE65       0.0266
     40  CG1      -19.4350  -11.1300  -26.6800 C.3    65  ILE65       0.0019
     41  CG2      -20.1100  -13.1630  -25.3280 C.3    65  ILE65       0.0020
     42  CD1      -20.6030  -10.1920  -26.4540 C.3    65  ILE65       0.0001
     43  N        -17.3010  -14.8190  -26.0300 N.am   66  PHE66      -0.1976
     44  CA       -16.1620  -15.1340  -25.1600 C.3    66  PHE66       0.1639
     45  C        -15.0110  -15.7980  -25.9100 C.2    66  PHE66       0.2290
     46  O        -13.9400  -16.0170  -25.3380 O.2    66  PHE66      -0.2864
     47  CB       -16.5860  -16.0740  -24.0280 C.3    66  PHE66       0.0560
     48  CG       -17.7770  -15.6060  -23.2510 C.ar   66  PHE66      -0.0200
     49  CD1      -17.6470  -14.6310  -22.2770 C.ar   66  PHE66      -0.0042
     50  CD2      -19.0250  -16.1650  -23.4740 C.ar   66  PHE66      -0.0042
     51  CE1      -18.7450  -14.2070  -21.5520 C.ar   66  PHE66      -0.0003
     52  CE2      -20.1260  -15.7470  -22.7540 C.ar   66  PHE66      -0.0003
     53  CZ       -19.9870  -14.7670  -21.7900 C.ar   66  PHE66      -0.0000
     54  N        -18.2170   -7.7900  -28.4270 N.3    78  PHE78      -0.1241
     55  CA       -17.4070   -7.7490  -27.2130 C.3    78  PHE78       0.1605
     56  C        -17.2290   -6.3280  -26.6940 C.2    78  PHE78       0.2264
     57  O        -17.3770   -6.0760  -25.4980 O.2    78  PHE78      -0.2867
     58  CB       -16.0300   -8.3730  -27.4330 C.3    78  PHE78       0.0534
     59  CG       -15.1150   -8.1850  -26.2560 C.ar   78  PHE78      -0.0203
     60  CD1      -15.1440   -9.0710  -25.1890 C.ar   78  PHE78      -0.0042
     61  CD2      -14.2740   -7.0880  -26.1890 C.ar   78  PHE78      -0.0042
     62  CE1      -14.3160   -8.8840  -24.0960 C.ar   78  PHE78      -0.0003
     63  CE2      -13.4560   -6.8940  -25.0980 C.ar   78  PHE78      -0.0003
     64  CZ       -13.4820   -7.7920  -24.0490 C.ar   78  PHE78      -0.0000
     65  N        -20.4130   -4.9830  -25.2770 N.3    81  LEU81      -0.1231
     66  CA       -20.5890   -5.5810  -23.9570 C.3    81  LEU81       0.1693
     67  C        -19.6240   -4.9750  -22.9400 C.2    81  LEU81       0.2591
     68  O        -19.9720   -4.8100  -21.7700 O.2    81  LEU81      -0.2718
     69  CB       -20.3890   -7.0930  -24.0180 C.3    81  LEU81       0.0284
     70  CG       -20.5420   -7.8260  -22.6810 C.3    81  LEU81       0.0019
     71  CD1      -21.9740   -7.7270  -22.1730 C.3    81  LEU81       0.0001
     72  CD2      -20.1200   -9.2740  -22.8300 C.3    81  LEU81       0.0001
     73  N        -18.4120   -4.6500  -23.3900 N.am   82  ALA82      -0.1980
     74  CA       -17.4080   -4.0360  -22.5230 C.3    82  ALA82       0.1597
     75  C        -17.8360   -2.6400  -22.0610 C.2    82  ALA82       0.2287
     76  O        -17.5850   -2.2570  -20.9190 O.2    82  ALA82      -0.2864
     77  CB       -16.0510   -3.9730  -23.2410 C.3    82  ALA82       0.0319
     78  N        -20.6440   -3.1650  -19.3830 N.3    85  LEU85      -0.1231
     79  CA       -20.1680   -3.7120  -18.1150 C.3    85  LEU85       0.1693
     80  C        -19.0450   -2.8920  -17.4770 C.2    85  LEU85       0.2592
     81  O        -18.5550   -3.2510  -16.4070 O.2    85  LEU85      -0.2718
     82  CB       -19.6800   -5.1530  -18.3090 C.3    85  LEU85       0.0284
     83  CG       -20.6790   -6.2080  -18.7910 C.3    85  LEU85       0.0019
     84  CD1      -19.9910   -7.5570  -18.8860 C.3    85  LEU85       0.0001
     85  CD2      -21.8930   -6.2960  -17.8820 C.3    85  LEU85       0.0001
     86  N        -18.6300   -1.8040  -18.1170 N.am   86  TYR86      -0.1963
     87  CA       -17.5430   -0.9910  -17.5770 C.3    86  TYR86       0.1756
     88  C        -17.9310   -0.4030  -16.2170 C.2    86  TYR86       0.2461
     89  O        -18.9210    0.3140  -16.1180 O.2    86  TYR86      -0.2730
     90  CB       -17.1710    0.1420  -18.5400 C.3    86  TYR86       0.0574
     91  CG       -15.7110    0.5370  -18.4770 C.ar   86  TYR86      -0.0198
     92  CD1      -15.1950    1.2250  -17.3830 C.ar   86  TYR86      -0.0009
     93  CD2      -14.8430    0.2120  -19.5050 C.ar   86  TYR86      -0.0009
     94  CE1      -13.8660    1.5810  -17.3220 C.ar   86  TYR86       0.0417
     95  CE2      -13.5100    0.5620  -19.4510 C.ar   86  TYR86       0.0417
     96  CZ       -13.0240    1.2450  -18.3600 C.ar   86  TYR86       0.1957
     97  OH       -11.6940    1.5940  -18.3110 O.3    86  TYR86      -0.2866
     98  N        -17.1540   -0.7030  -15.1620 N.am   87  PRO87      -0.2727
     99  CA       -17.5120   -0.1550  -13.8430 C.3    87  PRO87       0.1402
    100  C        -17.6130    1.3670  -13.8240 C.2    87  PRO87       0.2269
    101  O        -16.8240    2.0480  -14.4710 O.2    87  PRO87      -0.2865
    102  CB       -16.3620   -0.6260  -12.9420 C.3    87  PRO87       0.0296
    103  CG       -15.8540   -1.8680  -13.6070 C.3    87  PRO87       0.0237
    104  CD       -15.9930   -1.6110  -15.0830 C.3    87  PRO87       0.0939
    105  N        -13.8090    2.5800   -9.6790 N.3    90  PHE90      -0.1241
    106  CA       -12.8740    1.5280   -9.2880 C.3    90  PHE90       0.1605
    107  C        -12.3730    1.7680   -7.8730 C.2    90  PHE90       0.2264
    108  O        -11.3370    2.4130   -7.6480 O.2    90  PHE90      -0.2867
    109  CB       -11.7160    1.4530  -10.2770 C.3    90  PHE90       0.0534
    110  CG       -12.1210    0.9460  -11.6350 C.ar   90  PHE90      -0.0203
    111  CD1      -12.6390    1.8090  -12.5920 C.ar   90  PHE90      -0.0042
    112  CD2      -12.0030   -0.3920  -11.9500 C.ar   90  PHE90      -0.0042
    113  CE1      -13.0180    1.3360  -13.8440 C.ar   90  PHE90      -0.0003
    114  CE2      -12.3710   -0.8650  -13.1970 C.ar   90  PHE90      -0.0003
    115  CZ       -12.8880    0.0050  -14.1440 C.ar   90  PHE90      -0.0000
    116  N        -10.3840   -9.5780  -13.5830 N.3   116  ILE116     -0.1231
    117  CA        -9.8380   -8.7930  -14.6820 C.3   116  ILE116      0.1692
    118  C        -10.0630   -7.2870  -14.4630 C.2   116  ILE116      0.2592
    119  O         -9.7700   -6.4680  -15.3380 O.2   116  ILE116     -0.2718
    120  CB       -10.4600   -9.2410  -16.0320 C.3   116  ILE116      0.0266
    121  CG1      -11.9820   -9.1120  -15.9990 C.3   116  ILE116      0.0019
    122  CG2      -10.0210  -10.6760  -16.3620 C.3   116  ILE116      0.0020
    123  CD1      -12.6730   -9.4770  -17.3150 C.3   116  ILE116      0.0001
    124  N        -10.5180   -6.9220  -13.2630 N.am  117  ASP117     -0.1960
    125  CA       -11.0020   -5.5680  -12.9900 C.3   117  ASP117      0.1840
    126  C         -9.9290   -4.5590  -12.5550 C.2   117  ASP117      0.2622
    127  O        -10.2290   -3.3850  -12.4140 O.2   117  ASP117     -0.2715
    128  CB       -12.1130   -5.6160  -11.9220 C.3   117  ASP117      0.1450
    129  CG       -11.6890   -6.3280  -10.6460 C.2   117  ASP117      0.3671
    130  OD1      -10.5220   -6.1680  -10.2200 O.co2 117  ASP117     -0.2456
    131  OD2      -12.5380   -7.0480  -10.0730 O.co2 117  ASP117     -0.2456
    132  N         -8.6970   -5.0310  -12.3520 N.am  118  THR118     -0.1951
    133  CA        -7.5300   -4.2190  -11.9580 C.3   118  THR118      0.1897
    134  C         -7.5630   -3.6820  -10.5090 C.2   118  THR118      0.2313
    135  O         -6.6710   -2.9360  -10.1090 O.2   118  THR118     -0.2863
    136  CB        -7.2810   -2.9900  -12.9190 C.3   118  THR118      0.1794
    137  OG1       -8.1290   -1.8760  -12.5880 O.3   118  THR118     -0.2208
    138  CG2       -7.4910   -3.3650  -14.3830 C.3   118  THR118      0.0378
    139  N         -6.3600  -15.0010  -15.2720 N.3   134  HIS134     -0.1241
    140  CA        -7.3020  -14.8850  -16.3760 C.3   134  HIS134      0.1621
    141  C         -7.0450  -13.6240  -17.1810 C.2   134  HIS134      0.2264
    142  O         -7.8970  -13.1760  -17.9450 O.2   134  HIS134     -0.2867
    143  CB        -8.7350  -14.9110  -15.8510 C.3   134  HIS134      0.0745
    144  CG        -9.1290  -16.2330  -15.2760 C.ar  134  HIS134      0.0817
    145  ND1      -10.3910  -16.4860  -14.7770 N.ar  134  HIS134     -0.2268
    146  CD2       -8.4320  -17.3870  -15.1390 C.ar  134  HIS134      0.1154
    147  CE1      -10.4470  -17.7340  -14.3440 C.ar  134  HIS134      0.1986
    148  NE2       -9.2710  -18.3030  -14.5540 N.ar  134  HIS134     -0.2212
    149  N         -7.7530   -6.2770  -17.9430 N.3   137  PHE137     -0.1241
    150  CA        -8.0000   -5.0950  -18.7710 C.3   137  PHE137      0.1605
    151  C         -6.8980   -4.0340  -18.6400 C.2   137  PHE137      0.2264
    152  O         -6.8870   -3.0680  -19.3920 O.2   137  PHE137     -0.2867
    153  CB        -9.3410   -4.4440  -18.4060 C.3   137  PHE137      0.0534
    154  CG       -10.5180   -5.0090  -19.1290 C.ar  137  PHE137     -0.0203
    155  CD1      -10.8140   -4.6000  -20.4240 C.ar  137  PHE137     -0.0042
    156  CD2      -11.3510   -5.9310  -18.5190 C.ar  137  PHE137     -0.0042
    157  CE1      -11.9080   -5.1060  -21.0910 C.ar  137  PHE137     -0.0003
    158  CE2      -12.4440   -6.4440  -19.1910 C.ar  137  PHE137     -0.0003
    159  CZ       -12.7200   -6.0320  -20.4760 C.ar  137  PHE137     -0.0000
    160  N         -4.8720    1.1290  -20.3110 N.3   153  LEU153     -0.1245
    161  CA        -6.3100    1.1180  -20.1320 C.3   153  LEU153      0.1561
    162  C         -6.9460    2.4610  -20.4720 C.2   153  LEU153      0.2260
    163  O         -8.0870    2.5050  -20.9290 O.2   153  LEU153     -0.2867
    164  CB        -6.6640    0.7350  -18.6890 C.3   153  LEU153      0.0270
    165  CG        -8.1580    0.6940  -18.3510 C.3   153  LEU153      0.0019
    166  CD1       -8.9290   -0.2210  -19.2790 C.3   153  LEU153      0.0001
    167  CD2       -8.3540    0.2600  -16.8980 C.3   153  LEU153      0.0001
    168  N        -13.5460    2.3880  -25.9320 N.3   160  ILE160     -0.1245
    169  CA       -14.7250    1.6380  -25.5350 C.3   160  ILE160      0.1561
    170  C        -15.9430    2.5540  -25.3960 C.2   160  ILE160      0.2260
    171  O        -17.0330    2.2220  -25.8550 O.2   160  ILE160     -0.2867
    172  CB       -14.4680    0.8850  -24.2200 C.3   160  ILE160      0.0252
    173  CG1      -13.5410   -0.3050  -24.4920 C.3   160  ILE160      0.0019
    174  CG2      -15.7700    0.3750  -23.6130 C.3   160  ILE160      0.0019
    175  CD1      -13.0140   -0.9890  -23.2430 C.3   160  ILE160      0.0001
    176  N         -7.0940   -9.8210  -21.5440 N.3   179  ILE179     -0.1231
    177  CA        -7.8560  -10.8310  -20.8190 C.3   179  ILE179      0.1692
    178  C         -7.8400  -12.1380  -21.6050 C.2   179  ILE179      0.2592
    179  O         -7.7530  -12.1380  -22.8340 O.2   179  ILE179     -0.2718
    180  CB        -9.3040  -10.3670  -20.5540 C.3   179  ILE179      0.0266
    181  CG1      -10.0470  -10.1260  -21.8670 C.3   179  ILE179      0.0019
    182  CG2       -9.2890   -9.1140  -19.6890 C.3   179  ILE179      0.0020
    183  CD1      -11.4560   -9.5990  -21.6820 C.3   179  ILE179      0.0001
    184  N         -7.8890  -13.2590  -20.8940 N.am  180  VAL180     -0.1966
    185  CA        -7.9080  -14.5600  -21.5480 C.3   180  VAL180      0.1727
    186  C         -9.3140  -14.8770  -22.0700 C.2   180  VAL180      0.2616
    187  O        -10.2430  -15.0770  -21.2910 O.2   180  VAL180     -0.2715
    188  CB        -7.4430  -15.6640  -20.5820 C.3   180  VAL180      0.0290
    189  CG1       -7.4080  -17.0160  -21.2760 C.3   180  VAL180      0.0023
    190  CG2       -6.0800  -15.3130  -20.0330 C.3   180  VAL180      0.0023
    191  N         -9.4560  -14.9030  -23.3950 N.am  181  PHE181     -0.1960
    192  CA       -10.6870  -15.3620  -24.0420 C.3   181  PHE181      0.1771
    193  C        -10.7280  -16.8850  -24.0590 C.2   181  PHE181      0.2619
    194  O         -9.6850  -17.5380  -23.9460 O.2   181  PHE181     -0.2715
    195  CB       -10.7670  -14.8320  -25.4810 C.3   181  PHE181      0.0574
    196  CG       -11.1880  -13.3930  -25.5920 C.ar  181  PHE181     -0.0200
    197  CD1      -10.4160  -12.3800  -25.0510 C.ar  181  PHE181     -0.0042
    198  CD2      -12.3470  -13.0480  -26.2790 C.ar  181  PHE181     -0.0042
    199  CE1      -10.8020  -11.0560  -25.1640 C.ar  181  PHE181     -0.0003
    200  CE2      -12.7340  -11.7230  -26.3970 C.ar  181  PHE181     -0.0003
    201  CZ       -11.9630  -10.7260  -25.8430 C.ar  181  PHE181     -0.0000
    202  N        -11.9110  -17.4720  -24.2340 N.am  182  PHE182     -0.1974
    203  CA       -11.9490  -18.9150  -24.4460 C.3   182  PHE182      0.1639
    204  C        -11.2260  -19.2090  -25.7530 C.2   182  PHE182      0.2290
    205  O        -11.3450  -18.4580  -26.7270 O.2   182  PHE182     -0.2864
    206  CB       -13.3710  -19.4770  -24.4800 C.3   182  PHE182      0.0560
    207  CG       -13.4110  -20.9860  -24.5190 C.ar  182  PHE182     -0.0200
    208  CD1      -13.3570  -21.6670  -25.7270 C.ar  182  PHE182     -0.0042
    209  CD2      -13.4710  -21.7230  -23.3450 C.ar  182  PHE182     -0.0042
    210  CE1      -13.3780  -23.0540  -25.7640 C.ar  182  PHE182     -0.0003
    211  CE2      -13.4940  -23.1090  -23.3750 C.ar  182  PHE182     -0.0003
    212  CZ       -13.4470  -23.7740  -24.5860 C.ar  182  PHE182     -0.0000
@<TRIPOS>BOND
     1    54    55    1
     2    35    36    1
     3    36    39    1
     4    36    37    1
     5    58    55    1
     6    58    59    1
     7    55    56    1
     8    39    40    1
     9    39    41    1
    10   205   204    2
    11    56    57    2
    12    40    42    1
    13    37    38    2
    14    37    43   am
    15   200   198   ar
    16   200   201   ar
    17   198   196   ar
    18    59    61   ar
    19    59    60   ar
    20    61    63   ar
    21    43    44    1
    22   168   169    1
    23    45    46    2
    24    45    44    1
    25   171   170    2
    26   201   199   ar
    27   210   208   ar
    28   210   212   ar
    29   204   203    1
    30   208   207   ar
    31   196   195    1
    32   196   197   ar
    33   169   170    1
    34   169   172    1
    35   195   192    1
    36    65    66    1
    37    60    62   ar
    38   199   197   ar
    39    44    47    1
    40    63    64   ar
    41   212   211   ar
    42   207   206    1
    43   207   209   ar
    44   173   172    1
    45   173   175    1
    46   206   203    1
    47   203   202    1
    48   202   193   am
    49   172   174    1
    50    62    64   ar
    51   193   192    1
    52   193   194    2
    53   192   191    1
    54    47    48    1
    55    69    66    1
    56    69    70    1
    57    66    67    1
    58    50    48   ar
    59    50    52   ar
    60   191   186   am
    61    73    67   am
    62    73    74    1
    63   211   209   ar
    64    48    49   ar
    65    77    74    1
    66    67    68    2
    67   179   178    2
    68    72    70    1
    69    52    53   ar
    70    70    71    1
    71    74    75    1
    72    49    51   ar
    73   186   185    1
    74   186   187    2
    75    75    76    2
    76   181   183    1
    77   181   180    1
    78    53    51   ar
    79   178   184   am
    80   178   177    1
    81   185   184    1
    82   185   188    1
    83   176   177    1
    84   189   188    1
    85   157   159   ar
    86   157   155   ar
    87   163   162    2
    88   177   180    1
    89   188   190    1
    90   180   182    1
    91   159   158   ar
    92   162   161    1
    93   155   154   ar
    94   160   161    1
    95    29    30    2
    96    29    28    1
    97   161   164    1
    98    34    32    1
    99    31    28    1
   100    31    32    1
   101    93    95   ar
   102    93    91   ar
   103    95    96   ar
   104   152   151    2
   105    78    79    1
   106   166   165    1
   107    28    27    1
   108   158   156   ar
   109   154   156   ar
   110   154   153    1
   111    32    33    1
   112    84    83    1
   113    83    82    1
   114    83    85    1
   115   150   151    1
   116   150   153    1
   117   150   149    1
   118   164   165    1
   119    90    91    1
   120    90    87    1
   121    91    92   ar
   122    96    97    1
   123    96    94   ar
   124   165   167    1
   125    82    79    1
   126    86    87    1
   127    86    80   am
   128    79    80    1
   129   142   141    2
   130    87    88    1
   131    80    81    2
   132    92    94   ar
   133   123   121    1
   134   141   140    1
   135    24    26   ar
   136    24    22   ar
   137    26    25   ar
   138    22    21   ar
   139   140   143    1
   140   140   139    1
   141   122   120    1
   142    25    23   ar
   143    88    89    2
   144    88    98   am
   145    21    23   ar
   146    21    20    1
   147   120   121    1
   148   120   117    1
   149   143   144    1
   150    20    17    1
   151    19    18    2
   152   119   118    2
   153   144   146   ar
   154   144   145   ar
   155    98   104    1
   156    98    99    1
   157   146   148   ar
   158   104   103    1
   159   145   147   ar
   160    18    17    1
   161   117   118    1
   162   117   116    1
   163   148   147   ar
   164    17    16    1
   165   101   100    2
   166   118   124   am
   167   138   136    1
   168   115   113   ar
   169   115   114   ar
   170   113   111   ar
   171    99   100    1
   172    99   102    1
   173   103   102    1
   174   124   125    1
   175   114   112   ar
   176   125   126    1
   177   125   128    1
   178   136   137    1
   179   136   133    1
   180   111   110   ar
   181   126   127    2
   182   126   132   am
   183   132   133    1
   184   133   134    1
   185   112   110   ar
   186   128   129    1
   187    12    11    2
   188   110   109    1
   189    14    13    1
   190    14    15    1
   191    13    10    1
   192     7     5    1
   193    15     9    1
   194    11    10    1
   195   129   130   ar
   196   129   131   ar
   197   134   135    2
   198     9    10    1
   199     9     3   am
   200     8     6    1
   201   109   106    1
   202     6     5    1
   203     5     2    1
   204     2     3    1
   205     2     1    1
   206     3     4    2
   207   105   106    1
   208   106   107    1
   209   107   108    2
