@<TRIPOS>MOLECULE
tmp/5yqmA00.pdb
 205 203 0 0 0
SMALL
GASTEIGER

@<TRIPOS>ATOM
      1  N        -18.7630   -4.3980   -8.4520 N.3    43  ILE43      -0.1231
      2  CA       -18.5490   -5.1600   -9.6820 C.3    43  ILE43       0.1678
      3  C        -19.1290   -6.5760   -9.5540 C.2    43  ILE43       0.2434
      4  O        -18.5200   -7.4540   -8.9380 O.2    43  ILE43      -0.2733
      5  CB       -17.0380   -5.2380  -10.0330 C.3    43  ILE43       0.0265
      6  CG1      -16.4600   -3.8250  -10.1780 C.3    43  ILE43       0.0019
      7  CG2      -16.8420   -6.0150  -11.3320 C.3    43  ILE43       0.0020
      8  CD1      -14.9560   -3.7630  -10.4410 C.3    43  ILE43       0.0001
      9  N        -20.2910   -6.8270  -10.1950 N.am   44  PRO44      -0.2729
     10  CA       -20.8560   -8.1710  -10.0570 C.3    44  PRO44       0.1401
     11  C        -20.0390   -9.2010  -10.8070 C.2    44  PRO44       0.2269
     12  O        -19.2990   -8.8560  -11.7370 O.2    44  PRO44      -0.2865
     13  CB       -22.2650   -8.0520  -10.6640 C.3    44  PRO44       0.0296
     14  CG       -22.3960   -6.6940  -11.1910 C.3    44  PRO44       0.0237
     15  CD       -21.1080   -5.9590  -11.0580 C.3    44  PRO44       0.0939
     16  N        -19.6110  -11.6890  -13.5010 N.3    46  PHE46      -0.1227
     17  CA       -20.3540  -11.8150  -14.7460 C.3    46  PHE46       0.1736
     18  C        -20.6380  -13.2870  -15.0240 C.2    46  PHE46       0.2595
     19  O        -21.4340  -13.6100  -15.9080 O.2    46  PHE46      -0.2718
     20  CB       -19.6100  -11.1470  -15.9180 C.3    46  PHE46       0.0547
     21  CG       -18.3500  -11.8510  -16.3470 C.ar   46  PHE46      -0.0202
     22  CD1      -17.1170  -11.4030  -15.9120 C.ar   46  PHE46      -0.0042
     23  CD2      -18.3950  -12.9250  -17.2190 C.ar   46  PHE46      -0.0042
     24  CE1      -15.9600  -12.0290  -16.3060 C.ar   46  PHE46      -0.0003
     25  CE2      -17.2330  -13.5570  -17.6190 C.ar   46  PHE46      -0.0003
     26  CZ       -16.0100  -13.0960  -17.1600 C.ar   46  PHE46      -0.0000
     27  N        -19.9970  -14.1720  -14.2630 N.am   47  ARG47      -0.1980
     28  CA       -20.2820  -15.6080  -14.3390 C.3    47  ARG47       0.1597
     29  C        -21.4960  -16.0570  -13.5160 C.2    47  ARG47       0.2287
     30  O        -22.0590  -17.1200  -13.7820 O.2    47  ARG47      -0.2864
     31  CB       -19.0640  -16.4130  -13.8850 C.3    47  ARG47       0.0334
     32  CG       -17.9150  -16.4090  -14.8620 C.3    47  ARG47       0.0492
     33  CD       -16.8490  -17.4190  -14.4240 C.3    47  ARG47       0.2205
     34  NE       -15.8150  -17.6060  -15.4390 N.pl3  47  ARG47      -0.0865
     35  CZ       -14.7490  -16.8240  -15.5680 C.cat  47  ARG47       0.5346
     36  NH1      -14.5780  -15.7980  -14.7440 N.pl3  47  ARG47       0.1354
     37  NH2      -13.8580  -17.0600  -16.5230 N.pl3  47  ARG47       0.1354
     38  N        -26.0680  -11.1060  -17.1070 N.3    53  LEU53      -0.1245
     39  CA       -25.2820  -10.7430  -18.2860 C.3    53  LEU53       0.1561
     40  C        -26.0230  -11.0220  -19.5970 C.2    53  LEU53       0.2260
     41  O        -26.1220  -10.1470  -20.4640 O.2    53  LEU53      -0.2867
     42  CB       -23.9480  -11.5000  -18.2790 C.3    53  LEU53       0.0270
     43  CG       -23.0420  -11.3340  -19.5060 C.3    53  LEU53       0.0019
     44  CD1      -22.6960   -9.8720  -19.7240 C.3    53  LEU53       0.0001
     45  CD2      -21.7650  -12.1660  -19.3690 C.3    53  LEU53       0.0001
     46  N        -19.7560  -14.0750  -27.2600 N.3    64  ILE64      -0.1231
     47  CA       -19.1440  -12.8870  -26.6980 C.3    64  ILE64       0.1692
     48  C        -17.7780  -13.2150  -26.0810 C.2    64  ILE64       0.2592
     49  O        -16.9140  -12.3430  -26.0080 O.2    64  ILE64      -0.2718
     50  CB       -20.0770  -12.2300  -25.6450 C.3    64  ILE64       0.0266
     51  CG1      -19.6640  -10.7780  -25.3820 C.3    64  ILE64       0.0019
     52  CG2      -20.1140  -13.0330  -24.3570 C.3    64  ILE64       0.0020
     53  CD1      -19.9690   -9.8490  -26.5230 C.3    64  ILE64       0.0001
     54  N        -17.6010  -14.4640  -25.6480 N.am   65  PHE65      -0.1976
     55  CA       -16.3650  -14.9120  -24.9880 C.3    65  PHE65       0.1639
     56  C        -15.3120  -15.5400  -25.9030 C.2    65  PHE65       0.2290
     57  O        -14.1740  -15.7490  -25.4870 O.2    65  PHE65      -0.2864
     58  CB       -16.7030  -15.9370  -23.8950 C.3    65  PHE65       0.0560
     59  CG       -17.6710  -15.4350  -22.8660 C.ar   65  PHE65      -0.0200
     60  CD1      -17.3270  -14.3920  -22.0230 C.ar   65  PHE65      -0.0042
     61  CD2      -18.9260  -16.0120  -22.7340 C.ar   65  PHE65      -0.0042
     62  CE1      -18.2160  -13.9280  -21.0730 C.ar   65  PHE65      -0.0003
     63  CE2      -19.8170  -15.5540  -21.7820 C.ar   65  PHE65      -0.0003
     64  CZ       -19.4620  -14.5120  -20.9510 C.ar   65  PHE65      -0.0000
     65  N        -18.1670   -7.1480  -28.3710 N.3    77  PHE77      -0.1241
     66  CA       -17.3270   -7.1460  -27.1730 C.3    77  PHE77       0.1605
     67  C        -17.0880   -5.7390  -26.6470 C.2    77  PHE77       0.2264
     68  O        -17.2580   -5.4720  -25.4560 O.2    77  PHE77      -0.2867
     69  CB       -15.9810   -7.8220  -27.4420 C.3    77  PHE77       0.0534
     70  CG       -15.0230   -7.6900  -26.2910 C.ar   77  PHE77      -0.0203
     71  CD1      -15.1490   -8.5010  -25.1690 C.ar   77  PHE77      -0.0042
     72  CD2      -14.0200   -6.7410  -26.3180 C.ar   77  PHE77      -0.0042
     73  CE1      -14.2670   -8.3670  -24.0930 C.ar   77  PHE77      -0.0003
     74  CE2      -13.1440   -6.6040  -25.2540 C.ar   77  PHE77      -0.0003
     75  CZ       -13.2690   -7.4210  -24.1420 C.ar   77  PHE77      -0.0000
     76  N        -20.1230   -4.0800  -25.1930 N.3    80  LEU80      -0.1231
     77  CA       -20.4100   -4.6250  -23.8730 C.3    80  LEU80       0.1693
     78  C        -19.4280   -4.0630  -22.8480 C.2    80  LEU80       0.2591
     79  O        -19.8010   -3.7550  -21.7120 O.2    80  LEU80      -0.2718
     80  CB       -20.3520   -6.1540  -23.9000 C.3    80  LEU80       0.0284
     81  CG       -20.6240   -6.8260  -22.5540 C.3    80  LEU80       0.0019
     82  CD1      -22.0950   -6.6730  -22.1630 C.3    80  LEU80       0.0001
     83  CD2      -20.2260   -8.2810  -22.6070 C.3    80  LEU80       0.0001
     84  N        -18.1720   -3.9160  -23.2590 N.am   81  ALA81      -0.1980
     85  CA       -17.1540   -3.3570  -22.3830 C.3    81  ALA81       0.1597
     86  C        -17.5810   -1.9750  -21.9010 C.2    81  ALA81       0.2287
     87  O        -17.4340   -1.6540  -20.7170 O.2    81  ALA81      -0.2864
     88  CB       -15.8020   -3.2910  -23.1030 C.3    81  ALA81       0.0319
     89  N        -20.5750   -2.3480  -19.3540 N.3    84  LEU84      -0.1231
     90  CA       -20.1710   -2.9290  -18.0750 C.3    84  LEU84       0.1693
     91  C        -18.9740   -2.2360  -17.4220 C.2    84  LEU84       0.2592
     92  O        -18.5530   -2.6150  -16.3250 O.2    84  LEU84      -0.2718
     93  CB       -19.8510   -4.4130  -18.2760 C.3    84  LEU84       0.0284
     94  CG       -20.9550   -5.2970  -18.8640 C.3    84  LEU84       0.0019
     95  CD1      -20.5570   -6.7630  -18.7910 C.3    84  LEU84       0.0001
     96  CD2      -22.2850   -5.0890  -18.1610 C.3    84  LEU84       0.0001
     97  N        -18.4320   -1.2160  -18.0740 N.am   85  TYR85      -0.1963
     98  CA       -17.2850   -0.5070  -17.5210 C.3    85  TYR85       0.1756
     99  C        -17.6320    0.0690  -16.1470 C.2    85  TYR85       0.2461
    100  O        -18.5660    0.8580  -16.0220 O.2    85  TYR85      -0.2730
    101  CB       -16.8350    0.6150  -18.4480 C.3    85  TYR85       0.0574
    102  CG       -15.3500    0.8540  -18.3980 C.ar   85  TYR85      -0.0198
    103  CD1      -14.7800    1.6090  -17.3800 C.ar   85  TYR85      -0.0009
    104  CD2      -14.5140    0.3040  -19.3540 C.ar   85  TYR85      -0.0009
    105  CE1      -13.4170    1.8220  -17.3310 C.ar   85  TYR85       0.0417
    106  CE2      -13.1590    0.5090  -19.3140 C.ar   85  TYR85       0.0417
    107  CZ       -12.6100    1.2660  -18.3020 C.ar   85  TYR85       0.1957
    108  OH       -11.2480    1.4650  -18.2710 O.3    85  TYR85      -0.2866
    109  N        -16.8980   -0.3390  -15.1020 N.am   86  PRO86      -0.2727
    110  CA       -17.1990    0.2130  -13.7730 C.3    86  PRO86       0.1402
    111  C        -17.1630    1.7370  -13.7160 C.2    86  PRO86       0.2269
    112  O        -16.2480    2.3500  -14.2700 O.2    86  PRO86      -0.2865
    113  CB       -16.0910   -0.3850  -12.8960 C.3    86  PRO86       0.0296
    114  CG       -15.7570   -1.6740  -13.5630 C.3    86  PRO86       0.0237
    115  CD       -15.8650   -1.3890  -15.0370 C.3    86  PRO86       0.0939
    116  N        -13.4060    2.6400   -9.7340 N.3    89  PHE89      -0.1241
    117  CA       -12.6100    1.5100   -9.2750 C.3    89  PHE89       0.1605
    118  C        -12.1180    1.8060   -7.8610 C.2    89  PHE89       0.2264
    119  O        -11.0970    2.4740   -7.6610 O.2    89  PHE89      -0.2867
    120  CB       -11.4220    1.2750  -10.2170 C.3    89  PHE89       0.0534
    121  CG       -11.8210    0.8650  -11.6110 C.ar   89  PHE89      -0.0203
    122  CD1      -12.2720    1.8040  -12.5260 C.ar   89  PHE89      -0.0042
    123  CD2      -11.7430   -0.4630  -12.0050 C.ar   89  PHE89      -0.0042
    124  CE1      -12.6410    1.4200  -13.8060 C.ar   89  PHE89      -0.0003
    125  CE2      -12.1070   -0.8540  -13.2830 C.ar   89  PHE89      -0.0003
    126  CZ       -12.5560    0.0840  -14.1860 C.ar   89  PHE89      -0.0000
    127  N        -10.5070   -9.6880  -13.6940 N.3   115  ILE115     -0.1231
    128  CA        -9.9780   -8.8140  -14.7430 C.3   115  ILE115      0.1692
    129  C        -10.0980   -7.3020  -14.4640 C.2   115  ILE115      0.2592
    130  O         -9.7880   -6.4870  -15.3430 O.2   115  ILE115     -0.2718
    131  CB       -10.6270   -9.1660  -16.0980 C.3   115  ILE115      0.0266
    132  CG1      -12.1490   -8.9590  -16.0680 C.3   115  ILE115      0.0019
    133  CG2      -10.2530  -10.6080  -16.4420 C.3   115  ILE115      0.0020
    134  CD1      -12.8760   -9.4140  -17.3430 C.3   115  ILE115      0.0001
    135  N        -10.5670   -6.9330  -13.2690 N.am  116  ASP116     -0.1960
    136  CA       -10.9890   -5.5500  -12.9660 C.3   116  ASP116      0.1840
    137  C         -9.8950   -4.5570  -12.5580 C.2   116  ASP116      0.2622
    138  O        -10.1610   -3.3640  -12.3900 O.2   116  ASP116     -0.2715
    139  CB       -12.0650   -5.5880  -11.8670 C.3   116  ASP116      0.1450
    140  CG       -11.6060   -6.2980  -10.5980 C.2   116  ASP116      0.3671
    141  OD1      -10.3930   -6.2580  -10.2600 O.co2 116  ASP116     -0.2456
    142  OD2      -12.4670   -6.8930   -9.9150 O.co2 116  ASP116     -0.2456
    143  N         -8.6710   -5.0610  -12.4430 N.am  117  THR117     -0.1951
    144  CA        -7.4760   -4.3420  -12.0170 C.3   117  THR117      0.1897
    145  C         -7.5110   -3.7960  -10.5820 C.2   117  THR117      0.2313
    146  O         -6.6480   -3.0020  -10.2130 O.2   117  THR117     -0.2863
    147  CB        -7.1620   -3.1200  -12.9450 C.3   117  THR117      0.1794
    148  OG1       -7.9200   -1.9690  -12.5430 O.3   117  THR117     -0.2208
    149  CG2       -7.4560   -3.4230  -14.4100 C.3   117  THR117      0.0378
    150  N         -7.5710   -6.3230  -18.0390 N.3   136  PHE136     -0.1241
    151  CA        -7.7990   -5.1390  -18.8570 C.3   136  PHE136      0.1605
    152  C         -6.6750   -4.1090  -18.7200 C.2   136  PHE136      0.2264
    153  O         -6.6120   -3.1600  -19.4980 O.2   136  PHE136     -0.2867
    154  CB        -9.1050   -4.4600  -18.4640 C.3   136  PHE136      0.0534
    155  CG       -10.3100   -4.9550  -19.1950 C.ar  136  PHE136     -0.0203
    156  CD1      -10.6130   -4.4760  -20.4640 C.ar  136  PHE136     -0.0042
    157  CD2      -11.1660   -5.8640  -18.6010 C.ar  136  PHE136     -0.0042
    158  CE1      -11.7470   -4.9070  -21.1280 C.ar  136  PHE136     -0.0003
    159  CE2      -12.3020   -6.3050  -19.2610 C.ar  136  PHE136     -0.0003
    160  CZ       -12.5890   -5.8240  -20.5310 C.ar  136  PHE136     -0.0000
    161  N         -4.4610    0.9920  -20.3500 N.3   152  LEU152     -0.1245
    162  CA        -5.9060    1.0400  -20.1690 C.3   152  LEU152      0.1561
    163  C         -6.5050    2.4050  -20.5250 C.2   152  LEU152      0.2260
    164  O         -7.5950    2.4700  -21.0890 O.2   152  LEU152     -0.2867
    165  CB        -6.2810    0.6760  -18.7300 C.3   152  LEU152      0.0270
    166  CG        -7.7820    0.6030  -18.4140 C.3   152  LEU152      0.0019
    167  CD1       -8.5680   -0.2340  -19.4180 C.3   152  LEU152      0.0001
    168  CD2       -7.9870    0.0420  -17.0150 C.3   152  LEU152      0.0001
    169  N         -7.0690   -9.7580  -21.4750 N.3   178  ILE178     -0.1231
    170  CA        -7.8590  -10.8510  -20.8800 C.3   178  ILE178      0.1692
    171  C         -7.8530  -12.1560  -21.6850 C.2   178  ILE178      0.2592
    172  O         -7.7980  -12.1560  -22.9260 O.2   178  ILE178     -0.2718
    173  CB        -9.3380  -10.4210  -20.6560 C.3   178  ILE178      0.0266
    174  CG1      -10.0660  -10.1730  -21.9830 C.3   178  ILE178      0.0019
    175  CG2       -9.3840   -9.1870  -19.7700 C.3   178  ILE178      0.0020
    176  CD1      -11.5320   -9.8120  -21.8260 C.3   178  ILE178      0.0001
    177  N         -7.9590  -13.2770  -20.9780 N.am  179  VAL179     -0.1966
    178  CA        -7.9990  -14.5640  -21.6530 C.3   179  VAL179      0.1727
    179  C         -9.4030  -14.7940  -22.1950 C.2   179  VAL179      0.2616
    180  O        -10.3650  -14.9120  -21.4320 O.2   179  VAL179     -0.2715
    181  CB        -7.6170  -15.7060  -20.6960 C.3   179  VAL179      0.0290
    182  CG1       -7.6480  -17.0480  -21.4060 C.3   179  VAL179      0.0023
    183  CG2       -6.2400  -15.4600  -20.1060 C.3   179  VAL179      0.0023
    184  N         -9.5070  -14.8740  -23.5200 N.am  180  PHE180     -0.1960
    185  CA       -10.7440  -15.2670  -24.1800 C.3   180  PHE180      0.1771
    186  C        -10.8610  -16.7790  -24.1810 C.2   180  PHE180      0.2619
    187  O         -9.8540  -17.4940  -24.1620 O.2   180  PHE180     -0.2715
    188  CB       -10.8030  -14.7400  -25.6220 C.3   180  PHE180      0.0574
    189  CG       -11.2160  -13.3030  -25.7330 C.ar  180  PHE180     -0.0200
    190  CD1      -10.4220  -12.2960  -25.2160 C.ar  180  PHE180     -0.0042
    191  CD2      -12.3930  -12.9510  -26.3880 C.ar  180  PHE180     -0.0042
    192  CE1      -10.7970  -10.9790  -25.3290 C.ar  180  PHE180     -0.0003
    193  CE2      -12.7680  -11.6340  -26.5030 C.ar  180  PHE180     -0.0003
    194  CZ       -11.9770  -10.6460  -25.9700 C.ar  180  PHE180     -0.0000
    195  N        -12.0930  -17.2700  -24.2210 N.am  181  PHE181     -0.1974
    196  CA       -12.3110  -18.6870  -24.4480 C.3   181  PHE181      0.1639
    197  C        -11.6300  -19.0370  -25.7740 C.2   181  PHE181      0.2290
    198  O        -11.7900  -18.3270  -26.7730 O.2   181  PHE181     -0.2864
    199  CB       -13.8080  -19.0140  -24.4610 C.3   181  PHE181      0.0560
    200  CG       -14.1110  -20.4620  -24.7060 C.ar  181  PHE181     -0.0200
    201  CD1      -14.1390  -21.3660  -23.6610 C.ar  181  PHE181     -0.0042
    202  CD2      -14.3660  -20.9180  -25.9880 C.ar  181  PHE181     -0.0042
    203  CE1      -14.4120  -22.7040  -23.8890 C.ar  181  PHE181     -0.0003
    204  CE2      -14.6410  -22.2510  -26.2250 C.ar  181  PHE181     -0.0003
    205  CZ       -14.6640  -23.1460  -25.1730 C.ar  181  PHE181     -0.0000
@<TRIPOS>BOND
     1    65    66    1
     2    69    66    1
     3    69    70    1
     4    46    47    1
     5    66    67    1
     6   198   197    2
     7    47    48    1
     8    47    50    1
     9    67    68    2
    10    53    51    1
    11   193   191   ar
    12   193   194   ar
    13   191   189   ar
    14    72    70   ar
    15    72    74   ar
    16    70    71   ar
    17   204   202   ar
    18   204   205   ar
    19    48    49    2
    20    48    54   am
    21   202   200   ar
    22   194   192   ar
    23    56    57    2
    24    56    55    1
    25   197   196    1
    26   189   188    1
    27   189   190   ar
    28    54    55    1
    29    50    51    1
    30    50    52    1
    31   188   185    1
    32   192   190   ar
    33    74    75   ar
    34    76    77    1
    35   205   203   ar
    36    71    73   ar
    37    55    58    1
    38   200   199    1
    39   200   201   ar
    40   199   196    1
    41   196   195    1
    42   195   186   am
    43   186   185    1
    44   186   187    2
    45   185   184    1
    46    75    73   ar
    47    80    77    1
    48    80    81    1
    49    58    59    1
    50   203   201   ar
    51    77    78    1
    52   184   179   am
    53    84    78   am
    54    84    85    1
    55    88    85    1
    56   172   171    2
    57    59    61   ar
    58    59    60   ar
    59    78    79    2
    60    61    63   ar
    61    83    81    1
    62    81    82    1
    63    85    86    1
    64   179   178    1
    65   179   180    2
    66    60    62   ar
    67   174   176    1
    68   174   173    1
    69    86    87    2
    70    63    64   ar
    71   171   177   am
    72   171   170    1
    73   178   177    1
    74   178   181    1
    75   169   170    1
    76   182   181    1
    77   158   160   ar
    78   158   156   ar
    79   164   163    2
    80    62    64   ar
    81   170   173    1
    82   181   183    1
    83   173   175    1
    84   160   159   ar
    85   163   162    1
    86   156   155   ar
    87    41    40    2
    88   161   162    1
    89   162   165    1
    90    44    43    1
    91    40    39    1
    92    43    45    1
    93    43    42    1
    94   153   152    2
    95   167   166    1
    96   104   106   ar
    97   104   102   ar
    98    89    90    1
    99   106   107   ar
   100   159   157   ar
   101   155   157   ar
   102   155   154    1
   103    94    95    1
   104    94    93    1
   105    94    96    1
   106   151   152    1
   107   151   154    1
   108   151   150    1
   109   165   166    1
   110   101   102    1
   111   101    98    1
   112   166   168    1
   113   102   103   ar
   114   107   108    1
   115   107   105   ar
   116    39    42    1
   117    39    38    1
   118    93    90    1
   119    90    91    1
   120    97    98    1
   121    97    91   am
   122    25    23   ar
   123    25    26   ar
   124    98    99    1
   125    91    92    2
   126   103   105   ar
   127   134   132    1
   128    23    21   ar
   129    26    24   ar
   130    37    35    1
   131   133   131    1
   132    21    20    1
   133    21    22   ar
   134    24    22   ar
   135    99   100    2
   136    99   109   am
   137   131   132    1
   138   131   128    1
   139    20    17    1
   140    19    18    2
   141    35    34    2
   142    35    36    1
   143    34    33    1
   144   130   129    2
   145   109   115    1
   146   109   110    1
   147   115   114    1
   148    18    17    1
   149    18    27   am
   150    32    33    1
   151    32    31    1
   152    17    16    1
   153   128   129    1
   154   128   127    1
   155   129   135   am
   156   149   147    1
   157    28    27    1
   158    28    31    1
   159    28    29    1
   160   112   111    2
   161   126   124   ar
   162   126   125   ar
   163   124   122   ar
   164    30    29    2
   165   110   111    1
   166   110   113    1
   167   114   113    1
   168   125   123   ar
   169   135   136    1
   170   136   137    1
   171   136   139    1
   172   147   148    1
   173   147   144    1
   174   137   143   am
   175   137   138    2
   176   122   121   ar
   177   143   144    1
   178   144   145    1
   179   123   121   ar
   180   139   140    1
   181    12    11    2
   182   121   120    1
   183     7     5    1
   184    14    15    1
   185    14    13    1
   186    15     9    1
   187    11    10    1
   188    13    10    1
   189   140   141   ar
   190   140   142   ar
   191   145   146    2
   192     8     6    1
   193   120   117    1
   194     9    10    1
   195     9     3   am
   196     6     5    1
   197     5     2    1
   198   116   117    1
   199     2     3    1
   200     2     1    1
   201     3     4    2
   202   117   118    1
   203   118   119    2
