@<TRIPOS>MOLECULE
tmp/5yqnA00.pdb
 256 251 0 0 0
SMALL
GASTEIGER

@<TRIPOS>ATOM
      1  N        -18.7900   -4.5320   -8.6650 N.3    43  ILE43      -0.1231
      2  CA       -18.4120   -5.2700   -9.8660 C.3    43  ILE43       0.1678
      3  C        -19.0400   -6.6650   -9.8370 C.2    43  ILE43       0.2434
      4  O        -18.6150   -7.5400   -9.0780 O.2    43  ILE43      -0.2733
      5  CB       -16.8810   -5.3590  -10.0110 C.3    43  ILE43       0.0265
      6  CG1      -16.3150   -3.9430  -10.1710 C.3    43  ILE43       0.0019
      7  CG2      -16.5110   -6.2370  -11.2140 C.3    43  ILE43       0.0020
      8  CD1      -14.8410   -3.8640  -10.4060 C.3    43  ILE43       0.0001
      9  N        -20.0810   -6.8760  -10.6470 N.am   44  PRO44      -0.2729
     10  CA       -20.7340   -8.1830  -10.5980 C.3    44  PRO44       0.1401
     11  C        -19.8340   -9.3400  -11.0020 C.2    44  PRO44       0.2269
     12  O        -18.9050   -9.1960  -11.8050 O.2    44  PRO44      -0.2865
     13  CB       -21.8880   -8.0350  -11.5970 C.3    44  PRO44       0.0296
     14  CG       -22.1400   -6.5830  -11.6710 C.3    44  PRO44       0.0237
     15  CD       -20.8070   -5.9340  -11.5170 C.3    44  PRO44       0.0939
     16  N        -19.7870  -12.1150  -13.1960 N.3    46  PHE46      -0.1227
     17  CA       -20.5720  -12.4150  -14.3870 C.3    46  PHE46       0.1736
     18  C        -20.8770  -13.9080  -14.4820 C.2    46  PHE46       0.2595
     19  O        -21.6540  -14.3310  -15.3370 O.2    46  PHE46      -0.2718
     20  CB       -19.8520  -11.9380  -15.6480 C.3    46  PHE46       0.0547
     21  CG       -18.7350  -12.8340  -16.0870 C.ar   46  PHE46      -0.0202
     22  CD1      -18.9660  -13.8630  -16.9880 C.ar   46  PHE46      -0.0042
     23  CD2      -17.4520  -12.6430  -15.6090 C.ar   46  PHE46      -0.0042
     24  CE1      -17.9370  -14.6870  -17.3980 C.ar   46  PHE46      -0.0003
     25  CE2      -16.4180  -13.4630  -16.0170 C.ar   46  PHE46      -0.0003
     26  CZ       -16.6610  -14.4850  -16.9140 C.ar   46  PHE46      -0.0000
     27  N        -20.2690  -14.6990  -13.6010 N.am   47  ARG47      -0.1980
     28  CA       -20.5680  -16.1240  -13.5230 C.3    47  ARG47       0.1597
     29  C        -21.7500  -16.3870  -12.5930 C.2    47  ARG47       0.2287
     30  O        -22.4340  -17.3980  -12.7310 O.2    47  ARG47      -0.2864
     31  CB       -19.3390  -16.9040  -13.0620 C.3    47  ARG47       0.0334
     32  CG       -18.1780  -16.8310  -14.0390 C.3    47  ARG47       0.0492
     33  CD       -17.0540  -17.7730  -13.6390 C.3    47  ARG47       0.2205
     34  NE       -16.0640  -17.9320  -14.7030 N.pl3  47  ARG47      -0.0865
     35  CZ       -15.0090  -17.1410  -14.8830 C.cat  47  ARG47       0.5346
     36  NH1      -14.7890  -16.1120  -14.0760 N.pl3  47  ARG47       0.1354
     37  NH2      -14.1700  -17.3780  -15.8830 N.pl3  47  ARG47       0.1354
     38  N        -17.1800  -14.0780  -25.9000 N.3    58  PHE58      -0.1241
     39  CA       -15.8970  -14.2540  -25.1990 C.3    58  PHE58       0.1605
     40  C        -14.9100  -15.1510  -25.9430 C.2    58  PHE58       0.2264
     41  O        -13.8230  -15.4220  -25.4330 O.2    58  PHE58      -0.2867
     42  CB       -16.0860  -14.8610  -23.8050 C.3    58  PHE58       0.0534
     43  CG       -17.3540  -14.4670  -23.1190 C.ar   58  PHE58      -0.0203
     44  CD1      -17.4720  -13.2370  -22.4920 C.ar   58  PHE58      -0.0042
     45  CD2      -18.4190  -15.3510  -23.0600 C.ar   58  PHE58      -0.0042
     46  CE1      -18.6380  -12.8860  -21.8420 C.ar   58  PHE58      -0.0003
     47  CE2      -19.5890  -15.0060  -22.4130 C.ar   58  PHE58      -0.0003
     48  CZ       -19.7000  -13.7730  -21.8020 C.ar   58  PHE58      -0.0000
     49  N        -18.2540   -7.6630  -28.4870 N.3    70  PHE70      -0.1241
     50  CA       -17.4750   -7.6260  -27.2550 C.3    70  PHE70       0.1605
     51  C        -17.3010   -6.2070  -26.7330 C.2    70  PHE70       0.2264
     52  O        -17.4890   -5.9570  -25.5370 O.2    70  PHE70      -0.2867
     53  CB       -16.0910   -8.2590  -27.4410 C.3    70  PHE70       0.0534
     54  CG       -15.1880   -8.0420  -26.2570 C.ar   70  PHE70      -0.0203
     55  CD1      -15.2430   -8.8890  -25.1610 C.ar   70  PHE70      -0.0042
     56  CD2      -14.3310   -6.9600  -26.2180 C.ar   70  PHE70      -0.0042
     57  CE1      -14.4310   -8.6750  -24.0610 C.ar   70  PHE70      -0.0003
     58  CE2      -13.5180   -6.7440  -25.1210 C.ar   70  PHE70      -0.0003
     59  CZ       -13.5770   -7.5990  -24.0460 C.ar   70  PHE70      -0.0000
     60  N        -20.5030   -4.7630  -25.3740 N.3    73  LEU73      -0.1231
     61  CA       -20.7140   -5.3340  -24.0490 C.3    73  LEU73       0.1693
     62  C        -19.7510   -4.7320  -23.0290 C.2    73  LEU73       0.2591
     63  O        -20.1000   -4.5580  -21.8610 O.2    73  LEU73      -0.2718
     64  CB       -20.5490   -6.8540  -24.0950 C.3    73  LEU73       0.0284
     65  CG       -20.8360   -7.6250  -22.8030 C.3    73  LEU73       0.0019
     66  CD1      -22.3100   -7.5310  -22.4250 C.3    73  LEU73       0.0001
     67  CD2      -20.4120   -9.0770  -22.9400 C.3    73  LEU73       0.0001
     68  N        -18.5390   -4.4130  -23.4760 N.am   74  ALA74      -0.1980
     69  CA       -17.5360   -3.8200  -22.6030 C.3    74  ALA74       0.1597
     70  C        -17.9540   -2.4240  -22.1400 C.2    74  ALA74       0.2287
     71  O        -17.6770   -2.0330  -21.0100 O.2    74  ALA74      -0.2864
     72  CB       -16.1870   -3.7650  -23.3140 C.3    74  ALA74       0.0319
     73  N        -20.8800   -2.9190  -19.5380 N.3    77  LEU77      -0.1231
     74  CA       -20.4250   -3.5410  -18.2990 C.3    77  LEU77       0.1693
     75  C        -19.3290   -2.7460  -17.5910 C.2    77  LEU77       0.2592
     76  O        -18.8980   -3.1230  -16.5010 O.2    77  LEU77      -0.2718
     77  CB       -19.9070   -4.9570  -18.5740 C.3    77  LEU77       0.0284
     78  CG       -20.8810   -6.0270  -19.0630 C.3    77  LEU77       0.0019
     79  CD1      -20.1220   -7.3260  -19.2770 C.3    77  LEU77       0.0001
     80  CD2      -22.0300   -6.2370  -18.0950 C.3    77  LEU77       0.0001
     81  N        -18.8750   -1.6560  -18.1990 N.am   78  TYR78      -0.1963
     82  CA       -17.7530   -0.8970  -17.6560 C.3    78  TYR78       0.1756
     83  C        -18.1060   -0.3120  -16.2900 C.2    78  TYR78       0.2461
     84  O        -19.0950    0.4060  -16.1700 O.2    78  TYR78      -0.2730
     85  CB       -17.3470    0.2280  -18.6070 C.3    78  TYR78       0.0574
     86  CG       -15.8850    0.6160  -18.5070 C.ar   78  TYR78      -0.0198
     87  CD1      -15.4220    1.3970  -17.4600 C.ar   78  TYR78      -0.0009
     88  CD2      -14.9660    0.1920  -19.4600 C.ar   78  TYR78      -0.0009
     89  CE1      -14.0940    1.7510  -17.3630 C.ar   78  TYR78       0.0417
     90  CE2      -13.6330    0.5420  -19.3720 C.ar   78  TYR78       0.0417
     91  CZ       -13.1970    1.3210  -18.3220 C.ar   78  TYR78       0.1957
     92  OH       -11.8640    1.6810  -18.2240 O.3    78  TYR78      -0.2866
     93  N        -17.3000   -0.6120  -15.2550 N.am   79  PRO79      -0.2727
     94  CA       -17.6210   -0.0730  -13.9260 C.3    79  PRO79       0.1402
     95  C        -17.7010    1.4490  -13.8950 C.2    79  PRO79       0.2269
     96  O        -16.9380    2.1270  -14.5760 O.2    79  PRO79      -0.2865
     97  CB       -16.4560   -0.5630  -13.0550 C.3    79  PRO79       0.0296
     98  CG       -15.9450   -1.7720  -13.7510 C.3    79  PRO79       0.0237
     99  CD       -16.1090   -1.4800  -15.2160 C.3    79  PRO79       0.0939
    100  N        -13.8430    2.6850   -9.7050 N.3    82  PHE82      -0.1241
    101  CA       -12.9060    1.6370   -9.3190 C.3    82  PHE82       0.1605
    102  C        -12.3970    1.8770   -7.9090 C.2    82  PHE82       0.2264
    103  O        -11.3380    2.4750   -7.7180 O.2    82  PHE82      -0.2867
    104  CB       -11.7530    1.5750  -10.3120 C.3    82  PHE82       0.0534
    105  CG       -12.1620    1.0750  -11.6620 C.ar   82  PHE82      -0.0203
    106  CD1      -12.6620    1.9450  -12.6220 C.ar   82  PHE82      -0.0042
    107  CD2      -12.0730   -0.2700  -11.9670 C.ar   82  PHE82      -0.0042
    108  CE1      -13.0490    1.4780  -13.8600 C.ar   82  PHE82      -0.0003
    109  CE2      -12.4560   -0.7430  -13.2020 C.ar   82  PHE82      -0.0003
    110  CZ       -12.9480    0.1320  -14.1520 C.ar   82  PHE82      -0.0000
    111  N         -8.2620  -14.2540  -10.3120 N.3   106  GLN106     -0.1245
    112  CA        -9.0880  -14.5560  -11.4780 C.3   106  GLN106      0.1566
    113  C         -9.7660  -13.3200  -12.0590 C.2   106  GLN106      0.2260
    114  O        -10.4100  -13.4020  -13.1060 O.2   106  GLN106     -0.2867
    115  CB       -10.1590  -15.5660  -11.1000 C.3   106  GLN106      0.0367
    116  CG        -9.6080  -16.8750  -10.6070 C.3   106  GLN106      0.0905
    117  CD       -10.6770  -17.7170   -9.9690 C.2   106  GLN106      0.2608
    118  OE1      -11.1500  -17.4130   -8.8740 O.2   106  GLN106     -0.2717
    119  NE2      -11.0790  -18.7680  -10.6510 N.am  106  GLN106     -0.0878
    120  N        -10.3860   -9.4390  -13.6080 N.3   108  ILE108     -0.1231
    121  CA        -9.8360   -8.6250  -14.6900 C.3   108  ILE108      0.1692
    122  C        -10.0830   -7.1340  -14.4460 C.2   108  ILE108      0.2592
    123  O         -9.7780   -6.2910  -15.3050 O.2   108  ILE108     -0.2718
    124  CB       -10.4260   -9.0580  -16.0600 C.3   108  ILE108      0.0266
    125  CG1      -11.9530   -8.9380  -16.0670 C.3   108  ILE108      0.0019
    126  CG2       -9.9940  -10.4910  -16.3820 C.3   108  ILE108      0.0020
    127  CD1      -12.6030   -9.3210  -17.3880 C.3   108  ILE108      0.0001
    128  N        -10.5790   -6.7990  -13.2510 N.am  109  ASP109     -0.1960
    129  CA       -11.0330   -5.4380  -12.9560 C.3   109  ASP109      0.1840
    130  C         -9.9470   -4.4370  -12.5330 C.2   109  ASP109      0.2622
    131  O        -10.2330   -3.2570  -12.3890 O.2   109  ASP109     -0.2715
    132  CB       -12.1330   -5.4750  -11.8690 C.3   109  ASP109      0.1450
    133  CG       -11.6920   -6.1740  -10.5810 C.2   109  ASP109      0.3671
    134  OD1      -10.4970   -6.0970  -10.2130 O.co2 109  ASP109     -0.2456
    135  OD2      -12.5610   -6.8030   -9.9440 O.co2 109  ASP109     -0.2456
    136  N         -8.7090   -4.9070  -12.3560 N.am  110  THR110     -0.1951
    137  CA        -7.5420   -4.0990  -11.9480 C.3   110  THR110      0.1897
    138  C         -7.5700   -3.5570  -10.5160 C.2   110  THR110      0.2313
    139  O         -6.6940   -2.7870  -10.1350 O.2   110  THR110     -0.2863
    140  CB        -7.2880   -2.8720  -12.8890 C.3   110  THR110      0.1794
    141  OG1       -8.0930   -1.7400  -12.5070 O.3   110  THR110     -0.2208
    142  CG2       -7.5290   -3.2260  -14.3540 C.3   110  THR110      0.0378
    143  N         -6.3300  -14.8660  -15.2990 N.3   126  HIS126     -0.1241
    144  CA        -7.2720  -14.7470  -16.4050 C.3   126  HIS126      0.1621
    145  C         -7.0330  -13.4650  -17.1920 C.2   126  HIS126      0.2264
    146  O         -7.8940  -13.0170  -17.9450 O.2   126  HIS126     -0.2867
    147  CB        -8.7110  -14.8120  -15.8750 C.3   126  HIS126      0.0745
    148  CG        -9.0570  -16.1240  -15.2490 C.ar  126  HIS126      0.0817
    149  ND1      -10.2410  -16.3420  -14.5790 N.ar  126  HIS126     -0.2268
    150  CD2       -8.3770  -17.2950  -15.2030 C.ar  126  HIS126      0.1154
    151  CE1      -10.2730  -17.5880  -14.1390 C.ar  126  HIS126      0.1986
    152  NE2       -9.1530  -18.1880  -14.5030 N.ar  126  HIS126     -0.2212
    153  N         -7.8030   -6.1190  -17.9090 N.3   129  PHE129     -0.1241
    154  CA        -8.0580   -4.9390  -18.7310 C.3   129  PHE129      0.1605
    155  C         -6.9710   -3.8780  -18.5920 C.2   129  PHE129      0.2264
    156  O         -6.9790   -2.8920  -19.3180 O.2   129  PHE129     -0.2867
    157  CB        -9.4030   -4.2990  -18.3560 C.3   129  PHE129      0.0534
    158  CG       -10.5810   -4.8450  -19.0990 C.ar  129  PHE129     -0.0203
    159  CD1      -10.8990   -4.3650  -20.3610 C.ar  129  PHE129     -0.0042
    160  CD2      -11.3990   -5.8040  -18.5280 C.ar  129  PHE129     -0.0042
    161  CE1      -11.9940   -4.8470  -21.0410 C.ar  129  PHE129     -0.0003
    162  CE2      -12.4950   -6.2930  -19.2140 C.ar  129  PHE129     -0.0003
    163  CZ       -12.7900   -5.8150  -20.4710 C.ar  129  PHE129     -0.0000
    164  N         -5.0410    1.2620  -20.2760 N.3   145  LEU145     -0.1245
    165  CA        -6.4840    1.2340  -20.1310 C.3   145  LEU145      0.1561
    166  C         -7.1150    2.6100  -20.3970 C.2   145  LEU145      0.2260
    167  O         -8.2560    2.6900  -20.8550 O.2   145  LEU145     -0.2867
    168  CB        -6.8600    0.7400  -18.7340 C.3   145  LEU145      0.0270
    169  CG        -8.3550    0.6380  -18.4390 C.3   145  LEU145      0.0019
    170  CD1       -9.0840   -0.2720  -19.4120 C.3   145  LEU145      0.0001
    171  CD2       -8.5690    0.1800  -16.9980 C.3   145  LEU145      0.0001
    172  N        -13.6200    2.5350  -25.9990 N.3   152  ILE152     -0.1245
    173  CA       -14.8250    1.8140  -25.6230 C.3   152  ILE152      0.1561
    174  C        -16.0250    2.7570  -25.4750 C.2   152  ILE152      0.2260
    175  O        -17.1270    2.4360  -25.9250 O.2   152  ILE152     -0.2867
    176  CB       -14.5950    1.0200  -24.3140 C.3   152  ILE152      0.0252
    177  CG1      -13.6460   -0.1490  -24.5970 C.3   152  ILE152      0.0019
    178  CG2      -15.9060    0.4710  -23.7620 C.3   152  ILE152      0.0019
    179  CD1      -13.1020   -0.8370  -23.3560 C.3   152  ILE152      0.0001
    180  N         -7.1070   -9.7100  -21.5150 N.3   171  ILE171     -0.1231
    181  CA        -7.8520  -10.7330  -20.8060 C.3   171  ILE171      0.1692
    182  C         -7.7870  -12.0300  -21.6010 C.2   171  ILE171      0.2592
    183  O         -7.6680  -12.0230  -22.8290 O.2   171  ILE171     -0.2718
    184  CB        -9.3230  -10.3040  -20.5560 C.3   171  ILE171      0.0266
    185  CG1      -10.0810  -10.1360  -21.8760 C.3   171  ILE171      0.0019
    186  CG2       -9.3500   -9.0140  -19.7340 C.3   171  ILE171      0.0020
    187  CD1      -11.5370   -9.7180  -21.7010 C.3   171  ILE171      0.0001
    188  N         -7.8500  -13.1540  -20.9010 N.am  172  VAL172     -0.1966
    189  CA        -7.8370  -14.4470  -21.5550 C.3   172  VAL172      0.1727
    190  C         -9.2320  -14.7760  -22.0860 C.2   172  VAL172      0.2616
    191  O        -10.1330  -15.0990  -21.3170 O.2   172  VAL172     -0.2715
    192  CB        -7.3710  -15.5520  -20.5930 C.3   172  VAL172      0.0290
    193  CG1       -7.3330  -16.9010  -21.2900 C.3   172  VAL172      0.0023
    194  CG2       -6.0050  -15.2040  -20.0270 C.3   172  VAL172      0.0023
    195  N         -9.4010  -14.6740  -23.3990 N.am  173  PHE173     -0.1960
    196  CA       -10.6230  -15.1240  -24.0520 C.3   173  PHE173      0.1771
    197  C        -10.6740  -16.6390  -24.0550 C.2   173  PHE173      0.2619
    198  O         -9.6410  -17.2970  -23.9460 O.2   173  PHE173     -0.2715
    199  CB       -10.6980  -14.5990  -25.4870 C.3   173  PHE173      0.0574
    200  CG       -11.1460  -13.1800  -25.5880 C.ar  173  PHE173     -0.0200
    201  CD1      -10.4270  -12.1660  -24.9890 C.ar  173  PHE173     -0.0042
    202  CD2      -12.2860  -12.8480  -26.3020 C.ar  173  PHE173     -0.0042
    203  CE1      -10.8410  -10.8510  -25.0880 C.ar  173  PHE173     -0.0003
    204  CE2      -12.6940  -11.5370  -26.3990 C.ar  173  PHE173     -0.0003
    205  CZ       -11.9710  -10.5390  -25.7990 C.ar  173  PHE173     -0.0000
    206  N        -11.8760  -17.1960  -24.1830 N.am  174  PHE174     -0.1974
    207  CA       -12.0040  -18.6300  -24.4330 C.3   174  PHE174      0.1639
    208  C        -11.2410  -18.9690  -25.7030 C.2   174  PHE174      0.2290
    209  O        -11.3080  -18.2360  -26.6890 O.2   174  PHE174     -0.2864
    210  CB       -13.4720  -19.0460  -24.5610 C.3   174  PHE174      0.0560
    211  CG       -14.2940  -18.7750  -23.3320 C.ar  174  PHE174     -0.0200
    212  CD1      -13.6900  -18.5030  -22.1130 C.ar  174  PHE174     -0.0042
    213  CD2      -15.6760  -18.7980  -23.3960 C.ar  174  PHE174     -0.0042
    214  CE1      -14.4500  -18.2560  -20.9870 C.ar  174  PHE174     -0.0003
    215  CE2      -16.4410  -18.5550  -22.2710 C.ar  174  PHE174     -0.0003
    216  CZ       -15.8270  -18.2820  -21.0670 C.ar  174  PHE174     -0.0000
    217  N         -7.9800  -19.0580  -25.6760 N.3   176  GLU176     -0.1245
    218  CA        -6.6180  -18.6140  -25.3830 C.3   176  GLU176      0.1567
    219  C         -6.0330  -19.3810  -24.2060 C.2   176  GLU176      0.2260
    220  O         -6.7560  -19.8020  -23.3000 O.2   176  GLU176     -0.2867
    221  CB        -6.5730  -17.1160  -25.0800 C.3   176  GLU176      0.0388
    222  CG        -6.9330  -16.2260  -26.2520 C.3   176  GLU176      0.1160
    223  CD        -6.5470  -14.7780  -26.0210 C.2   176  GLU176      0.3649
    224  OE1       -7.3040  -14.0540  -25.3480 O.co2 176  GLU176     -0.2457
    225  OE2       -5.4820  -14.3640  -26.5180 O.co2 176  GLU176     -0.2457
    226  N         -3.8190  -19.6840  -20.7330 N.3   178  LEU178     -0.1245
    227  CA        -3.5450  -18.8010  -19.6120 C.3   178  LEU178      0.1561
    228  C         -2.1340  -18.2490  -19.8150 C.2   178  LEU178      0.2260
    229  O         -1.3330  -18.8510  -20.5270 O.2   178  LEU178     -0.2867
    230  CB        -3.6630  -19.5210  -18.2680 C.3   178  LEU178      0.0270
    231  CG        -5.0410  -20.0110  -17.8050 C.3   178  LEU178      0.0019
    232  CD1       -5.0330  -20.1910  -16.2970 C.3   178  LEU178      0.0001
    233  CD2       -6.1690  -19.0860  -18.2150 C.3   178  LEU178      0.0001
    234  N        -13.3680  -23.0090  -11.5380 N.3   205  VAL205     -0.1231
    235  CA       -12.7390  -22.7730  -12.8360 C.3   205  VAL205      0.1692
    236  C        -11.3150  -23.3050  -12.8390 C.2   205  VAL205      0.2592
    237  O        -10.5430  -23.0010  -11.9350 O.2   205  VAL205     -0.2718
    238  CB       -12.7190  -21.2720  -13.1980 C.3   205  VAL205      0.0266
    239  CG1      -12.1490  -21.0650  -14.6010 C.3   205  VAL205      0.0020
    240  CG2      -14.1180  -20.6790  -13.1000 C.3   205  VAL205      0.0020
    241  N        -10.9720  -24.0960  -13.8550 N.am  206  GLN206     -0.1966
    242  CA        -9.6390  -24.6750  -13.9770 C.3   206  GLN206      0.1718
    243  C         -8.8400  -23.9560  -15.0580 C.2   206  GLN206      0.2458
    244  O         -9.4160  -23.3930  -15.9910 O.2   206  GLN206     -0.2730
    245  CB        -9.7300  -26.1720  -14.3000 C.3   206  GLN206      0.0407
    246  CG       -10.3260  -27.0220  -13.1840 C.3   206  GLN206      0.0908
    247  CD        -9.4120  -27.1520  -11.9810 C.2   206  GLN206      0.2608
    248  OE1       -8.2710  -26.6870  -11.9940 O.2   206  GLN206     -0.2717
    249  NE2       -9.9120  -27.7850  -10.9290 N.am  206  GLN206     -0.0878
    250  N         -7.5040  -23.9770  -14.9500 N.am  207  PRO207     -0.2727
    251  CA        -6.7050  -24.6500  -13.9200 C.3   207  PRO207      0.1402
    252  C         -6.5280  -23.8610  -12.6170 C.2   207  PRO207      0.2269
    253  O         -5.8380  -24.3420  -11.7110 O.2   207  PRO207     -0.2865
    254  CB        -5.3490  -24.8320  -14.6090 C.3   207  PRO207      0.0296
    255  CG        -5.2560  -23.6710  -15.5390 C.3   207  PRO207      0.0237
    256  CD        -6.6600  -23.4460  -16.0370 C.3   207  PRO207      0.0939
@<TRIPOS>BOND
     1    49    50    1
     2    53    50    1
     3    53    54    1
     4    50    51    1
     5    51    52    2
     6   209   208    2
     7   225   223   ar
     8   204   202   ar
     9   204   205   ar
    10   202   200   ar
    11    54    56   ar
    12    54    55   ar
    13   222   223    1
    14   222   221    1
    15    56    58   ar
    16   223   224   ar
    17   172   173    1
    18    40    41    2
    19    40    39    1
    20   175   174    2
    21    38    39    1
    22   205   203   ar
    23   208   207    1
    24   217   218    1
    25   173   174    1
    26   173   176    1
    27   200   199    1
    28   200   201   ar
    29   199   196    1
    30   218   221    1
    31   218   219    1
    32    60    61    1
    33    39    42    1
    34    55    57   ar
    35    58    59   ar
    36   203   201   ar
    37   177   176    1
    38   177   179    1
    39   210   207    1
    40   210   211    1
    41   207   206    1
    42   176   178    1
    43   219   220    2
    44   206   197   am
    45    64    61    1
    46    64    65    1
    47    57    59   ar
    48   197   196    1
    49   197   198    2
    50   196   195    1
    51    61    62    1
    52    42    43    1
    53    68    62   am
    54    68    69    1
    55   195   190   am
    56   213   211   ar
    57   213   215   ar
    58   211   212   ar
    59    72    69    1
    60    43    45   ar
    61    43    44   ar
    62    45    47   ar
    63    62    63    2
    64    67    65    1
    65   183   182    2
    66    65    66    1
    67    69    70    1
    68    44    46   ar
    69    47    48   ar
    70   215   216   ar
    71    70    71    2
    72   212   214   ar
    73   190   189    1
    74   190   191    2
    75   185   187    1
    76   185   184    1
    77    46    48   ar
    78   182   188   am
    79   182   181    1
    80   189   188    1
    81   189   192    1
    82   180   181    1
    83   193   192    1
    84   216   214   ar
    85   161   163   ar
    86   161   159   ar
    87   167   166    2
    88   181   184    1
    89   226   227    1
    90   192   194    1
    91   184   186    1
    92   229   228    2
    93   163   162   ar
    94   166   165    1
    95   159   158   ar
    96   164   165    1
    97   165   168    1
    98   228   227    1
    99   227   230    1
   100    73    74    1
   101    88    90   ar
   102    88    86   ar
   103   170   169    1
   104    90    91   ar
   105   156   155    2
   106    79    78    1
   107   162   160   ar
   108   158   160   ar
   109   158   157    1
   110    78    77    1
   111    78    80    1
   112   168   169    1
   113   154   155    1
   114   154   157    1
   115   154   153    1
   116    85    86    1
   117    85    82    1
   118    77    74    1
   119    86    87   ar
   120   169   171    1
   121    91    92    1
   122    91    89   ar
   123    74    75    1
   124   230   231    1
   125   233   231    1
   126    81    82    1
   127    81    75   am
   128   146   145    2
   129   231   232    1
   130    82    83    1
   131    75    76    2
   132    87    89   ar
   133    24    22   ar
   134    24    26   ar
   135   127   125    1
   136   145   144    1
   137    22    21   ar
   138    26    25   ar
   139   144   147    1
   140   144   143    1
   141   126   124    1
   142    83    84    2
   143    83    93   am
   144    21    20    1
   145    21    23   ar
   146   125   124    1
   147   124   121    1
   148   256   255    1
   149   256   250    1
   150    25    23   ar
   151   244   243    2
   152    37    35    1
   153   147   148    1
   154    20    17    1
   155   255   254    1
   156    19    18    2
   157   123   122    2
   158    93    99    1
   159    93    94    1
   160   148   150   ar
   161   148   149   ar
   162    99    98    1
   163   150   152   ar
   164   243   250   am
   165   243   242    1
   166   250   251    1
   167    35    34    2
   168    35    36    1
   169    34    33    1
   170   121   122    1
   171   121   120    1
   172   254   251    1
   173   239   238    1
   174   149   151   ar
   175    96    95    2
   176   152   151   ar
   177    18    17    1
   178    18    27   am
   179   122   128   am
   180    17    16    1
   181   142   140    1
   182   245   242    1
   183   245   246    1
   184   110   108   ar
   185   110   109   ar
   186    32    33    1
   187    32    31    1
   188   242   241    1
   189    94    95    1
   190    94    97    1
   191   251   252    1
   192   108   106   ar
   193   241   236   am
   194    98    97    1
   195    27    28    1
   196    28    31    1
   197    28    29    1
   198   128   129    1
   199   109   107   ar
   200   238   240    1
   201   238   235    1
   202   246   247    1
   203   114   113    2
   204   129   130    1
   205   129   132    1
   206   140   141    1
   207   140   137    1
   208   236   235    1
   209   236   237    2
   210   235   234    1
   211    30    29    2
   212   106   105   ar
   213   252   253    2
   214   130   131    2
   215   130   136   am
   216   136   137    1
   217   113   112    1
   218   248   247    2
   219   247   249   am
   220   107   105   ar
   221   137   138    1
   222   132   133    1
   223    12    11    2
   224    14    13    1
   225    14    15    1
   226   105   104    1
   227    13    10    1
   228    15     9    1
   229   112   115    1
   230   112   111    1
   231     7     5    1
   232   115   116    1
   233    11    10    1
   234   119   117   am
   235     9    10    1
   236     9     3   am
   237   116   117    1
   238   133   134   ar
   239   133   135   ar
   240   138   139    2
   241     8     6    1
   242   104   101    1
   243     6     5    1
   244     5     2    1
   245   117   118    2
   246     2     3    1
   247     2     1    1
   248     3     4    2
   249   100   101    1
   250   101   102    1
   251   102   103    2
