@<TRIPOS>MOLECULE
tmp/5yqoA00.pdb
 256 251 0 0 0
SMALL
GASTEIGER

@<TRIPOS>ATOM
      1  N        -18.7420   -4.3760   -8.6760 N.3    43  ILE43      -0.1231
      2  CA       -18.3720   -5.1040   -9.8850 C.3    43  ILE43       0.1678
      3  C        -18.9990   -6.5000   -9.8460 C.2    43  ILE43       0.2434
      4  O        -18.5460   -7.3710   -9.1150 O.2    43  ILE43      -0.2733
      5  CB       -16.8450   -5.1540  -10.0500 C.3    43  ILE43       0.0265
      6  CG1      -16.3300   -3.7070  -10.1500 C.3    43  ILE43       0.0019
      7  CG2      -16.4620   -5.9960  -11.2910 C.3    43  ILE43       0.0020
      8  CD1      -14.8890   -3.5450  -10.4740 C.3    43  ILE43       0.0001
      9  N        -20.0880   -6.7050  -10.6000 N.am   44  PRO44      -0.2729
     10  CA       -20.7440   -8.0110  -10.5110 C.3    44  PRO44       0.1401
     11  C        -19.8920   -9.1300  -11.0870 C.2    44  PRO44       0.2269
     12  O        -19.0630   -8.8960  -11.9630 O.2    44  PRO44      -0.2865
     13  CB       -22.0150   -7.8300  -11.3570 C.3    44  PRO44       0.0296
     14  CG       -22.2120   -6.3610  -11.4650 C.3    44  PRO44       0.0237
     15  CD       -20.8400   -5.7730  -11.4570 C.3    44  PRO44       0.0939
     16  N        -19.6550  -11.9490  -13.4750 N.3    46  PHE46      -0.1227
     17  CA       -20.3800  -12.3050  -14.6910 C.3    46  PHE46       0.1736
     18  C        -20.6650  -13.8080  -14.7710 C.2    46  PHE46       0.2595
     19  O        -21.3260  -14.2640  -15.7040 O.2    46  PHE46      -0.2718
     20  CB       -19.6520  -11.8030  -15.9470 C.3    46  PHE46       0.0547
     21  CG       -18.5020  -12.6680  -16.3860 C.ar   46  PHE46      -0.0202
     22  CD1      -18.7060  -13.7220  -17.2620 C.ar   46  PHE46      -0.0042
     23  CD2      -17.2150  -12.4100  -15.9470 C.ar   46  PHE46      -0.0042
     24  CE1      -17.6530  -14.5130  -17.6750 C.ar   46  PHE46      -0.0003
     25  CE2      -16.1570  -13.1990  -16.3580 C.ar   46  PHE46      -0.0003
     26  CZ       -16.3770  -14.2510  -17.2240 C.ar   46  PHE46      -0.0000
     27  N        -20.1780  -14.5660  -13.7900 N.am   47  ARG47      -0.1980
     28  CA       -20.5240  -15.9810  -13.6660 C.3    47  ARG47       0.1597
     29  C        -21.7220  -16.1990  -12.7330 C.2    47  ARG47       0.2287
     30  O        -22.3560  -17.2520  -12.7700 O.2    47  ARG47      -0.2864
     31  CB       -19.3240  -16.7940  -13.1720 C.3    47  ARG47       0.0334
     32  CG       -18.1780  -16.8640  -14.1650 C.3    47  ARG47       0.0492
     33  CD       -17.1160  -17.8630  -13.7210 C.3    47  ARG47       0.2205
     34  NE       -16.1290  -18.1230  -14.7690 N.pl3  47  ARG47      -0.0865
     35  CZ       -15.0490  -17.3780  -14.9950 C.cat  47  ARG47       0.5346
     36  NH1      -14.7960  -16.3110  -14.2500 N.pl3  47  ARG47       0.1354
     37  NH2      -14.2160  -17.7050  -15.9750 N.pl3  47  ARG47       0.1354
     38  N        -16.8530  -14.3430  -25.8990 N.3    58  PHE58      -0.1241
     39  CA       -15.6040  -14.5060  -25.1440 C.3    58  PHE58       0.1605
     40  C        -14.6210  -15.4590  -25.8190 C.2    58  PHE58       0.2264
     41  O        -13.6010  -15.8240  -25.2230 O.2    58  PHE58      -0.2867
     42  CB       -15.8750  -15.0430  -23.7350 C.3    58  PHE58       0.0534
     43  CG       -16.9180  -14.2850  -22.9820 C.ar   58  PHE58      -0.0203
     44  CD1      -16.7860  -12.9270  -22.7570 C.ar   58  PHE58      -0.0042
     45  CD2      -18.0270  -14.9410  -22.4780 C.ar   58  PHE58      -0.0042
     46  CE1      -17.7480  -12.2350  -22.0520 C.ar   58  PHE58      -0.0003
     47  CE2      -18.9910  -14.2550  -21.7740 C.ar   58  PHE58      -0.0003
     48  CZ       -18.8520  -12.9000  -21.5590 C.ar   58  PHE58      -0.0000
     49  N        -18.1980   -7.8280  -28.4090 N.3    70  PHE70      -0.1241
     50  CA       -17.3800   -7.7640  -27.2030 C.3    70  PHE70       0.1605
     51  C        -17.2320   -6.3360  -26.7080 C.2    70  PHE70       0.2264
     52  O        -17.3990   -6.0670  -25.5170 O.2    70  PHE70      -0.2867
     53  CB       -15.9910   -8.3580  -27.4420 C.3    70  PHE70       0.0534
     54  CG       -15.0630   -8.1850  -26.2680 C.ar   70  PHE70      -0.0203
     55  CD1      -15.0370   -9.1140  -25.2430 C.ar   70  PHE70      -0.0042
     56  CD2      -14.2450   -7.0790  -26.1780 C.ar   70  PHE70      -0.0042
     57  CE1      -14.1970   -8.9450  -24.1570 C.ar   70  PHE70      -0.0003
     58  CE2      -13.4050   -6.9120  -25.0960 C.ar   70  PHE70      -0.0003
     59  CZ       -13.3900   -7.8460  -24.0890 C.ar   70  PHE70      -0.0000
     60  N        -20.4190   -4.9020  -25.2730 N.3    73  LEU73      -0.1231
     61  CA       -20.6080   -5.4690  -23.9390 C.3    73  LEU73       0.1693
     62  C        -19.6480   -4.8390  -22.9400 C.2    73  LEU73       0.2591
     63  O        -19.9880   -4.6580  -21.7660 O.2    73  LEU73      -0.2718
     64  CB       -20.3990   -6.9830  -23.9500 C.3    73  LEU73       0.0284
     65  CG       -20.5440   -7.6930  -22.5980 C.3    73  LEU73       0.0019
     66  CD1      -21.9850   -7.5920  -22.0930 C.3    73  LEU73       0.0001
     67  CD2      -20.1060   -9.1410  -22.6930 C.3    73  LEU73       0.0001
     68  N        -18.4440   -4.5160  -23.4050 N.am   74  ALA74      -0.1980
     69  CA       -17.4440   -3.8850  -22.5560 C.3    74  ALA74       0.1597
     70  C        -17.8960   -2.4960  -22.1150 C.2    74  ALA74       0.2287
     71  O        -17.6530   -2.0970  -20.9730 O.2    74  ALA74      -0.2864
     72  CB       -16.0950   -3.8020  -23.2850 C.3    74  ALA74       0.0319
     73  N        -20.7720   -2.9520  -19.4790 N.3    77  LEU77      -0.1231
     74  CA       -20.3390   -3.4990  -18.1960 C.3    77  LEU77       0.1693
     75  C        -19.2420   -2.6690  -17.5290 C.2    77  LEU77       0.2592
     76  O        -18.8000   -3.0050  -16.4310 O.2    77  LEU77      -0.2718
     77  CB       -19.8450   -4.9410  -18.3670 C.3    77  LEU77       0.0284
     78  CG       -20.8590   -5.9970  -18.8090 C.3    77  LEU77       0.0019
     79  CD1      -20.1700   -7.3430  -18.9730 C.3    77  LEU77       0.0001
     80  CD2      -22.0120   -6.1080  -17.8240 C.3    77  LEU77       0.0001
     81  N        -18.8020   -1.5930  -18.1730 N.am   78  TYR78      -0.1963
     82  CA       -17.6950   -0.7960  -17.6490 C.3    78  TYR78       0.1756
     83  C        -18.0790   -0.1920  -16.3010 C.2    78  TYR78       0.2461
     84  O        -19.0440    0.5640  -16.2250 O.2    78  TYR78      -0.2730
     85  CB       -17.3120    0.3240  -18.6200 C.3    78  TYR78       0.0574
     86  CG       -15.8540    0.7190  -18.5330 C.ar   78  TYR78      -0.0198
     87  CD1      -15.3860    1.5130  -17.4940 C.ar   78  TYR78      -0.0009
     88  CD2      -14.9380    0.2820  -19.4840 C.ar   78  TYR78      -0.0009
     89  CE1      -14.0530    1.8690  -17.4070 C.ar   78  TYR78       0.0417
     90  CE2      -13.6060    0.6350  -19.4080 C.ar   78  TYR78       0.0417
     91  CZ       -13.1630    1.4240  -18.3660 C.ar   78  TYR78       0.1957
     92  OH       -11.8310    1.7820  -18.2810 O.3    78  TYR78      -0.2866
     93  N        -17.3310   -0.5260  -15.2350 N.am   79  PRO79      -0.2727
     94  CA       -17.6790    0.0050  -13.9100 C.3    79  PRO79       0.1402
     95  C        -17.7510    1.5250  -13.8770 C.2    79  PRO79       0.2269
     96  O        -17.0100    2.2020  -14.5850 O.2    79  PRO79      -0.2865
     97  CB       -16.5210   -0.4740  -13.0300 C.3    79  PRO79       0.0296
     98  CG       -16.0370   -1.7110  -13.6950 C.3    79  PRO79       0.0237
     99  CD       -16.1730   -1.4370  -15.1660 C.3    79  PRO79       0.0939
    100  N        -13.8160    2.7900   -9.7400 N.3    82  PHE82      -0.1241
    101  CA       -12.9070    1.7240   -9.3370 C.3    82  PHE82       0.1605
    102  C        -12.3890    1.9820   -7.9370 C.2    82  PHE82       0.2264
    103  O        -11.3640    2.6230   -7.7510 O.2    82  PHE82      -0.2867
    104  CB       -11.7500    1.6000  -10.3250 C.3    82  PHE82       0.0534
    105  CG       -12.1670    1.1170  -11.6880 C.ar   82  PHE82      -0.0203
    106  CD1      -12.5960    2.0130  -12.6570 C.ar   82  PHE82      -0.0042
    107  CD2      -12.1390   -0.2310  -11.9990 C.ar   82  PHE82      -0.0042
    108  CE1      -12.9780    1.5740  -13.9080 C.ar   82  PHE82      -0.0003
    109  CE2      -12.5220   -0.6770  -13.2490 C.ar   82  PHE82      -0.0003
    110  CZ       -12.9410    0.2230  -14.2050 C.ar   82  PHE82      -0.0000
    111  N         -8.2160  -14.1590  -10.3700 N.3   106  GLN106     -0.1245
    112  CA        -9.0080  -14.4670  -11.5550 C.3   106  GLN106      0.1566
    113  C         -9.7520  -13.2520  -12.0810 C.2   106  GLN106      0.2260
    114  O        -10.4210  -13.3370  -13.1170 O.2   106  GLN106     -0.2867
    115  CB       -10.0170  -15.5450  -11.2240 C.3   106  GLN106      0.0367
    116  CG        -9.3960  -16.8360  -10.8140 C.3   106  GLN106      0.0905
    117  CD       -10.3710  -17.6980  -10.0560 C.2   106  GLN106      0.2608
    118  OE1      -10.6560  -17.4580   -8.8820 O.2   106  GLN106     -0.2717
    119  NE2      -10.9020  -18.6990  -10.7250 N.am  106  GLN106     -0.0878
    120  N        -10.3810   -9.3600  -13.6100 N.3   108  ILE108     -0.1231
    121  CA        -9.8330   -8.5330  -14.6810 C.3   108  ILE108      0.1692
    122  C        -10.0550   -7.0320  -14.4290 C.2   108  ILE108      0.2592
    123  O         -9.7910   -6.2000  -15.2980 O.2   108  ILE108     -0.2718
    124  CB       -10.4110   -8.9670  -16.0560 C.3   108  ILE108      0.0266
    125  CG1      -11.9470   -9.0120  -16.0550 C.3   108  ILE108      0.0019
    126  CG2       -9.8990  -10.3630  -16.4140 C.3   108  ILE108      0.0020
    127  CD1      -12.6770   -7.7080  -15.8080 C.3   108  ILE108      0.0001
    128  N        -10.4920   -6.6910  -13.2160 N.am  109  ASP109     -0.1960
    129  CA       -10.9990   -5.3480  -12.9190 C.3   109  ASP109      0.1840
    130  C         -9.9360   -4.3270  -12.4970 C.2   109  ASP109      0.2622
    131  O        -10.2510   -3.1560  -12.3150 O.2   109  ASP109     -0.2715
    132  CB       -12.1280   -5.4210  -11.8650 C.3   109  ASP109      0.1450
    133  CG       -11.7040   -6.0950  -10.5750 C.2   109  ASP109      0.3671
    134  OD1      -10.5180   -5.9870  -10.1930 O.co2 109  ASP109     -0.2456
    135  OD2      -12.5740   -6.7290   -9.9390 O.co2 109  ASP109     -0.2456
    136  N         -8.6890   -4.7770  -12.3330 N.am  110  THR110     -0.1951
    137  CA        -7.5520   -3.9410  -11.9220 C.3   110  THR110      0.1897
    138  C         -7.5650   -3.4300  -10.4740 C.2   110  THR110      0.2313
    139  O         -6.6620   -2.6920  -10.0840 O.2   110  THR110     -0.2863
    140  CB        -7.3030   -2.7340  -12.8700 C.3   110  THR110      0.1794
    141  OG1       -8.1740   -1.6380  -12.5450 O.3   110  THR110     -0.2208
    142  CG2       -7.4800   -3.1460  -14.3310 C.3   110  THR110      0.0378
    143  N         -6.3100  -14.8400  -15.3360 N.3   126  HIS126     -0.1241
    144  CA        -7.2280  -14.7140  -16.4710 C.3   126  HIS126      0.1621
    145  C         -6.9910  -13.4200  -17.2410 C.2   126  HIS126      0.2264
    146  O         -7.8420  -12.9880  -18.0240 O.2   126  HIS126     -0.2867
    147  CB        -8.6770  -14.8340  -15.9950 C.3   126  HIS126      0.0745
    148  CG        -9.0100  -16.1840  -15.4430 C.ar  126  HIS126      0.0817
    149  ND1      -10.2150  -16.4660  -14.8390 N.ar  126  HIS126     -0.2268
    150  CD2       -8.2940  -17.3340  -15.4200 C.ar  126  HIS126      0.1154
    151  CE1      -10.2230  -17.7310  -14.4530 C.ar  126  HIS126      0.1986
    152  NE2       -9.0700  -18.2800  -14.7930 N.ar  126  HIS126     -0.2212
    153  N         -7.8330   -6.0980  -18.0510 N.3   129  PHE129     -0.1241
    154  CA        -8.0820   -4.9370  -18.9050 C.3   129  PHE129      0.1605
    155  C         -7.0290   -3.8480  -18.7170 C.2   129  PHE129      0.2264
    156  O         -7.0220   -2.8670  -19.4640 O.2   129  PHE129     -0.2867
    157  CB        -9.4500   -4.3190  -18.6000 C.3   129  PHE129      0.0534
    158  CG       -10.5940   -4.9730  -19.3000 C.ar  129  PHE129     -0.0203
    159  CD1      -10.9910   -4.5550  -20.5610 C.ar  129  PHE129     -0.0042
    160  CD2      -11.2970   -5.9940  -18.6900 C.ar  129  PHE129     -0.0042
    161  CE1      -12.0590   -5.1570  -21.1950 C.ar  129  PHE129     -0.0003
    162  CE2      -12.3630   -6.5990  -19.3240 C.ar  129  PHE129     -0.0003
    163  CZ       -12.7400   -6.1810  -20.5810 C.ar  129  PHE129     -0.0000
    164  N         -5.0250    1.3290  -20.3390 N.3   145  LEU145     -0.1245
    165  CA        -6.4680    1.3120  -20.1680 C.3   145  LEU145      0.1561
    166  C         -7.1090    2.6650  -20.4790 C.2   145  LEU145      0.2260
    167  O         -8.2410    2.7180  -20.9630 O.2   145  LEU145     -0.2867
    168  CB        -6.8220    0.8740  -18.7400 C.3   145  LEU145      0.0270
    169  CG        -8.3090    0.8100  -18.3910 C.3   145  LEU145      0.0019
    170  CD1       -9.0730   -0.1120  -19.3060 C.3   145  LEU145      0.0001
    171  CD2       -8.4930    0.3930  -16.9280 C.3   145  LEU145      0.0001
    172  N        -13.6740    2.4730  -26.0640 N.3   152  ILE152     -0.1245
    173  CA       -14.8680    1.7470  -25.6640 C.3   152  ILE152      0.1561
    174  C        -16.0770    2.6750  -25.5300 C.2   152  ILE152      0.2260
    175  O        -17.1770    2.3490  -25.9810 O.2   152  ILE152     -0.2867
    176  CB       -14.6140    0.9910  -24.3400 C.3   152  ILE152      0.0252
    177  CG1      -13.6710   -0.1870  -24.6010 C.3   152  ILE152      0.0019
    178  CG2      -15.9150    0.4730  -23.7320 C.3   152  ILE152      0.0019
    179  CD1      -13.1190   -0.8400  -23.3450 C.3   152  ILE152      0.0001
    180  N         -7.0780   -9.6840  -21.5590 N.3   171  ILE171     -0.1231
    181  CA        -7.7780  -10.7700  -20.8900 C.3   171  ILE171      0.1692
    182  C         -7.5530  -12.0550  -21.6610 C.2   171  ILE171      0.2592
    183  O         -7.3050  -12.0330  -22.8610 O.2   171  ILE171     -0.2718
    184  CB        -9.2900  -10.5010  -20.7360 C.3   171  ILE171      0.0266
    185  CG1       -9.9740  -10.4170  -22.0990 C.3   171  ILE171      0.0019
    186  CG2       -9.5050   -9.2160  -19.9620 C.3   171  ILE171      0.0020
    187  CD1      -11.4910  -10.3370  -22.0140 C.3   171  ILE171      0.0001
    188  N         -7.6320  -13.1780  -20.9660 N.am  172  VAL172     -0.1966
    189  CA        -7.5210  -14.4750  -21.6120 C.3   172  VAL172      0.1727
    190  C         -8.8830  -14.8550  -22.1740 C.2   172  VAL172      0.2616
    191  O         -9.7640  -15.2940  -21.4330 O.2   172  VAL172     -0.2715
    192  CB        -7.0570  -15.5300  -20.6020 C.3   172  VAL172      0.0290
    193  CG1       -6.9380  -16.9020  -21.2660 C.3   172  VAL172      0.0023
    194  CG2       -5.7300  -15.1120  -20.0060 C.3   172  VAL172      0.0023
    195  N         -9.0700  -14.6610  -23.4750 N.am  173  PHE173     -0.1960
    196  CA       -10.2940  -15.1160  -24.1170 C.3   173  PHE173      0.1771
    197  C        -10.3010  -16.6350  -24.1080 C.2   173  PHE173      0.2619
    198  O         -9.2480  -17.2720  -24.0400 O.2   173  PHE173     -0.2715
    199  CB       -10.3690  -14.6200  -25.5620 C.3   173  PHE173      0.0574
    200  CG       -10.8510  -13.2080  -25.6990 C.ar  173  PHE173     -0.0200
    201  CD1      -10.1080  -12.1540  -25.2110 C.ar  173  PHE173     -0.0042
    202  CD2      -12.0510  -12.9320  -26.3380 C.ar  173  PHE173     -0.0042
    203  CE1      -10.5530  -10.8520  -25.3440 C.ar  173  PHE173     -0.0003
    204  CE2      -12.4950  -11.6400  -26.4750 C.ar  173  PHE173     -0.0003
    205  CZ       -11.7480  -10.5970  -25.9880 C.ar  173  PHE173     -0.0000
    206  N        -11.4820  -17.2320  -24.1920 N.am  174  PHE174     -0.1974
    207  CA       -11.5250  -18.6740  -24.3230 C.3   174  PHE174      0.1639
    208  C        -10.9250  -19.0420  -25.6720 C.2   174  PHE174      0.2290
    209  O        -11.1100  -18.3340  -26.6620 O.2   174  PHE174     -0.2864
    210  CB       -12.9400  -19.1920  -24.1110 C.3   174  PHE174      0.0560
    211  CG       -13.3840  -19.0800  -22.6860 C.ar  174  PHE174     -0.0200
    212  CD1      -12.9180  -19.9740  -21.7360 C.ar  174  PHE174     -0.0042
    213  CD2      -14.2300  -18.0620  -22.2840 C.ar  174  PHE174     -0.0042
    214  CE1      -13.3060  -19.8700  -20.4180 C.ar  174  PHE174     -0.0003
    215  CE2      -14.6240  -17.9530  -20.9610 C.ar  174  PHE174     -0.0003
    216  CZ       -14.1610  -18.8580  -20.0290 C.ar  174  PHE174     -0.0000
    217  N         -7.6590  -19.0620  -25.7690 N.3   176  GLU176     -0.1245
    218  CA        -6.2930  -18.6130  -25.5010 C.3   176  GLU176      0.1567
    219  C         -5.7220  -19.3650  -24.3060 C.2   176  GLU176      0.2260
    220  O         -6.4620  -19.7900  -23.4240 O.2   176  GLU176     -0.2867
    221  CB        -6.2390  -17.1070  -25.2120 C.3   176  GLU176      0.0388
    222  CG        -6.5790  -16.2220  -26.3870 C.3   176  GLU176      0.1160
    223  CD        -6.2130  -14.7660  -26.1480 C.2   176  GLU176      0.3649
    224  OE1       -6.9560  -14.0640  -25.4330 O.co2 176  GLU176     -0.2457
    225  OE2       -5.1710  -14.3200  -26.6770 O.co2 176  GLU176     -0.2457
    226  N         -3.5910  -19.6620  -20.7690 N.3   178  LEU178     -0.1245
    227  CA        -3.2960  -18.8010  -19.6340 C.3   178  LEU178      0.1561
    228  C         -1.8810  -18.2580  -19.8150 C.2   178  LEU178      0.2260
    229  O         -1.0600  -18.8870  -20.4850 O.2   178  LEU178     -0.2867
    230  CB        -3.3920  -19.5650  -18.3120 C.3   178  LEU178      0.0270
    231  CG        -4.7390  -20.1070  -17.8300 C.3   178  LEU178      0.0019
    232  CD1       -4.7210  -20.1370  -16.3110 C.3   178  LEU178      0.0001
    233  CD2       -5.9280  -19.3140  -18.3310 C.3   178  LEU178      0.0001
    234  N        -13.3230  -22.9560  -11.6930 N.3   205  VAL205     -0.1231
    235  CA       -12.6520  -22.7540  -12.9740 C.3   205  VAL205      0.1692
    236  C        -11.2120  -23.2600  -12.9180 C.2   205  VAL205      0.2592
    237  O        -10.4810  -22.9390  -11.9790 O.2   205  VAL205     -0.2718
    238  CB       -12.6480  -21.2580  -13.3680 C.3   205  VAL205      0.0266
    239  CG1      -12.0500  -21.0620  -14.7600 C.3   205  VAL205      0.0020
    240  CG2      -14.0590  -20.6870  -13.3060 C.3   205  VAL205      0.0020
    241  N        -10.8250  -24.0510  -13.9210 N.am  206  GLN206     -0.1966
    242  CA        -9.4900  -24.6500  -14.0080 C.3   206  GLN206      0.1718
    243  C         -8.6680  -23.9500  -15.0830 C.2   206  GLN206      0.2458
    244  O         -9.2260  -23.4440  -16.0540 O.2   206  GLN206     -0.2730
    245  CB        -9.5920  -26.1400  -14.3530 C.3   206  GLN206      0.0407
    246  CG       -10.2000  -27.0220  -13.2610 C.3   206  GLN206      0.0908
    247  CD        -9.2820  -27.2250  -12.0660 C.2   206  GLN206      0.2608
    248  OE1       -8.1720  -26.7000  -12.0230 O.2   206  GLN206     -0.2717
    249  NE2       -9.7470  -27.9910  -11.0860 N.am  206  GLN206     -0.0878
    250  N         -7.3320  -23.9470  -14.9400 N.am  207  PRO207     -0.2727
    251  CA        -6.5460  -24.6220  -13.9010 C.3   207  PRO207      0.1402
    252  C         -6.3870  -23.8230  -12.6070 C.2   207  PRO207      0.2269
    253  O         -5.7020  -24.2850  -11.6910 O.2   207  PRO207     -0.2865
    254  CB        -5.1790  -24.7930  -14.5680 C.3   207  PRO207      0.0296
    255  CG        -5.0650  -23.6100  -15.4580 C.3   207  PRO207      0.0237
    256  CD        -6.4630  -23.3620  -15.9790 C.3   207  PRO207      0.0939
@<TRIPOS>BOND
     1    49    50    1
     2    53    50    1
     3    53    54    1
     4    50    51    1
     5    51    52    2
     6   225   223   ar
     7   209   208    2
     8   204   202   ar
     9   204   205   ar
    10   222   223    1
    11   222   221    1
    12   202   200   ar
    13    54    56   ar
    14    54    55   ar
    15    56    58   ar
    16   223   224   ar
    17   172   173    1
    18   205   203   ar
    19   175   174    2
    20    38    39    1
    21    40    41    2
    22    40    39    1
    23   217   218    1
    24   200   199    1
    25   200   201   ar
    26   208   207    1
    27   173   174    1
    28   173   176    1
    29   199   196    1
    30   218   221    1
    31   218   219    1
    32   203   201   ar
    33    60    61    1
    34    55    57   ar
    35    39    42    1
    36    58    59   ar
    37   177   176    1
    38   177   179    1
    39   176   178    1
    40   207   206    1
    41   207   210    1
    42   219   220    2
    43   206   197   am
    44    57    59   ar
    45   196   197    1
    46   196   195    1
    47   210   211    1
    48   197   198    2
    49    64    61    1
    50    64    65    1
    51    61    62    1
    52    42    43    1
    53   195   190   am
    54    68    62   am
    55    68    69    1
    56    72    69    1
    57    43    44   ar
    58    43    45   ar
    59    62    63    2
    60   183   182    2
    61    44    46   ar
    62    67    65    1
    63   211   213   ar
    64   211   212   ar
    65    65    66    1
    66    69    70    1
    67    45    47   ar
    68   213   215   ar
    69   190   189    1
    70   190   191    2
    71    70    71    2
    72   185   187    1
    73   185   184    1
    74    46    48   ar
    75    47    48   ar
    76   212   214   ar
    77   182   188   am
    78   182   181    1
    79   189   188    1
    80   189   192    1
    81   180   181    1
    82   193   192    1
    83   161   163   ar
    84   161   159   ar
    85   167   166    2
    86   215   216   ar
    87   181   184    1
    88   226   227    1
    89   184   186    1
    90   192   194    1
    91   163   162   ar
    92   159   158   ar
    93   229   228    2
    94   166   165    1
    95   214   216   ar
    96   164   165    1
    97   165   168    1
    98   228   227    1
    99   227   230    1
   100    88    90   ar
   101    88    86   ar
   102    73    74    1
   103   156   155    2
   104    90    91   ar
   105   162   160   ar
   106   170   169    1
   107   158   160   ar
   108   158   157    1
   109    79    78    1
   110   154   155    1
   111   154   157    1
   112   154   153    1
   113    78    77    1
   114    78    80    1
   115   168   169    1
   116    85    86    1
   117    85    82    1
   118    86    87   ar
   119   169   171    1
   120    77    74    1
   121    91    92    1
   122    91    89   ar
   123   233   231    1
   124   230   231    1
   125    74    75    1
   126    81    82    1
   127    81    75   am
   128   146   145    2
   129   231   232    1
   130    24    22   ar
   131    24    26   ar
   132    82    83    1
   133    75    76    2
   134    87    89   ar
   135    22    21   ar
   136   145   144    1
   137    26    25   ar
   138   144   147    1
   139   144   143    1
   140   126   124    1
   141    21    20    1
   142    21    23   ar
   143    25    23   ar
   144    83    84    2
   145    83    93   am
   146   124   125    1
   147   124   121    1
   148   125   127    1
   149   244   243    2
   150   147   148    1
   151   256   255    1
   152   256   250    1
   153    37    35    1
   154    20    17    1
   155    19    18    2
   156   255   254    1
   157   148   150   ar
   158   148   149   ar
   159   150   152   ar
   160   123   122    2
   161    93    99    1
   162    93    94    1
   163    99    98    1
   164   243   250   am
   165   243   242    1
   166    35    34    2
   167    35    36    1
   168   250   251    1
   169   149   151   ar
   170   152   151   ar
   171    18    17    1
   172    18    27   am
   173    34    33    1
   174   239   238    1
   175    17    16    1
   176   121   122    1
   177   121   120    1
   178    96    95    2
   179   254   251    1
   180   122   128   am
   181   245   242    1
   182   245   246    1
   183   142   140    1
   184   110   108   ar
   185   110   109   ar
   186    32    33    1
   187    32    31    1
   188   242   241    1
   189   241   236   am
   190    94    95    1
   191    94    97    1
   192   108   106   ar
   193   251   252    1
   194    27    28    1
   195    98    97    1
   196    28    31    1
   197    28    29    1
   198   238   240    1
   199   238   235    1
   200   246   247    1
   201   109   107   ar
   202   128   129    1
   203   114   113    2
   204   235   236    1
   205   235   234    1
   206   129   130    1
   207   129   132    1
   208   236   237    2
   209   140   141    1
   210   140   137    1
   211    30    29    2
   212   106   105   ar
   213   252   253    2
   214   130   136   am
   215   130   131    2
   216   136   137    1
   217   113   112    1
   218   247   248    2
   219   247   249   am
   220   107   105   ar
   221    12    11    2
   222   137   138    1
   223   132   133    1
   224   105   104    1
   225   112   115    1
   226   112   111    1
   227    14    15    1
   228    14    13    1
   229    15     9    1
   230    13    10    1
   231     7     5    1
   232   115   116    1
   233    11    10    1
   234   116   117    1
   235   119   117   am
   236     9    10    1
   237     9     3   am
   238   133   134   ar
   239   133   135   ar
   240   138   139    2
   241     8     6    1
   242   104   101    1
   243     6     5    1
   244   117   118    2
   245     5     2    1
   246     2     3    1
   247     2     1    1
   248     3     4    2
   249   100   101    1
   250   101   102    1
   251   102   103    2
