@<TRIPOS>MOLECULE
tmp/5yqsB11.pdb
 79 74 0 0 0
SMALL
GASTEIGER

@<TRIPOS>ATOM
      1  N         11.1040   33.1030  143.7740 N.3   388  LEU388     -0.1245
      2  CA        12.3450   32.4490  144.1580 C.3   388  LEU388      0.1561
      3  C         12.2840   30.9980  143.6850 C.2   388  LEU388      0.2260
      4  O         11.4810   30.2320  144.1850 O.2   388  LEU388     -0.2867
      5  CB        12.5360   32.5140  145.6820 C.3   388  LEU388      0.0270
      6  CG        13.7960   31.8250  146.2270 C.3   388  LEU388      0.0019
      7  CD1       15.0430   32.5190  145.7240 C.3   388  LEU388      0.0001
      8  CD2       13.8070   31.7540  147.7470 C.3   388  LEU388      0.0001
      9  N         17.3130   28.1010  146.1870 N.3   391  ASN391     -0.1240
     10  CA        18.1430   28.7820  147.1660 C.3   391  ASN391      0.1653
     11  C         18.8320   27.7080  148.0130 C.2   391  ASN391      0.2266
     12  O         18.2990   27.2630  149.0180 O.2   391  ASN391     -0.2867
     13  CB        17.2790   29.7530  147.9790 C.3   391  ASN391      0.1155
     14  CG        18.0380   30.5190  149.0380 C.2   391  ASN391      0.2627
     15  OD1       19.1790   30.9220  148.8220 O.2   391  ASN391     -0.2716
     16  ND2       17.3970   30.7310  150.1850 N.am  391  ASN391     -0.0877
     17  N         21.1700   28.4040  152.2050 N.3   394  ASN394     -0.1240
     18  CA        20.9790   29.8030  152.5970 C.3   394  ASN394      0.1653
     19  C         21.9360   30.7670  151.8670 C.2   394  ASN394      0.2266
     20  O         22.3690   31.7620  152.4470 O.2   394  ASN394     -0.2867
     21  CB        21.1110   29.9870  154.1170 C.3   394  ASN394      0.1155
     22  CG        20.1070   29.1800  154.9090 C.2   394  ASN394      0.2627
     23  OD1       18.9180   29.4770  154.9000 O.2   394  ASN394     -0.2716
     24  ND2       20.5710   28.1560  155.5940 N.am  394  ASN394     -0.0877
     25  N         20.8880   32.9160  149.8860 N.3   396  LEU396     -0.1245
     26  CA        20.1030   34.1320  149.9400 C.3   396  LEU396      0.1561
     27  C         19.3870   34.0940  151.2860 C.2   396  LEU396      0.2260
     28  O         19.0510   33.0090  151.7570 O.2   396  LEU396     -0.2867
     29  CB        19.0930   34.1630  148.7740 C.3   396  LEU396      0.0270
     30  CG        19.2960   35.0750  147.5540 C.3   396  LEU396      0.0019
     31  CD1       20.7480   35.2600  147.1420 C.3   396  LEU396      0.0001
     32  CD2       18.4650   34.5570  146.3840 C.3   396  LEU396      0.0001
     33  N          9.2680   29.6020  146.1200 N.3   633  LYS633     -0.1231
     34  CA         9.8530   29.4150  147.4790 C.3   633  LYS633      0.1693
     35  C          9.8840   30.7120  148.3200 C.2   633  LYS633      0.2593
     36  O          9.5130   31.7960  147.8510 O.2   633  LYS633     -0.2718
     37  CB        11.2620   28.8340  147.3640 C.3   633  LYS633      0.0285
     38  CG        11.3750   27.5610  146.5380 C.3   633  LYS633      0.0035
     39  CD        10.2830   26.5380  146.8200 C.3   633  LYS633      0.0206
     40  CE        10.1930   26.0510  148.2510 C.3   633  LYS633      0.1093
     41  NZ         9.1850   24.9690  148.3660 N.3   633  LYS633     -0.1314
     42  N         10.2800   30.5510  149.5940 N.am  634  SER634     -0.1938
     43  CA        10.4010   31.6180  150.5980 C.3   634  SER634      0.2055
     44  C         11.7010   31.3890  151.3660 C.2   634  SER634      0.2643
     45  O         12.2560   30.2950  151.3030 O.2   634  SER634     -0.2714
     46  CB         9.1980   31.6120  151.5370 C.3   634  SER634      0.2130
     47  OG         9.2720   32.5770  152.5980 O.3   634  SER634     -0.2179
     48  N         12.1650   32.4160  152.0940 N.am  635  TYR635     -0.1959
     49  CA        13.2880   32.2800  153.0660 C.3   635  TYR635      0.1771
     50  C         12.8090   31.5780  154.3510 C.2   635  TYR635      0.2620
     51  O         13.6280   31.1030  155.1450 O.2   635  TYR635     -0.2715
     52  CB        13.9390   33.6310  153.4070 C.3   635  TYR635      0.0574
     53  CG        14.5440   34.3910  152.2560 C.ar  635  TYR635     -0.0198
     54  CD1       15.1990   33.7210  151.2380 C.ar  635  TYR635     -0.0009
     55  CD2       14.4780   35.7800  152.1760 C.ar  635  TYR635     -0.0009
     56  CE1       15.7420   34.3920  150.1550 C.ar  635  TYR635      0.0417
     57  CE2       15.0420   36.4690  151.1050 C.ar  635  TYR635      0.0417
     58  CZ        15.6810   35.7720  150.0880 C.ar  635  TYR635      0.1957
     59  OH        16.2550   36.3780  149.0000 O.3   635  TYR635     -0.2866
     60  N         11.4860   31.5300  154.5440 N.am  636  SER636     -0.1936
     61  CA        10.8210   30.8030  155.6040 C.3   636  SER636      0.2055
     62  C         10.2430   29.5040  155.0350 C.2   636  SER636      0.2643
     63  O         10.1290   29.3610  153.8410 O.2   636  SER636     -0.2714
     64  CB         9.7190   31.6410  156.1890 C.3   636  SER636      0.2130
     65  OG        10.1420   32.9670  156.4640 O.3   636  SER636     -0.2179
     66  N          9.8640   28.5690  155.9060 N.am  637  SER637     -0.1949
     67  CA         9.1570   27.3560  155.5050 C.3   637  SER637      0.1924
     68  C          7.7740   27.4460  156.1050 C.2   637  SER637      0.2314
     69  O          7.5920   28.1420  157.1120 O.2   637  SER637     -0.2863
     70  CB         9.8290   26.1160  155.9790 C.3   637  SER637      0.2116
     71  OG        11.1250   26.0170  155.4220 O.3   637  SER637     -0.2180
     72  N          9.9680   29.6200  160.5150 N.3   666  ASP666     -0.1239
     73  CA        11.2020   30.3790  160.6950 C.3   666  ASP666      0.1674
     74  C         11.1020   31.1580  162.0090 C.2   666  ASP666      0.2266
     75  O         10.1510   31.8930  162.2150 O.2   666  ASP666     -0.2867
     76  CB        11.4770   31.3180  159.5090 C.3   666  ASP666      0.1410
     77  CG        12.9380   31.7570  159.3820 C.2   666  ASP666      0.3668
     78  OD1       13.3770   32.6640  160.1280 O.co2 666  ASP666     -0.2456
     79  OD2       13.6500   31.1790  158.5420 O.co2 666  ASP666     -0.2456
@<TRIPOS>BOND
     1     3     2    1
     2     3     4    2
     3     1     2    1
     4     2     5    1
     5     5     6    1
     6     7     6    1
     7    33    34    1
     8     9    10    1
     9     6     8    1
    10    32    30    1
    11    38    39    1
    12    38    37    1
    13    39    40    1
    14    31    30    1
    15    10    13    1
    16    10    11    1
    17    37    34    1
    18    34    35    1
    19    30    29    1
    20    36    35    2
    21    13    14    1
    22    11    12    2
    23    40    41    1
    24    35    42   am
    25    29    26    1
    26    15    14    2
    27    59    58    1
    28    14    16   am
    29    42    43    1
    30    25    26    1
    31    26    27    1
    32    58    56   ar
    33    58    57   ar
    34    56    54   ar
    35    43    44    1
    36    43    46    1
    37    57    55   ar
    38    54    53   ar
    39    27    28    2
    40    45    44    2
    41    44    48   am
    42    46    47    1
    43    19    20    2
    44    19    18    1
    45    48    49    1
    46    55    53   ar
    47    17    18    1
    48    53    52    1
    49    18    21    1
    50    49    52    1
    51    49    50    1
    52    63    62    2
    53    21    22    1
    54    50    60   am
    55    50    51    2
    56    60    61    1
    57    23    22    2
    58    22    24   am
    59    62    61    1
    60    62    66   am
    61    71    70    1
    62    67    66    1
    63    67    70    1
    64    67    68    1
    65    61    64    1
    66    68    69    2
    67    64    65    1
    68    79    77   ar
    69    77    76    1
    70    77    78   ar
    71    76    73    1
    72    72    73    1
    73    73    74    1
    74    74    75    2
