@<TRIPOS>MOLECULE
tmp/5yqsB08.pdb
 79 73 0 0 0
SMALL
GASTEIGER

@<TRIPOS>ATOM
      1  N        -13.6550   54.1090  114.1100 N.3    33  GLN33      -0.1245
      2  CA       -12.6090   54.7340  114.9420 C.3    33  GLN33       0.1566
      3  C        -11.8310   55.8450  114.2000 C.2    33  GLN33       0.2260
      4  O        -11.2290   55.6150  113.1520 O.2    33  GLN33      -0.2867
      5  CB       -11.6120   53.6620  115.4170 C.3    33  GLN33       0.0367
      6  CG       -10.6850   54.0550  116.5760 C.3    33  GLN33       0.0905
      7  CD        -9.3710   53.2750  116.6350 C.2    33  GLN33       0.2608
      8  OE1       -8.8960   52.7180  115.6370 O.2    33  GLN33      -0.2717
      9  NE2       -8.7590   53.2300  117.8150 N.am   33  GLN33      -0.0878
     10  N         -8.7120   59.0860  114.7630 N.3    35  ASP35      -0.1239
     11  CA        -7.3300   59.1380  115.2120 C.3    35  ASP35       0.1674
     12  C         -6.9960   60.6050  115.4730 C.2    35  ASP35       0.2266
     13  O         -7.3510   61.4530  114.6780 O.2    35  ASP35      -0.2867
     14  CB        -6.3810   58.5040  114.1820 C.3    35  ASP35       0.1410
     15  CG        -4.9750   58.2480  114.7180 C.2    35  ASP35       0.3668
     16  OD1       -4.1810   59.2190  114.8190 O.co2  35  ASP35      -0.2456
     17  OD2       -4.6810   57.0770  115.0870 O.co2  35  ASP35      -0.2456
     18  N         -8.1610   57.3960  118.7540 N.3    64  TYR64      -0.1241
     19  CA        -6.9500   56.8690  119.3860 C.3    64  TYR64       0.1605
     20  C         -5.9590   58.0030  119.6140 C.2    64  TYR64       0.2264
     21  O         -5.8110   58.8660  118.7410 O.2    64  TYR64      -0.2867
     22  CB        -6.3500   55.7570  118.5160 C.3    64  TYR64       0.0534
     23  CG        -5.0530   55.1350  118.9990 C.ar   64  TYR64      -0.0201
     24  CD1       -4.9890   54.2850  120.1080 C.ar   64  TYR64      -0.0009
     25  CD2       -3.8630   55.3830  118.3140 C.ar   64  TYR64      -0.0009
     26  CE1       -3.7710   53.7320  120.5270 C.ar   64  TYR64       0.0417
     27  CE2       -2.6550   54.8230  118.7110 C.ar   64  TYR64       0.0417
     28  CZ        -2.6030   53.9810  119.8080 C.ar   64  TYR64       0.1957
     29  OH        -1.3620   53.4790  120.1400 O.3    64  TYR64      -0.2866
     30  N          0.2130   58.1530  120.9380 N.3    67  TYR67      -0.1241
     31  CA         1.4070   58.6100  120.2600 C.3    67  TYR67       0.1605
     32  C          2.4440   59.1340  121.2580 C.2    67  TYR67       0.2264
     33  O          2.0890   59.8120  122.2250 O.2    67  TYR67      -0.2867
     34  CB         0.9970   59.6320  119.2000 C.3    67  TYR67       0.0534
     35  CG         0.1470   58.9860  118.1480 C.ar   67  TYR67      -0.0201
     36  CD1        0.7250   58.2770  117.1080 C.ar   67  TYR67      -0.0009
     37  CD2       -1.2310   59.0470  118.2270 C.ar   67  TYR67      -0.0009
     38  CE1       -0.0560   57.6430  116.1590 C.ar   67  TYR67       0.0417
     39  CE2       -2.0300   58.4470  117.2690 C.ar   67  TYR67       0.0417
     40  CZ        -1.4360   57.7240  116.2480 C.ar   67  TYR67       0.1957
     41  OH        -2.2420   57.1200  115.3290 O.3    67  TYR67      -0.2866
     42  N         -3.5140   52.9990  125.4650 N.3   100  GLU100     -0.1245
     43  CA        -3.0490   51.7110  125.9970 C.3   100  GLU100      0.1567
     44  C         -2.7180   51.9130  127.4650 C.2   100  GLU100      0.2260
     45  O         -2.1800   52.9620  127.8110 O.2   100  GLU100     -0.2867
     46  CB        -1.7760   51.2640  125.2660 C.3   100  GLU100      0.0388
     47  CG        -1.9700   50.9570  123.7830 C.3   100  GLU100      0.1160
     48  CD        -2.7470   49.6760  123.4800 C.2   100  GLU100      0.3649
     49  OE1       -3.0810   48.9530  124.4310 O.co2 100  GLU100     -0.2457
     50  OE2       -3.0180   49.3830  122.2860 O.co2 100  GLU100     -0.2457
     51  N         -7.2180   50.3370  126.3940 N.3   148  MET148     -0.1245
     52  CA        -7.3000   49.0810  125.6140 C.3   148  MET148      0.1570
     53  C         -6.6140   47.9140  126.3390 C.2   148  MET148      0.2261
     54  O         -5.5240   47.4500  125.9490 O.2   148  MET148     -0.2867
     55  CB        -6.7370   49.2930  124.2120 C.3   148  MET148      0.0387
     56  CG        -7.6120   50.2660  123.4460 C.3   148  MET148      0.0595
     57  SD        -7.1200   50.5290  121.7650 S.3   148  MET148     -0.1393
     58  CE        -5.5560   51.3490  122.0540 C.3   148  MET148      0.0692
     59  N         -6.9290   46.2450  115.3330 N.3   276  ALA276     -0.1245
     60  CA        -6.3650   47.1440  114.2830 C.3   276  ALA276      0.1562
     61  C         -6.0890   46.4620  112.9190 C.2   276  ALA276      0.2260
     62  O         -5.1670   45.6500  112.7480 O.2   276  ALA276     -0.2867
     63  CB        -5.1060   47.7770  114.8160 C.3   276  ALA276      0.0290
     64  N        -11.9700   49.3300  113.9190 N.3   312  MET312     -0.1230
     65  CA       -10.7570   50.0970  114.2260 C.3   312  MET312      0.1702
     66  C        -10.1350   50.6600  112.9450 C.2   312  MET312      0.2593
     67  O        -10.4170   50.1840  111.8300 O.2   312  MET312     -0.2718
     68  CB        -9.6830   49.2570  114.9240 C.3   312  MET312      0.0401
     69  CG        -9.6100   49.5040  116.3970 C.3   312  MET312      0.0596
     70  SD        -8.1110   48.8980  117.1830 S.3   312  MET312     -0.1393
     71  CE        -8.7300   48.8070  118.8610 C.3   312  MET312      0.0692
     72  N         -9.2720   51.6670  113.1400 N.am  313  GLY313     -0.1942
     73  CA        -8.3590   52.1260  112.1190 C.3   313  GLY313      0.2014
     74  C         -7.3500   51.0280  111.8440 C.2   313  GLY313      0.2639
     75  O         -7.4740   49.9060  112.3880 O.2   313  GLY313     -0.2714
     76  N         -6.3700   51.3460  110.9960 N.am  314  GLY314     -0.1954
     77  CA        -5.3200   50.4240  110.5880 C.3   314  GLY314      0.1869
     78  C         -5.7340   49.4880  109.4610 C.2   314  GLY314      0.2309
     79  O         -4.9890   48.6260  109.1070 O.2   314  GLY314     -0.2863
@<TRIPOS>BOND
     1    79    78    2
     2    78    77    1
     3    77    76    1
     4    76    74   am
     5    67    66    2
     6    74    73    1
     7    74    75    2
     8    73    72    1
     9    62    61    2
    10    61    60    1
    11    66    72   am
    12    66    65    1
    13     4     3    2
    14    64    65    1
    15     1     2    1
    16    14    15    1
    17    14    11    1
    18     3     2    1
    19    65    68    1
    20    60    63    1
    21    60    59    1
    22    13    12    2
    23    15    16   ar
    24    15    17   ar
    25    10    11    1
    26    68    69    1
    27     2     5    1
    28    11    12    1
    29    41    40    1
    30     5     6    1
    31     8     7    2
    32    38    40   ar
    33    38    36   ar
    34    40    39   ar
    35    69    70    1
    36     6     7    1
    37     7     9   am
    38    36    35   ar
    39    70    71    1
    40    39    37   ar
    41    35    37   ar
    42    35    34    1
    43    25    27   ar
    44    25    23   ar
    45    22    23    1
    46    22    19    1
    47    27    28   ar
    48    21    20    2
    49    18    19    1
    50    23    24   ar
    51    34    31    1
    52    19    20    1
    53    28    29    1
    54    28    26   ar
    55    24    26   ar
    56    31    30    1
    57    31    32    1
    58    32    33    2
    59    57    58    1
    60    57    56    1
    61    50    48   ar
    62    56    55    1
    63    48    47    1
    64    48    49   ar
    65    47    46    1
    66    55    52    1
    67    46    43    1
    68    42    43    1
    69    52    53    1
    70    52    51    1
    71    54    53    2
    72    43    44    1
    73    44    45    2
