@<TRIPOS>MOLECULE
tmp/5yqsB09.pdb
 144 137 0 0 0
SMALL
GASTEIGER

@<TRIPOS>ATOM
      1  N        -13.6550   54.1090  114.1100 N.3    33  GLN33      -0.1245
      2  CA       -12.6090   54.7340  114.9420 C.3    33  GLN33       0.1566
      3  C        -11.8310   55.8450  114.2000 C.2    33  GLN33       0.2260
      4  O        -11.2290   55.6150  113.1520 O.2    33  GLN33      -0.2867
      5  CB       -11.6120   53.6620  115.4170 C.3    33  GLN33       0.0367
      6  CG       -10.6850   54.0550  116.5760 C.3    33  GLN33       0.0905
      7  CD        -9.3710   53.2750  116.6350 C.2    33  GLN33       0.2608
      8  OE1       -8.8960   52.7180  115.6370 O.2    33  GLN33      -0.2717
      9  NE2       -8.7590   53.2300  117.8150 N.am   33  GLN33      -0.0878
     10  N         -8.1610   57.3960  118.7540 N.3    64  TYR64      -0.1241
     11  CA        -6.9500   56.8690  119.3860 C.3    64  TYR64       0.1605
     12  C         -5.9590   58.0030  119.6140 C.2    64  TYR64       0.2264
     13  O         -5.8110   58.8660  118.7410 O.2    64  TYR64      -0.2867
     14  CB        -6.3500   55.7570  118.5160 C.3    64  TYR64       0.0534
     15  CG        -5.0530   55.1350  118.9990 C.ar   64  TYR64      -0.0201
     16  CD1       -4.9890   54.2850  120.1080 C.ar   64  TYR64      -0.0009
     17  CD2       -3.8630   55.3830  118.3140 C.ar   64  TYR64      -0.0009
     18  CE1       -3.7710   53.7320  120.5270 C.ar   64  TYR64       0.0417
     19  CE2       -2.6550   54.8230  118.7110 C.ar   64  TYR64       0.0417
     20  CZ        -2.6030   53.9810  119.8080 C.ar   64  TYR64       0.1957
     21  OH        -1.3620   53.4790  120.1400 O.3    64  TYR64      -0.2866
     22  N         -3.5140   52.9990  125.4650 N.3   100  GLU100     -0.1245
     23  CA        -3.0490   51.7110  125.9970 C.3   100  GLU100      0.1567
     24  C         -2.7180   51.9130  127.4650 C.2   100  GLU100      0.2260
     25  O         -2.1800   52.9620  127.8110 O.2   100  GLU100     -0.2867
     26  CB        -1.7760   51.2640  125.2660 C.3   100  GLU100      0.0388
     27  CG        -1.9700   50.9570  123.7830 C.3   100  GLU100      0.1160
     28  CD        -2.7470   49.6760  123.4800 C.2   100  GLU100      0.3649
     29  OE1       -3.0810   48.9530  124.4310 O.co2 100  GLU100     -0.2457
     30  OE2       -3.0180   49.3830  122.2860 O.co2 100  GLU100     -0.2457
     31  N         -7.2180   50.3370  126.3940 N.3   148  MET148     -0.1245
     32  CA        -7.3000   49.0810  125.6140 C.3   148  MET148      0.1570
     33  C         -6.6140   47.9140  126.3390 C.2   148  MET148      0.2261
     34  O         -5.5240   47.4500  125.9490 O.2   148  MET148     -0.2867
     35  CB        -6.7370   49.2930  124.2120 C.3   148  MET148      0.0387
     36  CG        -7.6120   50.2660  123.4460 C.3   148  MET148      0.0595
     37  SD        -7.1200   50.5290  121.7650 S.3   148  MET148     -0.1393
     38  CE        -5.5560   51.3490  122.0540 C.3   148  MET148      0.0692
     39  N          3.3010   37.3490  122.8920 N.3   162  ARG162     -0.1245
     40  CA         2.5030   38.1760  123.8010 C.3   162  ARG162      0.1563
     41  C          2.1600   37.4630  125.1230 C.2   162  ARG162      0.2260
     42  O          1.3170   37.9300  125.8970 O.2   162  ARG162     -0.2867
     43  CB         1.2290   38.6060  123.0880 C.3   162  ARG162      0.0307
     44  CG         1.4810   39.3190  121.7650 C.3   162  ARG162      0.0489
     45  CD         0.8680   40.6990  121.7940 C.3   162  ARG162      0.2205
     46  NE        -0.2190   40.8920  120.8850 N.pl3 162  ARG162     -0.0865
     47  CZ        -1.1680   41.8260  120.9900 C.cat 162  ARG162      0.5346
     48  NH1       -1.2350   42.6760  122.0090 N.pl3 162  ARG162      0.1354
     49  NH2       -2.0680   41.8970  120.0210 N.pl3 162  ARG162      0.1354
     50  N         -9.7130   42.3770  126.0500 N.3   195  LYS195     -0.1231
     51  CA        -9.1520   41.8600  124.7710 C.3   195  LYS195      0.1693
     52  C         -8.4200   40.5390  125.0190 C.2   195  LYS195      0.2592
     53  O         -7.9820   40.2910  126.1350 O.2   195  LYS195     -0.2718
     54  CB        -8.1880   42.8740  124.1530 C.3   195  LYS195      0.0285
     55  CG        -7.2130   43.5070  125.1360 C.3   195  LYS195      0.0035
     56  CD        -5.8420   43.8930  124.6050 C.3   195  LYS195      0.0206
     57  CE        -5.7650   45.2350  123.9200 C.3   195  LYS195      0.1093
     58  NZ        -4.4360   45.8780  124.1180 N.3   195  LYS195     -0.1314
     59  N         -8.2800   39.6340  124.0450 N.am  196  HIS196     -0.1976
     60  CA        -8.7170   39.6910  122.6700 C.3   196  HIS196      0.1656
     61  C         -9.7060   38.5380  122.4380 C.2   196  HIS196      0.2291
     62  O         -9.3300   37.3550  122.4160 O.2   196  HIS196     -0.2864
     63  CB        -7.5070   39.4980  121.7520 C.3   196  HIS196      0.0771
     64  CG        -6.3980   40.4830  121.9290 C.ar  196  HIS196      0.0820
     65  ND1       -6.3320   41.6350  121.1780 N.ar  196  HIS196     -0.2267
     66  CD2       -5.2910   40.4820  122.7040 C.ar  196  HIS196      0.1154
     67  CE1       -5.2340   42.3090  121.4900 C.ar  196  HIS196      0.1986
     68  NE2       -4.5700   41.6160  122.4160 N.ar  196  HIS196     -0.2212
     69  N        -12.7170   44.2540  122.8450 N.3   240  MET240     -0.1245
     70  CA       -12.0420   44.1460  121.5490 C.3   240  MET240      0.1570
     71  C        -12.0090   42.6830  121.0860 C.2   240  MET240      0.2261
     72  O        -11.5140   41.8370  121.8170 O.2   240  MET240     -0.2867
     73  CB       -10.5980   44.6500  121.6380 C.3   240  MET240      0.0387
     74  CG        -9.9320   44.7570  120.2650 C.3   240  MET240      0.0595
     75  SD        -8.1660   45.1070  120.2610 S.3   240  MET240     -0.1393
     76  CE        -8.0610   46.4040  121.4860 C.3   240  MET240      0.0692
     77  N         -7.6960   38.9650  116.1540 N.3   243  TYR243     -0.1241
     78  CA        -7.1490   38.7990  114.8630 C.3   243  TYR243      0.1605
     79  C         -7.2900   37.3720  114.2910 C.2   243  TYR243      0.2264
     80  O         -7.1840   37.1940  113.0620 O.2   243  TYR243     -0.2867
     81  CB        -5.6630   39.0940  114.9850 C.3   243  TYR243      0.0534
     82  CG        -5.2370   40.5310  114.9520 C.ar  243  TYR243     -0.0201
     83  CD1       -5.7690   41.4040  114.0170 C.ar  243  TYR243     -0.0009
     84  CD2       -4.2050   40.9860  115.7680 C.ar  243  TYR243     -0.0009
     85  CE1       -5.3290   42.7140  113.9390 C.ar  243  TYR243      0.0417
     86  CE2       -3.7320   42.2880  115.6780 C.ar  243  TYR243      0.0417
     87  CZ        -4.2990   43.1520  114.7590 C.ar  243  TYR243      0.1957
     88  OH        -3.8910   44.4560  114.6250 O.3   243  TYR243     -0.2866
     89  N        -10.0030   44.5110  116.3020 N.3   275  ASP275     -0.1225
     90  CA        -8.6090   44.8950  116.5060 C.3   275  ASP275      0.1805
     91  C         -8.1680   45.7460  115.3070 C.2   275  ASP275      0.2597
     92  O         -8.9330   45.9530  114.3730 O.2   275  ASP275     -0.2718
     93  CB        -7.7320   43.6570  116.6920 C.3   275  ASP275      0.1424
     94  CG        -6.5720   43.8280  117.6690 C.2   275  ASP275      0.3668
     95  OD1       -6.0800   44.9640  117.8740 O.co2 275  ASP275     -0.2456
     96  OD2       -6.1240   42.8110  118.2080 O.co2 275  ASP275     -0.2456
     97  N         -6.9290   46.2450  115.3330 N.am  276  ALA276     -0.1979
     98  CA        -6.3650   47.1440  114.2830 C.3   276  ALA276      0.1597
     99  C         -6.0890   46.4620  112.9190 C.2   276  ALA276      0.2287
    100  O         -5.1670   45.6500  112.7480 O.2   276  ALA276     -0.2864
    101  CB        -5.1060   47.7770  114.8160 C.3   276  ALA276      0.0319
    102  N        -11.9700   49.3300  113.9190 N.3   312  MET312     -0.1245
    103  CA       -10.7570   50.0970  114.2260 C.3   312  MET312      0.1570
    104  C        -10.1350   50.6600  112.9450 C.2   312  MET312      0.2261
    105  O        -10.4170   50.1840  111.8300 O.2   312  MET312     -0.2867
    106  CB        -9.6830   49.2570  114.9240 C.3   312  MET312      0.0387
    107  CG        -9.6100   49.5040  116.3970 C.3   312  MET312      0.0595
    108  SD        -8.1110   48.8980  117.1830 S.3   312  MET312     -0.1393
    109  CE        -8.7300   48.8070  118.8610 C.3   312  MET312      0.0692
    110  N          4.6050   47.3860  125.0620 N.3   420  TYR420     -0.1241
    111  CA         3.6100   48.3830  125.4830 C.3   420  TYR420      0.1605
    112  C          4.1880   49.3860  126.4810 C.2   420  TYR420      0.2264
    113  O          3.5980   49.7890  127.4980 O.2   420  TYR420     -0.2867
    114  CB         2.2980   47.6980  125.8300 C.3   420  TYR420      0.0534
    115  CG         1.5650   47.3480  124.5530 C.ar  420  TYR420     -0.0201
    116  CD1        0.7810   48.2900  123.8990 C.ar  420  TYR420     -0.0009
    117  CD2        1.7360   46.1190  123.9300 C.ar  420  TYR420     -0.0009
    118  CE1        0.1340   48.0050  122.7040 C.ar  420  TYR420      0.0417
    119  CE2        1.0810   45.8110  122.7380 C.ar  420  TYR420      0.0417
    120  CZ         0.2840   46.7600  122.1060 C.ar  420  TYR420      0.1957
    121  OH        -0.3590   46.4980  120.9140 O.3   420  TYR420     -0.2866
    122  N          8.3140   48.0720  116.1310 N.3   490  TRP490     -0.1241
    123  CA         7.6840   48.1390  114.7850 C.3   490  TRP490      0.1605
    124  C          8.6120   48.6540  113.6780 C.2   490  TRP490      0.2264
    125  O          8.2610   48.5520  112.4940 O.2   490  TRP490     -0.2867
    126  CB         6.3430   48.8960  114.8370 C.3   490  TRP490      0.0550
    127  CG         5.3400   48.0590  115.5620 C.ar  490  TRP490      0.0003
    128  CD1        4.9160   48.1910  116.8540 C.ar  490  TRP490      0.0946
    129  CD2        4.7490   46.8410  115.0770 C.ar  490  TRP490      0.0152
    130  NE1        4.0580   47.1730  117.1880 N.ar  490  TRP490     -0.2442
    131  CE2        3.9330   46.3260  116.1130 C.ar  490  TRP490      0.0810
    132  CE3        4.8060   46.1530  113.8610 C.ar  490  TRP490      0.0012
    133  CZ2        3.1860   45.1550  115.9630 C.ar  490  TRP490      0.0191
    134  CZ3        4.0770   44.9900  113.7140 C.ar  490  TRP490      0.0001
    135  CH2        3.2790   44.4990  114.7540 C.ar  490  TRP490      0.0015
    136  N          4.8630   41.6730  121.0360 N.3   499  GLU499     -0.1245
    137  CA         3.9480   41.5630  119.9150 C.3   499  GLU499      0.1567
    138  C          4.7240   41.4410  118.5900 C.2   499  GLU499      0.2260
    139  O          5.5650   42.3010  118.2810 O.2   499  GLU499     -0.2867
    140  CB         3.0240   42.7760  119.8680 C.3   499  GLU499      0.0388
    141  CG         1.9300   42.6980  118.8120 C.3   499  GLU499      0.1160
    142  CD         0.9610   43.8840  118.8450 C.2   499  GLU499      0.3649
    143  OE1        0.9920   44.6490  119.8470 O.co2 499  GLU499     -0.2457
    144  OE2        0.1630   44.0570  117.8810 O.co2 499  GLU499     -0.2457
@<TRIPOS>BOND
     1   105   104    2
     2   125   124    2
     3   100    99    2
     4    99    98    1
     5   104   103    1
     6    80    79    2
     7     4     3    2
     8   124   123    1
     9   134   132   ar
    10   134   135   ar
    11   132   129   ar
    12   102   103    1
    13    85    83   ar
    14    85    87   ar
    15    83    82   ar
    16     1     2    1
    17     3     2    1
    18   103   106    1
    19    98   101    1
    20    98    97    1
    21    79    78    1
    22    92    91    2
    23    88    87    1
    24   135   133   ar
    25    87    86   ar
    26   123   126    1
    27   123   122    1
    28   126   127    1
    29    78    81    1
    30    78    77    1
    31   106   107    1
    32     2     5    1
    33    82    81    1
    34    82    84   ar
    35   129   127   ar
    36   129   131   ar
    37    91    97   am
    38    91    90    1
    39     5     6    1
    40   127   128   ar
    41     8     7    2
    42    86    84   ar
    43   133   131   ar
    44   131   130   ar
    45    89    90    1
    46   107   108    1
    47    90    93    1
    48     6     7    1
    49     7     9   am
    50    93    94    1
    51   128   130   ar
    52   108   109    1
    53    94    95   ar
    54    94    96   ar
    55   144   142   ar
    56   139   138    2
    57    17    19   ar
    58    17    15   ar
    59    14    15    1
    60    14    11    1
    61   138   137    1
    62    19    20   ar
    63    13    12    2
    64    10    11    1
    65   141   142    1
    66   141   140    1
    67   142   143   ar
    68    15    16   ar
    69    11    12    1
    70    20    21    1
    71    20    18   ar
    72   140   137    1
    73   137   136    1
    74    49    47    1
    75    16    18   ar
    76    75    74    1
    77    75    76    1
    78    74    73    1
    79    46    47    2
    80    46    45    1
    81   121   120    1
    82    47    48    1
    83    71    70    1
    84    71    72    2
    85    65    67   ar
    86    65    64   ar
    87    67    68   ar
    88    70    73    1
    89    70    69    1
    90    63    64    1
    91    63    60    1
    92    44    45    1
    93    44    43    1
    94    37    38    1
    95    37    36    1
    96    64    66   ar
    97   120   118   ar
    98   120   119   ar
    99    30    28   ar
   100    68    66   ar
   101    62    61    2
   102    61    60    1
   103    60    59    1
   104   118   116   ar
   105   119   117   ar
   106    39    40    1
   107    43    40    1
   108    36    35    1
   109    28    27    1
   110    28    29   ar
   111    27    26    1
   112    40    41    1
   113   116   115   ar
   114    57    58    1
   115    57    56    1
   116   117   115   ar
   117    59    52   am
   118    54    51    1
   119    54    55    1
   120    35    32    1
   121   115   114    1
   122    56    55    1
   123    51    52    1
   124    51    50    1
   125    52    53    2
   126   110   111    1
   127    41    42    2
   128    26    23    1
   129    22    23    1
   130   111   114    1
   131   111   112    1
   132    32    33    1
   133    32    31    1
   134    34    33    2
   135    23    24    1
   136   112   113    2
   137    24    25    2
