@<TRIPOS>MOLECULE
tmp/5yqwA01.pdb
 112 105 0 0 0
SMALL
GASTEIGER

@<TRIPOS>ATOM
      1  N        -34.7310   -0.8920   29.7530 N.3   105  SER105     -0.1202
      2  CA       -34.3690   -2.3400   29.7460 C.3   105  SER105      0.2020
      3  C        -35.5080   -3.3600   29.5320 C.2   105  SER105      0.2619
      4  O        -35.2420   -4.5980   29.4970 O.2   105  SER105     -0.2717
      5  CB       -33.6770   -2.6740   31.0720 C.3   105  SER105      0.2103
      6  OG       -34.5740   -2.3600   32.1480 O.3   105  SER105     -0.2182
      7  N        -36.7420   -2.8770   29.3670 N.am  106  GLY106     -0.1956
      8  CA       -37.8910   -3.7990   29.2730 C.3   106  GLY106      0.1869
      9  C        -38.4670   -4.2360   30.6230 C.2   106  GLY106      0.2309
     10  O        -39.2170   -5.2260   30.6820 O.2   106  GLY106     -0.2863
     11  N        -42.2540   -5.0660   30.9340 N.3   109  SER109     -0.1202
     12  CA       -42.7970   -6.3460   30.4180 C.3   109  SER109      0.2020
     13  C        -42.8680   -7.4090   31.5600 C.2   109  SER109      0.2618
     14  O        -43.6550   -8.3940   31.4270 O.2   109  SER109     -0.2717
     15  CB       -42.0280   -6.8930   29.2080 C.3   109  SER109      0.2103
     16  OG       -42.1000   -5.9760   28.1110 O.3   109  SER109     -0.2182
     17  N        -42.0340   -7.2590   32.6240 N.am  110  TRP110     -0.1975
     18  CA       -41.9010   -8.3000   33.6140 C.3   110  TRP110      0.1640
     19  C        -42.5400   -7.9350   34.9240 C.2   110  TRP110      0.2290
     20  O        -43.1540   -8.8320   35.5470 O.2   110  TRP110     -0.2864
     21  CB       -40.4100   -8.6170   33.8950 C.3   110  TRP110      0.0576
     22  CG       -39.7680   -9.2820   32.7860 C.ar  110  TRP110      0.0006
     23  CD1      -38.7890   -8.7420   31.9200 C.ar  110  TRP110      0.0946
     24  CD2      -40.0070  -10.6230   32.3300 C.ar  110  TRP110      0.0152
     25  NE1      -38.4540   -9.6890   30.9880 N.ar  110  TRP110     -0.2442
     26  CE2      -39.1240  -10.8610   31.2300 C.ar  110  TRP110      0.0810
     27  CE3      -40.8180  -11.6780   32.8050 C.ar  110  TRP110      0.0012
     28  CZ2      -39.1140  -12.0970   30.5290 C.ar  110  TRP110      0.0191
     29  CZ3      -40.8020  -12.8780   32.1290 C.ar  110  TRP110      0.0001
     30  CH2      -39.9450  -13.1030   31.0220 C.ar  110  TRP110      0.0015
     31  N        -45.5390  -10.4500   35.7160 N.3   127  SER127     -0.1202
     32  CA       -46.5050  -10.8270   34.6330 C.3   127  SER127      0.2020
     33  C        -46.4330  -12.2920   34.2620 C.2   127  SER127      0.2618
     34  O        -47.4520  -12.8470   33.7220 O.2   127  SER127     -0.2717
     35  CB       -46.2170   -9.9790   33.3840 C.3   127  SER127      0.2103
     36  OG       -44.9140  -10.2900   32.9240 O.3   127  SER127     -0.2182
     37  N        -45.2750  -12.9100   34.4720 N.am  128  GLU128     -0.1979
     38  CA       -44.9490  -14.2410   33.9970 C.3   128  GLU128      0.1602
     39  C        -43.7430  -14.7820   34.8380 C.2   128  GLU128      0.2287
     40  O        -42.9140  -14.0170   35.3200 O.2   128  GLU128     -0.2864
     41  CB       -44.6230  -14.2070   32.4740 C.3   128  GLU128      0.0415
     42  CG       -44.0070  -15.4900   31.8590 C.3   128  GLU128      0.1163
     43  CD       -44.9840  -16.6880   31.8870 C.2   128  GLU128      0.3649
     44  OE1      -45.3990  -17.1390   30.7810 O.co2 128  GLU128     -0.2457
     45  OE2      -45.3630  -17.1920   32.9940 O.co2 128  GLU128     -0.2457
     46  N        -32.8180   -8.7150   36.2210 N.3   136  GLU136     -0.1245
     47  CA       -33.5950   -7.6200   35.5750 C.3   136  GLU136      0.1567
     48  C        -33.9300   -6.4550   36.4820 C.2   136  GLU136      0.2260
     49  O        -33.7840   -5.2860   36.0850 O.2   136  GLU136     -0.2867
     50  CB       -34.9160   -8.1600   34.8950 C.3   136  GLU136      0.0388
     51  CG       -34.6300   -9.2480   33.8410 C.3   136  GLU136      0.1160
     52  CD       -33.8360   -8.8000   32.6330 C.2   136  GLU136      0.3649
     53  OE1      -33.8920   -7.5740   32.3130 O.co2 136  GLU136     -0.2457
     54  OE2      -33.2150   -9.6910   31.9810 O.co2 136  GLU136     -0.2457
     55  N        -31.1780   -3.7780   37.1470 N.3   139  LYS139     -0.1301
     56  CA       -30.8410   -2.8090   36.1020 C.3   139  LYS139      0.1247
     57  C        -31.4710   -1.4580   36.3520 C.3   139  LYS139      0.2009
     58  O        -31.0400   -0.4250   35.7150 O.3   139  LYS139     -0.2188
     59  CB       -31.3110   -3.3450   34.6940 C.3   139  LYS139      0.0218
     60  CG       -30.6480   -4.6430   34.2520 C.3   139  LYS139      0.0031
     61  CD       -31.1860   -5.0880   32.9020 C.3   139  LYS139      0.0205
     62  CE       -30.4950   -6.3140   32.3720 C.3   139  LYS139      0.1093
     63  NZ       -31.2560   -6.7430   31.1470 N.3   139  LYS139     -0.1314
     64  N        -28.7530  -15.9370   26.5130 N.3   419  TYR419     -0.1241
     65  CA       -29.9460  -15.1000   26.5370 C.3   419  TYR419      0.1605
     66  C        -29.6500  -13.6140   26.4260 C.2   419  TYR419      0.2264
     67  O        -30.4590  -12.8910   25.9200 O.2   419  TYR419     -0.2867
     68  CB       -30.7380  -15.4430   27.8260 C.3   419  TYR419      0.0534
     69  CG       -32.0090  -14.6770   28.0830 C.ar  419  TYR419     -0.0201
     70  CD1      -32.0330  -13.4490   28.7220 C.ar  419  TYR419     -0.0009
     71  CD2      -33.2670  -15.1880   27.6360 C.ar  419  TYR419     -0.0009
     72  CE1      -33.1950  -12.7530   29.0730 C.ar  419  TYR419      0.0417
     73  CE2      -34.4760  -14.5560   27.9710 C.ar  419  TYR419      0.0417
     74  CZ       -34.4570  -13.2980   28.6750 C.ar  419  TYR419      0.1957
     75  OH       -35.5550  -12.6200   29.1070 O.3   419  TYR419     -0.2866
     76  N        -32.0570  -12.3630   23.6010 N.3   423  ASN423     -0.1240
     77  CA       -33.2010  -11.6000   24.0130 C.3   423  ASN423      0.1653
     78  C        -33.0880  -10.1050   23.6060 C.2   423  ASN423      0.2266
     79  O        -34.0130   -9.5480   23.0470 O.2   423  ASN423     -0.2867
     80  CB       -33.4540  -11.7120   25.5400 C.3   423  ASN423      0.1155
     81  CG       -34.8760  -11.3320   25.8720 C.2   423  ASN423      0.2627
     82  OD1      -35.8430  -11.9060   25.3390 O.2   423  ASN423     -0.2716
     83  ND2      -35.0070  -10.2930   26.7210 N.am  423  ASN423     -0.0877
     84  N        -36.0420   -9.8890   20.8100 N.3   427  ASN427     -0.1240
     85  CA       -37.4410   -9.8600   21.3940 C.3   427  ASN427      0.1653
     86  C        -38.1980   -8.6620   20.8790 C.2   427  ASN427      0.2266
     87  O        -37.7620   -7.5250   21.0940 O.2   427  ASN427     -0.2867
     88  CB       -37.3660   -9.8110   22.9150 C.3   427  ASN427      0.1155
     89  CG       -38.6810  -10.2410   23.5670 C.2   427  ASN427      0.2627
     90  OD1      -39.7380   -9.7170   23.2700 O.2   427  ASN427     -0.2716
     91  ND2      -38.5850  -11.2480   24.4370 N.am  427  ASN427     -0.0877
     92  N        -40.7540   -7.2160   22.0300 N.3   429  ALA429     -0.1231
     93  CA       -41.1800   -6.2960   23.1150 C.3   429  ALA429      0.1694
     94  C        -40.1590   -5.1560   23.2640 C.2   429  ALA429      0.2591
     95  O        -40.4860   -4.1550   23.9100 O.2   429  ALA429     -0.2718
     96  CB       -41.3230   -7.0520   24.4390 C.3   429  ALA429      0.0304
     97  N        -38.9170   -5.3350   22.7560 N.am  430  LEU430     -0.1980
     98  CA       -37.8610   -4.2930   22.8920 C.3   430  LEU430      0.1596
     99  C        -37.7560   -3.3680   21.6830 C.2   430  LEU430      0.2287
    100  O        -36.7920   -2.6180   21.5660 O.2   430  LEU430     -0.2864
    101  CB       -36.5210   -5.0090   23.1860 C.3   430  LEU430      0.0297
    102  CG       -36.4960   -5.8100   24.5130 C.3   430  LEU430      0.0022
    103  CD1      -35.1950   -6.6280   24.6560 C.3   430  LEU430      0.0001
    104  CD2      -36.5180   -4.8940   25.7440 C.3   430  LEU430      0.0001
    105  N        -39.2960  -15.7920   25.9900 N.3   454  ASN454     -0.1240
    106  CA       -40.0300  -15.5550   27.2570 C.3   454  ASN454      0.1653
    107  C        -40.1270  -16.7950   28.1450 C.2   454  ASN454      0.2266
    108  O        -40.3820  -16.6480   29.3950 O.2   454  ASN454     -0.2867
    109  CB       -41.3960  -14.9430   26.9890 C.3   454  ASN454      0.1155
    110  CG       -41.3150  -13.5970   26.2640 C.2   454  ASN454      0.2627
    111  OD1      -40.2900  -12.8940   26.3400 O.2   454  ASN454     -0.2716
    112  ND2      -42.4070  -13.1610   25.6570 N.am  454  ASN454     -0.0877
@<TRIPOS>BOND
     1    84    85    1
     2    86    87    2
     3    86    85    1
     4    85    88    1
     5   100    99    2
     6    99    98    1
     7    92    93    1
     8    97    98    1
     9    97    94   am
    10    98   101    1
    11    88    89    1
    12    79    78    2
    13    93    94    1
    14    93    96    1
    15   101   102    1
    16    94    95    2
    17    90    89    2
    18    89    91   am
    19    76    77    1
    20    78    77    1
    21    77    80    1
    22   102   103    1
    23   102   104    1
    24    82    81    2
    25    80    81    1
    26   112   110   am
    27    81    83   am
    28    67    66    2
    29   105   106    1
    30   110   111    2
    31   110   109    1
    32    66    65    1
    33    64    65    1
    34    65    68    1
    35   109   106    1
    36   106   107    1
    37    71    73   ar
    38    71    69   ar
    39    68    69    1
    40    73    74   ar
    41    69    70   ar
    42    16    15    1
    43   107   108    2
    44    74    72   ar
    45    74    75    1
    46    70    72   ar
    47    15    12    1
    48     8     7    1
    49     8     9    1
    50     7     3   am
    51     4     3    2
    52     3     2    1
    53     2     1    1
    54     2     5    1
    55    12    11    1
    56    12    13    1
    57    28    30   ar
    58    28    26   ar
    59     9    10    2
    60    44    43   ar
    61    25    26   ar
    62    25    23   ar
    63    30    29   ar
    64     5     6    1
    65    63    62    1
    66    26    24   ar
    67    14    13    2
    68    13    17   am
    69    42    43    1
    70    42    41    1
    71    43    45   ar
    72    23    22   ar
    73    54    52   ar
    74    29    27   ar
    75    53    52   ar
    76    24    22   ar
    77    24    27   ar
    78    62    61    1
    79    41    38    1
    80    17    18    1
    81    52    51    1
    82    22    21    1
    83    61    60    1
    84    36    35    1
    85    35    32    1
    86    18    21    1
    87    18    19    1
    88    34    33    2
    89    51    50    1
    90    38    37    1
    91    38    39    1
    92    60    59    1
    93    33    37   am
    94    33    32    1
    95    32    31    1
    96    59    56    1
    97    39    40    2
    98    50    47    1
    99    19    20    2
   100    47    46    1
   101    47    48    1
   102    58    57    1
   103    49    48    2
   104    56    57    1
   105    56    55    1
