@<TRIPOS>MOLECULE
tmp/5yqwA02.pdb
 220 221 0 0 0
SMALL
GASTEIGER

@<TRIPOS>ATOM
      1  N        -12.5240    7.0980   30.9740 N.3     9  HIS9       -0.1227
      2  CA       -13.0950    7.5640   29.6900 C.3     9  HIS9        0.1737
      3  C        -14.2740    6.5900   29.2740 C.2     9  HIS9        0.2438
      4  O        -14.0640    5.5940   28.5230 O.2     9  HIS9       -0.2733
      5  CB       -11.9720    7.5730   28.5650 C.3     9  HIS9        0.0758
      6  CG       -12.5140    7.9810   27.1980 C.ar    9  HIS9        0.0818
      7  ND1      -13.4940    8.9500   27.0460 N.ar    9  HIS9       -0.2268
      8  CD2      -12.1590    7.5450   25.9500 C.ar    9  HIS9        0.1154
      9  CE1      -13.7460    9.0710   25.7300 C.ar    9  HIS9        0.1986
     10  NE2      -12.9220    8.2820   25.0500 N.ar    9  HIS9       -0.2212
     11  N        -15.4860    6.8130   29.8070 N.am   10  PRO10      -0.2718
     12  CA       -16.5780    5.7960   29.5210 C.3    10  PRO10       0.1535
     13  C        -17.2540    6.0310   28.1550 C.2    10  PRO10       0.2598
     14  O        -17.8690    5.0980   27.6370 O.2    10  PRO10      -0.2715
     15  CB       -17.6040    6.0730   30.6320 C.3    10  PRO10       0.0310
     16  CG       -17.2790    7.4610   31.1480 C.3    10  PRO10       0.0237
     17  CD       -15.7960    7.6880   30.9640 C.3    10  PRO10       0.0939
     18  N        -17.1550    7.2280   27.5600 N.am   11  LYS11      -0.1964
     19  CA       -18.0260    7.5840   26.3770 C.3    11  LYS11       0.1728
     20  C        -17.3960    8.7710   25.6390 C.2    11  LYS11       0.2616
     21  O        -17.0530    9.7920   26.2540 O.2    11  LYS11      -0.2715
     22  CB       -19.4620    7.9560   26.9060 C.3    11  LYS11       0.0311
     23  CG       -20.4370    8.4440   25.7920 C.3    11  LYS11       0.0038
     24  CD       -20.6880    7.3810   24.7960 C.3    11  LYS11       0.0206
     25  CE       -21.8060    7.7010   23.7800 C.3    11  LYS11       0.1093
     26  NZ       -22.5260    8.9440   24.1190 N.3    11  LYS11      -0.1314
     27  N        -17.2570    8.6670   24.3240 N.am   12  GLU12      -0.1977
     28  CA       -16.8150    9.8330   23.5580 C.3    12  GLU12       0.1602
     29  C        -17.8870   10.8940   23.3630 C.2    12  GLU12       0.2287
     30  O        -19.1210   10.5990   23.2220 O.2    12  GLU12      -0.2864
     31  CB       -16.1700    9.3610   22.2330 C.3    12  GLU12       0.0415
     32  CG       -16.9630    8.5540   21.2520 C.3    12  GLU12       0.1163
     33  CD       -16.9720    7.0720   21.6870 C.2    12  GLU12       0.3649
     34  OE1      -17.9370    6.7680   22.4000 O.co2  12  GLU12      -0.2457
     35  OE2      -16.0720    6.2440   21.3320 O.co2  12  GLU12      -0.2457
     36  N        -22.0640    9.4750   31.2380 N.3    30  HIS30      -0.1241
     37  CA       -22.0050    8.0160   31.4440 C.3    30  HIS30       0.1621
     38  C        -21.1810    7.6570   32.6970 C.2    30  HIS30       0.2264
     39  O        -20.6800    6.4910   32.8160 O.2    30  HIS30      -0.2867
     40  CB       -21.3380    7.3500   30.1950 C.3    30  HIS30       0.0745
     41  CG       -22.2940    7.2020   29.0740 C.ar   30  HIS30       0.0817
     42  ND1      -22.2860    6.0940   28.2630 N.ar   30  HIS30      -0.2268
     43  CD2      -23.2980    8.0090   28.6490 C.ar   30  HIS30       0.1154
     44  CE1      -23.2380    6.2250   27.3490 C.ar   30  HIS30       0.1986
     45  NE2      -23.8920    7.3490   27.5620 N.ar   30  HIS30      -0.2212
     46  N        -11.3930    8.1010   18.1870 N.3   206  ASN206     -0.1240
     47  CA       -10.3060    7.2200   18.5390 C.3   206  ASN206      0.1653
     48  C         -8.9670    7.8530   18.1830 C.2   206  ASN206      0.2266
     49  O         -7.9640    7.4570   18.8400 O.2   206  ASN206     -0.2867
     50  CB       -10.4390    5.8450   17.8240 C.3   206  ASN206      0.1155
     51  CG       -11.5510    4.9490   18.4300 C.2   206  ASN206      0.2627
     52  OD1      -12.0940    5.2550   19.4820 O.2   206  ASN206     -0.2716
     53  ND2      -11.8920    3.8760   17.6770 N.am  206  ASN206     -0.0877
     54  N        -11.3130    1.8870   27.8380 N.3   222  SER222     -0.1202
     55  CA       -11.8500    0.6830   27.1340 C.3   222  SER222      0.2020
     56  C        -12.1110    1.0610   25.6450 C.2   222  SER222      0.2619
     57  O        -13.0790    0.5230   25.0260 O.2   222  SER222     -0.2717
     58  CB       -13.1650    0.2040   27.7720 C.3   222  SER222      0.2103
     59  OG       -12.9920   -0.2590   29.1510 O.3   222  SER222     -0.2182
     60  N        -11.1910    1.8310   25.0270 N.am  223  SER223     -0.1937
     61  CA       -11.3410    2.1890   23.6390 C.3   223  SER223      0.2055
     62  C        -10.5510    1.2560   22.7020 C.2   223  SER223      0.2643
     63  O         -9.6780    0.5060   23.0940 O.2   223  SER223     -0.2714
     64  CB       -10.7580    3.6350   23.4520 C.3   223  SER223      0.2130
     65  OG       -11.6330    4.6070   24.0640 O.3   223  SER223     -0.2179
     66  N        -10.9390    1.2840   21.3940 N.am  224  PHE224     -0.1973
     67  CA       -10.1360    0.6180   20.4040 C.3   224  PHE224      0.1639
     68  C         -8.7790    1.3580   20.2330 C.2   224  PHE224      0.2290
     69  O         -8.7780    2.6290   20.0470 O.2   224  PHE224     -0.2864
     70  CB       -10.8930    0.5970   19.0240 C.3   224  PHE224      0.0560
     71  CG       -10.0590   -0.0010   17.9350 C.ar  224  PHE224     -0.0200
     72  CD1       -9.6990   -1.3620   17.9470 C.ar  224  PHE224     -0.0042
     73  CD2       -9.5230    0.8500   16.9290 C.ar  224  PHE224     -0.0042
     74  CE1       -8.8870   -1.9160   16.9260 C.ar  224  PHE224     -0.0003
     75  CE2       -8.6550    0.2850   15.8930 C.ar  224  PHE224     -0.0003
     76  CZ        -8.3540   -1.0940   15.9130 C.ar  224  PHE224     -0.0000
     77  N        -20.8900   -9.2620   16.9410 N.3   249  GLN249     -0.1245
     78  CA       -21.0290   -8.0380   16.0910 C.3   249  GLN249      0.1566
     79  C        -21.6860   -8.4930   14.7750 C.2   249  GLN249      0.2260
     80  O        -21.3770   -9.5800   14.2690 O.2   249  GLN249     -0.2867
     81  CB       -19.6480   -7.4050   15.7890 C.3   249  GLN249      0.0367
     82  CG       -19.0140   -6.9060   17.0890 C.3   249  GLN249      0.0905
     83  CD       -17.6880   -6.2370   16.9260 C.2   249  GLN249      0.2608
     84  OE1      -17.2720   -5.7850   15.8130 O.2   249  GLN249     -0.2717
     85  NE2      -17.0490   -6.0550   18.0850 N.am  249  GLN249     -0.0878
     86  N         -9.4020   -4.9730   12.9380 N.3   289  PHE289     -0.1241
     87  CA        -9.2010   -5.1690   14.3860 C.3   289  PHE289      0.1605
     88  C         -7.7920   -5.6210   14.7600 C.2   289  PHE289      0.2264
     89  O         -7.5460   -6.0510   15.8980 O.2   289  PHE289     -0.2867
     90  CB       -10.2790   -6.1880   14.9190 C.3   289  PHE289      0.0534
     91  CG       -11.6910   -5.6750   14.7780 C.ar  289  PHE289     -0.0203
     92  CD1      -12.4990   -5.9070   13.5930 C.ar  289  PHE289     -0.0042
     93  CD2      -12.2650   -5.0280   15.8600 C.ar  289  PHE289     -0.0042
     94  CE1      -13.8010   -5.3960   13.4990 C.ar  289  PHE289     -0.0003
     95  CE2      -13.6060   -4.5350   15.7890 C.ar  289  PHE289     -0.0003
     96  CZ       -14.3570   -4.7230   14.5560 C.ar  289  PHE289     -0.0000
     97  N        -15.8070    5.6390   15.9420 N.3   365  TRP365     -0.1241
     98  CA       -15.5520    4.2040   16.2760 C.3   365  TRP365      0.1605
     99  C        -14.8370    3.6230   15.0620 C.2   365  TRP365      0.2264
    100  O        -15.4150    2.9050   14.2190 O.2   365  TRP365     -0.2867
    101  CB       -16.8610    3.4720   16.5580 C.3   365  TRP365      0.0550
    102  CG       -17.7670    3.9500   17.6710 C.ar  365  TRP365      0.0003
    103  CD1      -17.8770    5.2420   18.3000 C.ar  365  TRP365      0.0946
    104  CD2      -18.7370    3.1030   18.3470 C.ar  365  TRP365      0.0152
    105  NE1      -18.8350    5.1850   19.2660 N.ar  365  TRP365     -0.2442
    106  CE2      -19.3840    3.9220   19.3210 C.ar  365  TRP365      0.0810
    107  CE3      -19.1930    1.7430   18.1330 C.ar  365  TRP365      0.0012
    108  CZ2      -20.4580    3.4450   20.1210 C.ar  365  TRP365      0.0191
    109  CZ3      -20.2180    1.2570   19.0290 C.ar  365  TRP365      0.0001
    110  CH2      -20.8560    2.1400   19.9370 C.ar  365  TRP365      0.0015
    111  N        -12.5950    1.2590   14.2960 N.3   367  ASP367     -0.1225
    112  CA       -12.5760   -0.1810   14.0020 C.3   367  ASP367      0.1805
    113  C        -13.9140   -0.5190   13.2260 C.2   367  ASP367      0.2597
    114  O        -13.8360   -1.2680   12.2180 O.2   367  ASP367     -0.2718
    115  CB       -12.3490   -1.0120   15.2790 C.3   367  ASP367      0.1424
    116  CG       -13.2550   -0.5890   16.4550 C.2   367  ASP367      0.3668
    117  OD1      -13.8710    0.4590   16.5030 O.co2 367  ASP367     -0.2456
    118  OD2      -13.3620   -1.4780   17.3660 O.co2 367  ASP367     -0.2456
    119  N        -15.0610   -0.0280   13.7280 N.am  368  PHE368     -0.1976
    120  CA       -16.3450   -0.3070   13.0350 C.3   368  PHE368      0.1639
    121  C        -16.4010    0.4530   11.7020 C.2   368  PHE368      0.2290
    122  O        -16.9320   -0.1190   10.7150 O.2   368  PHE368     -0.2864
    123  CB       -17.4970    0.1330   13.9790 C.3   368  PHE368      0.0560
    124  CG       -17.7930   -0.8870   15.0870 C.ar  368  PHE368     -0.0200
    125  CD1      -16.7890   -1.7180   15.6540 C.ar  368  PHE368     -0.0042
    126  CD2      -19.0650   -0.8580   15.6840 C.ar  368  PHE368     -0.0042
    127  CE1      -17.1380   -2.6030   16.7430 C.ar  368  PHE368     -0.0003
    128  CE2      -19.3570   -1.7320   16.7730 C.ar  368  PHE368     -0.0003
    129  CZ       -18.4300   -2.5590   17.2680 C.ar  368  PHE368     -0.0000
    130  N        -23.0480    9.1530   17.2630 N.3   393  PHE393     -0.1241
    131  CA       -23.8130    8.0770   17.9550 C.3   393  PHE393      0.1605
    132  C        -25.2600    8.4100   18.2370 C.2   393  PHE393      0.2264
    133  O        -26.1490    7.5530   18.0320 O.2   393  PHE393     -0.2867
    134  CB       -23.0590    7.6410   19.2530 C.3   393  PHE393      0.0534
    135  CG       -23.7870    6.5110   19.9650 C.ar  393  PHE393     -0.0203
    136  CD1      -23.5050    5.1900   19.6230 C.ar  393  PHE393     -0.0042
    137  CD2      -24.8450    6.8160   20.8810 C.ar  393  PHE393     -0.0042
    138  CE1      -24.2120    4.1150   20.1850 C.ar  393  PHE393     -0.0003
    139  CE2      -25.5360    5.7630   21.4700 C.ar  393  PHE393     -0.0003
    140  CZ       -25.2750    4.4440   21.0890 C.ar  393  PHE393     -0.0000
    141  N        -22.3110   -3.8780   17.7450 N.3   411  ASN411     -0.1225
    142  CA       -22.1150   -4.9740   18.7100 C.3   411  ASN411      0.1785
    143  C        -23.3400   -5.0540   19.6480 C.2   411  ASN411      0.2597
    144  O        -24.3260   -4.3390   19.5140 O.2   411  ASN411     -0.2718
    145  CB       -20.7700   -4.6380   19.5270 C.3   411  ASN411      0.1169
    146  CG       -20.7420   -3.2230   20.1230 C.2   411  ASN411      0.2627
    147  OD1      -21.5860   -2.3870   19.9260 O.2   411  ASN411     -0.2716
    148  ND2      -19.6670   -2.9830   20.8980 N.am  411  ASN411     -0.0877
    149  N        -23.1910   -5.9810   20.5700 N.am  412  TYR412     -0.1962
    150  CA       -24.2850   -6.3010   21.5790 C.3   412  TYR412      0.1771
    151  C        -23.5830   -6.5600   22.9250 C.2   412  TYR412      0.2619
    152  O        -22.4270   -6.9930   22.9510 O.2   412  TYR412     -0.2715
    153  CB       -25.0520   -7.6380   21.1600 C.3   412  TYR412      0.0574
    154  CG       -25.7230   -7.5890   19.8070 C.ar  412  TYR412     -0.0198
    155  CD1      -24.9950   -7.9060   18.5680 C.ar  412  TYR412     -0.0009
    156  CD2      -27.0270   -7.1820   19.7090 C.ar  412  TYR412     -0.0009
    157  CE1      -25.6810   -7.8730   17.3600 C.ar  412  TYR412      0.0417
    158  CE2      -27.7150   -7.1130   18.4510 C.ar  412  TYR412      0.0417
    159  CZ       -27.0010   -7.4900   17.3120 C.ar  412  TYR412      0.1957
    160  OH       -27.6770   -7.5790   16.0800 O.3   412  TYR412     -0.2866
    161  N        -24.3620   -6.3970   23.9980 N.am  413  PHE413     -0.1974
    162  CA       -23.9360   -6.8900   25.3270 C.3   413  PHE413      0.1639
    163  C        -23.7890   -8.3960   25.3220 C.2   413  PHE413      0.2290
    164  O        -24.4160   -9.1120   24.4920 O.2   413  PHE413     -0.2864
    165  CB       -24.9280   -6.3300   26.3700 C.3   413  PHE413      0.0560
    166  CG       -24.5920   -4.8590   26.7210 C.ar  413  PHE413     -0.0200
    167  CD1      -23.4100   -4.5630   27.5040 C.ar  413  PHE413     -0.0042
    168  CD2      -25.2850   -3.8200   26.1440 C.ar  413  PHE413     -0.0042
    169  CE1      -23.0120   -3.2320   27.8030 C.ar  413  PHE413     -0.0003
    170  CE2      -24.9750   -2.4740   26.4700 C.ar  413  PHE413     -0.0003
    171  CZ       -23.8000   -2.2070   27.2680 C.ar  413  PHE413     -0.0000
    172  N        -30.8290    0.3310   20.8350 N.3   438  ARG438     -0.1231
    173  CA       -30.9640    0.0620   19.3860 C.3   438  ARG438      0.1694
    174  C        -31.0250   -1.3990   19.0380 C.2   438  ARG438      0.2592
    175  O        -31.3580   -1.7110   17.9010 O.2   438  ARG438     -0.2718
    176  CB       -29.7310    0.6780   18.6490 C.3   438  ARG438      0.0321
    177  CG       -28.4160   -0.1550   18.9790 C.3   438  ARG438      0.0489
    178  CD       -27.1720    0.6620   18.5570 C.3   438  ARG438      0.2205
    179  NE       -25.9230   -0.0110   18.9030 N.pl3 438  ARG438     -0.0865
    180  CZ       -25.2220    0.1700   20.0660 C.cat 438  ARG438      0.5346
    181  NH1      -25.7910    0.9200   21.0700 N.pl3 438  ARG438      0.1354
    182  NH2      -24.0280   -0.4360   20.1740 N.pl3 438  ARG438      0.1354
    183  N        -30.7710   -2.3460   19.9830 N.am  439  PHE439     -0.1976
    184  CA       -30.2790   -3.6910   19.5530 C.3   439  PHE439      0.1639
    185  C        -31.3370   -4.4760   18.8460 C.2   439  PHE439      0.2290
    186  O        -30.9460   -5.2490   17.9840 O.2   439  PHE439     -0.2864
    187  CB       -29.7460   -4.4740   20.7800 C.3   439  PHE439      0.0560
    188  CG       -28.6270   -3.7050   21.5150 C.ar  439  PHE439     -0.0200
    189  CD1      -27.3640   -3.5620   20.8820 C.ar  439  PHE439     -0.0042
    190  CD2      -28.8830   -3.1190   22.7680 C.ar  439  PHE439     -0.0042
    191  CE1      -26.3030   -2.8600   21.5560 C.ar  439  PHE439     -0.0003
    192  CE2      -27.8440   -2.4040   23.4450 C.ar  439  PHE439     -0.0003
    193  CZ       -26.5550   -2.2360   22.8200 C.ar  439  PHE439     -0.0000
    194  N        -12.3330   -4.5500   25.2600 N.3   491  MET491     -0.1301
    195  CA       -11.0870   -3.7230   25.1970 C.3   491  MET491      0.1256
    196  C        -10.8790   -3.0220   26.5310 C.3   491  MET491      0.2010
    197  O        -11.8390   -2.3260   27.0330 O.3   491  MET491     -0.2188
    198  CB       -11.2400   -2.6500   24.0910 C.3   491  MET491      0.0333
    199  CG       -11.2770   -3.1760   22.6640 C.3   491  MET491      0.0592
    200  SD       -12.0940   -2.0490   21.4850 S.3   491  MET491     -0.1393
    201  CE       -13.7020   -1.8660   22.2600 C.3   491  MET491      0.0692
    202  N        -17.1980    1.2350   30.6770 N.3   515  TRP515     -0.1227
    203  CA       -18.4570    1.7220   30.0610 C.3   515  TRP515      0.1737
    204  C        -19.6700    1.6960   31.0000 C.2   515  TRP515      0.2595
    205  O        -19.8170    0.7560   31.8410 O.2   515  TRP515     -0.2718
    206  CB       -18.7940    0.8200   28.8880 C.3   515  TRP515      0.0564
    207  CG       -17.6760    0.6700   27.8350 C.ar  515  TRP515      0.0003
    208  CD1      -16.8680    1.6880   27.2460 C.ar  515  TRP515      0.0946
    209  CD2      -17.3920   -0.5520   27.0880 C.ar  515  TRP515      0.0152
    210  NE1      -16.0840    1.1130   26.2440 N.ar  515  TRP515     -0.2442
    211  CE2      -16.3900   -0.2400   26.1270 C.ar  515  TRP515      0.0810
    212  CE3      -17.8770   -1.9060   27.1960 C.ar  515  TRP515      0.0012
    213  CZ2      -15.8460   -1.1990   25.2190 C.ar  515  TRP515      0.0191
    214  CZ3      -17.3070   -2.8870   26.3130 C.ar  515  TRP515      0.0001
    215  CH2      -16.2990   -2.5330   25.3250 C.ar  515  TRP515      0.0015
    216  N        -20.6170    2.6430   30.6860 N.am  516  ALA516     -0.1980
    217  CA       -21.9520    2.4680   31.3630 C.3   516  ALA516      0.1597
    218  C        -22.6020    1.1050   30.8450 C.2   516  ALA516      0.2287
    219  O        -22.4020    0.6650   29.6550 O.2   516  ALA516     -0.2864
    220  CB       -22.8260    3.6620   30.9920 C.3   516  ALA516      0.0319
@<TRIPOS>BOND
     1   122   121    2
     2   121   120    1
     3   114   113    2
     4    86    87    1
     5   120   119    1
     6   120   123    1
     7   113   119   am
     8   113   112    1
     9    94    92   ar
    10    94    96   ar
    11    92    91   ar
    12   123   124    1
    13   112   111    1
    14   112   115    1
    15   100    99    2
    16    80    79    2
    17    87    88    1
    18    87    90    1
    19    96    95   ar
    20    88    89    2
    21    79    78    1
    22    91    90    1
    23    91    93   ar
    24    99    98    1
    25   124   125   ar
    26   124   126   ar
    27   115   116    1
    28   125   127   ar
    29   126   128   ar
    30    81    78    1
    31    81    82    1
    32    95    93   ar
    33    84    83    2
    34    75    76   ar
    35    75    73   ar
    36    76    74   ar
    37    97    98    1
    38   160   159    1
    39    78    77    1
    40    98   101    1
    41   116   117   ar
    42   116   118   ar
    43   101   102    1
    44   127   129   ar
    45   128   129   ar
    46    83    82    1
    47    83    85   am
    48    74    72   ar
    49    73    71   ar
    50   130   131    1
    51   159   157   ar
    52   159   158   ar
    53   157   155   ar
    54   102   103   ar
    55   102   104   ar
    56    53    51   am
    57   141   142    1
    58    50    51    1
    59    50    47    1
    60   175   174    2
    61    71    72   ar
    62    71    70    1
    63   131   132    1
    64   131   134    1
    65   186   185    2
    66   133   132    2
    67   107   104   ar
    68   107   109   ar
    69    48    47    1
    70    48    49    2
    71    46    47    1
    72   103   105   ar
    73   104   106   ar
    74    51    52    2
    75   158   156   ar
    76   178   179    1
    77   178   177    1
    78   155   154   ar
    79   176   177    1
    80   176   173    1
    81   142   145    1
    82   142   143    1
    83   185   184    1
    84   179   180    2
    85    70    67    1
    86   109   110   ar
    87   174   173    1
    88   174   183   am
    89   134   135    1
    90   105   106   ar
    91   106   108   ar
    92   173   172    1
    93   144   143    2
    94   145   146    1
    95   184   183    1
    96   184   187    1
    97   136   135   ar
    98   136   138   ar
    99   143   149   am
   100   156   154   ar
   101   154   153    1
   102   147   146    2
   103   110   108   ar
   104   135   137   ar
   105    69    68    2
   106   180   182    1
   107   180   181    1
   108   146   148   am
   109   138   140   ar
   110    68    67    1
   111    67    66    1
   112   149   150    1
   113   187   188    1
   114   137   139   ar
   115   189   188   ar
   116   189   191   ar
   117   140   139   ar
   118   153   150    1
   119    32    33    1
   120    32    31    1
   121    35    33   ar
   122    66    62   am
   123   200   201    1
   124   200   199    1
   125   188   190   ar
   126   191   193   ar
   127   150   151    1
   128    33    34   ar
   129    31    28    1
   130   199   198    1
   131    62    63    2
   132    62    61    1
   133   190   192   ar
   134   193   192   ar
   135   151   152    2
   136   151   161   am
   137    30    29    2
   138    29    28    1
   139    64    61    1
   140    64    65    1
   141    28    27    1
   142    61    60    1
   143    25    26    1
   144    25    24    1
   145   161   162    1
   146   198   195    1
   147    27    20   am
   148   164   163    2
   149    24    23    1
   150    57    56    2
   151    60    56   am
   152    10     9   ar
   153    10     8   ar
   154   195   194    1
   155   195   196    1
   156   213   215   ar
   157   213   211   ar
   158   163   162    1
   159   215   214   ar
   160   162   165    1
   161    20    21    2
   162    20    19    1
   163    56    55    1
   164     9     7   ar
   165    23    22    1
   166     8     6   ar
   167   211   210   ar
   168   211   209   ar
   169   168   170   ar
   170   168   166   ar
   171   210   208   ar
   172   214   212   ar
   173   165   166    1
   174    19    22    1
   175    19    18    1
   176   170   171   ar
   177   196   197    1
   178   166   167   ar
   179     7     6   ar
   180   209   212   ar
   181   209   207   ar
   182    55    58    1
   183    55    54    1
   184     6     5    1
   185   208   207   ar
   186   171   169   ar
   187    44    45   ar
   188    44    42   ar
   189   167   169   ar
   190    18    13   am
   191    45    43   ar
   192    14    13    2
   193    58    59    1
   194   207   206    1
   195    13    12    1
   196    42    41   ar
   197     4     3    2
   198     5     2    1
   199    43    41   ar
   200   206   203    1
   201    41    40    1
   202     3     2    1
   203     3    11   am
   204    12    11    1
   205    12    15    1
   206   219   218    2
   207     2     1    1
   208    11    17    1
   209   203   202    1
   210   203   204    1
   211    40    37    1
   212    15    16    1
   213   216   204   am
   214   216   217    1
   215   218   217    1
   216    17    16    1
   217   220   217    1
   218   204   205    2
   219    36    37    1
   220    37    38    1
   221    38    39    2
