@<TRIPOS>MOLECULE
tmp/5yqxA00.pdb
 141 139 0 0 0
SMALL
GASTEIGER

@<TRIPOS>ATOM
      1  N         -7.7210    3.6080   12.8290 N.3    40  TRP40      -0.1228
      2  CA        -9.0600    3.8110   13.4110 C.3    40  TRP40       0.1722
      3  C        -10.0090    2.6350   13.4960 C.2    40  TRP40       0.2437
      4  O        -10.7140    2.4960   14.5270 O.2    40  TRP40      -0.2733
      5  CB        -9.7350    5.0810   12.8460 C.3    40  TRP40       0.0563
      6  CG       -10.0790    4.9650   11.4070 C.ar   40  TRP40       0.0003
      7  CD1       -9.2420    5.2390   10.3450 C.ar   40  TRP40       0.0946
      8  CD2      -11.2760    4.4850   10.8510 C.ar   40  TRP40       0.0152
      9  NE1       -9.8520    4.9540    9.1660 N.ar   40  TRP40      -0.2442
     10  CE2      -11.1250    4.5420    9.4230 C.ar   40  TRP40       0.0810
     11  CE3      -12.5100    4.0780   11.3930 C.ar   40  TRP40       0.0012
     12  CZ2      -12.1180    4.1570    8.5540 C.ar   40  TRP40       0.0191
     13  CZ3      -13.5300    3.7030   10.4910 C.ar   40  TRP40       0.0001
     14  CH2      -13.3210    3.7820    9.0920 C.ar   40  TRP40       0.0015
     15  N        -10.0720    1.7450   12.4880 N.am   41  PRO41      -0.2718
     16  CA       -11.0270    0.6280   12.6970 C.3    41  PRO41       0.1535
     17  C        -10.6140   -0.3320   13.8210 C.2    41  PRO41       0.2598
     18  O        -11.4450   -1.1320   14.2520 O.2    41  PRO41      -0.2715
     19  CB       -10.9420   -0.1540   11.3740 C.3    41  PRO41       0.0310
     20  CG       -10.4970    0.8810   10.3760 C.3    41  PRO41       0.0237
     21  CD        -9.4520    1.6490   11.1400 C.3    41  PRO41       0.0939
     22  N         -9.3330   -0.2660   14.1940 N.am   42  PHE42      -0.1974
     23  CA        -8.7370   -1.0780   15.2450 C.3    42  PHE42       0.1639
     24  C         -8.6460   -0.4180   16.6070 C.2    42  PHE42       0.2290
     25  O         -8.1560   -1.0470   17.5450 O.2    42  PHE42      -0.2864
     26  CB        -7.3070   -1.4420   14.7720 C.3    42  PHE42       0.0560
     27  CG        -7.2860   -2.1590   13.4530 C.ar   42  PHE42      -0.0200
     28  CD1       -7.4550   -3.5380   13.3820 C.ar   42  PHE42      -0.0042
     29  CD2       -7.1400   -1.4650   12.2810 C.ar   42  PHE42      -0.0042
     30  CE1       -7.4500   -4.1810   12.1480 C.ar   42  PHE42      -0.0003
     31  CE2       -7.0770   -2.0960   11.0800 C.ar   42  PHE42      -0.0003
     32  CZ        -7.2900   -3.4430   11.0020 C.ar   42  PHE42      -0.0000
     33  N        -11.1070    0.3900   18.5730 N.3    44  GLN44      -0.1231
     34  CA       -12.1340   -0.1310   19.4750 C.3    44  GLN44       0.1683
     35  C        -12.5710   -1.5270   18.9850 C.2    44  GLN44       0.2434
     36  O        -12.3010   -1.8970   17.8660 O.2    44  GLN44      -0.2733
     37  CB       -13.3110    0.8590   19.5250 C.3    44  GLN44       0.0380
     38  CG       -14.0170    1.1170   18.2200 C.3    44  GLN44       0.0905
     39  CD       -13.1780    2.0210   17.3460 C.2    44  GLN44       0.2608
     40  OE1      -12.6600    3.0700   17.8110 O.2    44  GLN44      -0.2717
     41  NE2      -13.0230    1.6370   16.1060 N.am   44  GLN44      -0.0878
     42  N        -13.3100   -2.2560   19.8120 N.am   45  PRO45      -0.2718
     43  CA       -13.7730   -3.5830   19.4140 C.3    45  PRO45       0.1535
     44  C        -14.5610   -3.5160   18.1230 C.2    45  PRO45       0.2598
     45  O        -15.2730   -2.4940   17.8270 O.2    45  PRO45      -0.2715
     46  CB       -14.6620   -3.9910   20.5950 C.3    45  PRO45       0.0310
     47  CG       -14.0150   -3.3560   21.7470 C.3    45  PRO45       0.0237
     48  CD       -13.7060   -1.9680   21.2050 C.3    45  PRO45       0.0939
     49  N        -14.5110   -4.6000   17.3800 N.am   46  VAL46      -0.1964
     50  CA       -15.4250   -4.7210   16.2260 C.3    46  VAL46       0.1727
     51  C        -16.9080   -4.6350   16.6560 C.2    46  VAL46       0.2616
     52  O        -17.3200   -5.3760   17.5560 O.2    46  VAL46      -0.2715
     53  CB       -15.1540   -6.0040   15.4520 C.3    46  VAL46       0.0290
     54  CG1      -16.2230   -6.2330   14.3770 C.3    46  VAL46       0.0023
     55  CG2      -13.7560   -5.9570   14.8350 C.3    46  VAL46       0.0023
     56  N        -17.6500   -3.6650   16.0970 N.am   47  ASP47      -0.1971
     57  CA       -19.0720   -3.4720   16.3650 C.3    47  ASP47       0.1709
     58  C        -19.8550   -4.2110   15.3190 C.2    47  ASP47       0.2293
     59  O        -20.2300   -3.6780   14.2450 O.2    47  ASP47      -0.2864
     60  CB       -19.4310   -1.9700   16.4700 C.3    47  ASP47       0.1436
     61  CG       -20.8320   -1.7330   17.0280 C.2    47  ASP47       0.3671
     62  OD1      -21.6820   -2.6230   16.9210 O.co2  47  ASP47      -0.2456
     63  OD2      -21.0120   -0.6330   17.5830 O.co2  47  ASP47      -0.2456
     64  N        -21.7750   -2.6060   12.1170 N.3    51  LEU51      -0.1245
     65  CA       -21.2990   -3.0920   10.8160 C.3    51  LEU51       0.1561
     66  C        -22.2340   -4.0280   10.0780 C.2    51  LEU51       0.2260
     67  O        -21.9580   -4.4030    8.9330 O.2    51  LEU51      -0.2867
     68  CB       -19.9200   -3.7420   10.9500 C.3    51  LEU51       0.0270
     69  CG       -18.8110   -2.7590   11.3750 C.3    51  LEU51       0.0019
     70  CD1      -17.5310   -3.4410   11.8030 C.3    51  LEU51       0.0001
     71  CD2      -18.5080   -1.7260   10.2850 C.3    51  LEU51       0.0001
     72  N        -22.5990   -7.2130   10.7410 N.3    53  LEU53      -0.1245
     73  CA       -21.8590   -8.4370   10.5550 C.3    53  LEU53       0.1561
     74  C        -22.2650   -9.3800   11.6420 C.2    53  LEU53       0.2260
     75  O        -21.4850   -9.6610   12.5450 O.2    53  LEU53      -0.2867
     76  CB       -20.3460   -8.1480   10.6560 C.3    53  LEU53       0.0270
     77  CG       -19.8360   -7.2990    9.5060 C.3    53  LEU53       0.0019
     78  CD1      -18.3520   -7.0720    9.7750 C.3    53  LEU53       0.0001
     79  CD2      -20.0820   -8.0310    8.1880 C.3    53  LEU53       0.0001
     80  N        -19.7420  -12.1730   12.9650 N.3    56  TYR56      -0.1241
     81  CA       -18.3710  -11.8720   13.3480 C.3    56  TYR56       0.1605
     82  C        -18.0190  -12.6320   14.6140 C.2    56  TYR56       0.2264
     83  O        -16.9920  -13.2990   14.6370 O.2    56  TYR56      -0.2867
     84  CB       -18.1260  -10.3740   13.5330 C.3    56  TYR56       0.0534
     85  CG       -16.6860  -10.0920   13.8720 C.ar   56  TYR56      -0.0201
     86  CD1      -15.7320  -10.0070   12.8770 C.ar   56  TYR56      -0.0009
     87  CD2      -16.2740   -9.9680   15.2070 C.ar   56  TYR56      -0.0009
     88  CE1      -14.4060   -9.8060   13.1920 C.ar   56  TYR56       0.0417
     89  CE2      -14.9270   -9.7870   15.5390 C.ar   56  TYR56       0.0417
     90  CZ       -13.9950   -9.7230   14.5360 C.ar   56  TYR56       0.1957
     91  OH       -12.6640   -9.5490   14.8540 O.3    56  TYR56      -0.2866
     92  N         -8.3400  -10.4560   12.0800 N.3    95  CYS95      -0.1235
     93  CA        -8.6890   -9.6680   10.8720 C.3    95  CYS95       0.1677
     94  C         -8.4500  -10.5120    9.5830 C.2    95  CYS95       0.2270
     95  O         -9.2940  -10.5810    8.6940 O.2    95  CYS95      -0.2867
     96  CB        -7.8190   -8.4050   10.8470 C.3    95  CYS95       0.0956
     97  SG        -8.2810   -7.2710    9.5110 S.3    95  CYS95      -0.0801
     98  N        -11.1380  -13.4810    9.4570 N.3    98  TYR98      -0.1227
     99  CA       -12.5240  -13.1400    9.2130 C.3    98  TYR98       0.1736
    100  C        -12.7280  -12.5710    7.8190 C.2    98  TYR98       0.2595
    101  O        -13.7410  -12.9010    7.1350 O.2    98  TYR98      -0.2718
    102  CB       -13.0680  -12.1470   10.2600 C.3    98  TYR98       0.0548
    103  CG       -14.5100  -11.8190   10.0150 C.ar   98  TYR98      -0.0200
    104  CD1      -15.5030  -12.7150   10.3490 C.ar   98  TYR98      -0.0009
    105  CD2      -14.8780  -10.6580    9.3090 C.ar   98  TYR98      -0.0009
    106  CE1      -16.8330  -12.4250   10.0780 C.ar   98  TYR98       0.0417
    107  CE2      -16.2020  -10.3800    9.0110 C.ar   98  TYR98       0.0417
    108  CZ       -17.1850  -11.2480    9.4110 C.ar   98  TYR98       0.1957
    109  OH       -18.5440  -10.9650    9.0890 O.3    98  TYR98      -0.2866
    110  N        -11.7770  -11.7520    7.3690 N.am   99  ASN99      -0.1974
    111  CA       -11.9510  -11.0150    6.1070 C.3    99  ASN99       0.1688
    112  C        -11.2620  -11.7100    4.9380 C.2    99  ASN99       0.2292
    113  O        -10.5760  -12.6770    5.1230 O.2    99  ASN99      -0.2864
    114  CB       -11.4400   -9.5910    6.2920 C.3    99  ASN99       0.1181
    115  CG       -12.1770   -8.8920    7.3760 C.2    99  ASN99       0.2629
    116  OD1      -13.2870   -8.4350    7.1810 O.2    99  ASN99      -0.2716
    117  ND2      -11.6120   -8.8780    8.5730 N.am   99  ASN99      -0.0877
    118  N        -10.3090   -3.9410    2.0880 N.3   104  ASP104     -0.1225
    119  CA        -9.5660   -2.7960    2.5710 C.3   104  ASP104      0.1805
    120  C         -9.0470   -3.0200    3.9950 C.2   104  ASP104      0.2597
    121  O         -7.9300   -2.6140    4.3400 O.2   104  ASP104     -0.2718
    122  CB       -10.4050   -1.5030    2.5680 C.3   104  ASP104      0.1424
    123  CG       -10.6150   -0.9340    1.1670 C.2   104  ASP104      0.3668
    124  OD1       -9.8140   -1.2450    0.2410 O.co2 104  ASP104     -0.2456
    125  OD2      -11.6100   -0.2180    0.9810 O.co2 104  ASP104     -0.2456
    126  N         -9.8540   -3.6730    4.8220 N.am  105  ILE105     -0.1980
    127  CA        -9.4470   -3.8680    6.2440 C.3   105  ILE105      0.1595
    128  C         -8.2070   -4.7010    6.3390 C.2   105  ILE105      0.2287
    129  O         -7.3670   -4.4500    7.1990 O.2   105  ILE105     -0.2864
    130  CB       -10.5980   -4.3840    7.1190 C.3   105  ILE105      0.0276
    131  CG1      -10.3290   -4.1130    8.6040 C.3   105  ILE105      0.0022
    132  CG2      -10.9490   -5.8550    6.8460 C.3   105  ILE105      0.0022
    133  CD1      -10.3090   -2.6620    9.0380 C.3   105  ILE105      0.0001
    134  N         -5.1990   -2.5880    5.5180 N.3   108  MET108     -0.1245
    135  CA        -4.9490   -1.7140    6.6470 C.3   108  MET108      0.1570
    136  C         -4.2040   -2.4900    7.7360 C.2   108  MET108      0.2261
    137  O         -3.1500   -2.0520    8.2000 O.2   108  MET108     -0.2867
    138  CB        -6.2530   -1.0810    7.1110 C.3   108  MET108      0.0387
    139  CG        -6.8800   -0.1710    6.0220 C.3   108  MET108      0.0595
    140  SD        -8.5620    0.3650    6.4230 S.3   108  MET108     -0.1393
    141  CE        -8.2260    1.5800    7.6130 C.3   108  MET108      0.0692
@<TRIPOS>BOND
     1   124   123   ar
     2   125   123   ar
     3   123   122    1
     4   118   119    1
     5   122   119    1
     6   119   120    1
     7   120   121    2
     8   120   126   am
     9   126   127    1
    10   112   113    2
    11   112   111    1
    12   134   135    1
    13   139   140    1
    14   139   138    1
    15   111   114    1
    16   111   110    1
    17   127   128    1
    18   127   130    1
    19   114   115    1
    20   128   129    2
    21   140   141    1
    22   135   138    1
    23   135   136    1
    24   132   130    1
    25   130   131    1
    26   101   100    2
    27   116   115    2
    28   110   100   am
    29   115   117   am
    30   136   137    2
    31   100    99    1
    32    79    77    1
    33    12    14   ar
    34    12    10   ar
    35   131   133    1
    36    95    94    2
    37    67    66    2
    38   107   105   ar
    39   107   108   ar
    40   109   108    1
    41    14    13   ar
    42     9    10   ar
    43     9     7   ar
    44    99    98    1
    45    99   102    1
    46   105   103   ar
    47   108   106   ar
    48    10     8   ar
    49    77    78    1
    50    77    76    1
    51    97    96    1
    52    94    93    1
    53   103   102    1
    54   103   104   ar
    55   106   104   ar
    56    66    65    1
    57    71    69    1
    58     7     6   ar
    59    20    21    1
    60    20    19    1
    61    13    11   ar
    62    73    76    1
    63    73    72    1
    64    73    74    1
    65    65    68    1
    66    65    64    1
    67    96    93    1
    68     8    11   ar
    69     8     6   ar
    70    93    92    1
    71    68    69    1
    72    32    31   ar
    73    32    30   ar
    74    31    29   ar
    75    21    15    1
    76    19    16    1
    77    69    70    1
    78     6     5    1
    79    74    75    2
    80    30    28   ar
    81    29    27   ar
    82    15    16    1
    83    15     3   am
    84    16    17    1
    85     1     2    1
    86     5     2    1
    87    86    88   ar
    88    86    85   ar
    89    80    81    1
    90    88    90   ar
    91    81    84    1
    92    81    82    1
    93    28    27   ar
    94     2     3    1
    95    27    26    1
    96     3     4    2
    97    84    85    1
    98    17    22   am
    99    17    18    2
   100    85    87   ar
   101    22    23    1
   102    59    58    2
   103    54    53    1
   104    90    91    1
   105    90    89   ar
   106    82    83    2
   107    26    23    1
   108    55    53    1
   109    87    89   ar
   110    23    24    1
   111    58    57    1
   112    53    50    1
   113    56    57    1
   114    56    51   am
   115    41    39   am
   116    50    51    1
   117    50    49    1
   118    57    60    1
   119    60    61    1
   120    24    25    2
   121    51    52    2
   122    62    61   ar
   123    61    63   ar
   124    39    40    2
   125    39    38    1
   126    49    44   am
   127    45    44    2
   128    36    35    2
   129    44    43    1
   130    38    37    1
   131    33    34    1
   132    35    34    1
   133    35    42   am
   134    43    42    1
   135    43    46    1
   136    34    37    1
   137    42    48    1
   138    46    47    1
   139    48    47    1
