@<TRIPOS>MOLECULE
tmp/5yr4A00.pdb
 188 181 0 0 0
SMALL
GASTEIGER

@<TRIPOS>ATOM
      1  N          8.4230    7.5660   29.0810 N.3   103  PRO103     -0.2116
      2  CA         8.4840    8.5680   28.0110 C.3   103  PRO103      0.1372
      3  C          8.4950   10.0170   28.5080 C.2   103  PRO103      0.2244
      4  O          8.9180   10.9220   27.7830 O.2   103  PRO103     -0.2868
      5  CB         7.1960    8.3110   27.2040 C.3   103  PRO103      0.0268
      6  CG         6.8660    6.8760   27.5140 C.3   103  PRO103      0.0207
      7  CD         7.2010    6.7600   28.9880 C.3   103  PRO103      0.0892
      8  N         11.4980   12.2370   28.4000 N.3   106  TYR106     -0.1241
      9  CA        12.6060   11.6120   27.6450 C.3   106  TYR106      0.1605
     10  C         12.9230   12.4790   26.4170 C.2   106  TYR106      0.2264
     11  O         12.1290   12.5980   25.5150 O.2   106  TYR106     -0.2867
     12  CB        12.3100   10.1680   27.2580 C.3   106  TYR106      0.0534
     13  CG        13.4970    9.4650   26.6710 C.ar  106  TYR106     -0.0201
     14  CD1       14.5210    9.0020   27.4790 C.ar  106  TYR106     -0.0009
     15  CD2       13.6010    9.2700   25.3040 C.ar  106  TYR106     -0.0009
     16  CE1       15.6190    8.3410   26.9480 C.ar  106  TYR106      0.0417
     17  CE2       14.6810    8.5980   24.7580 C.ar  106  TYR106      0.0417
     18  CZ        15.7020    8.1490   25.5790 C.ar  106  TYR106      0.1957
     19  OH        16.7750    7.5130   25.0260 O.3   106  TYR106     -0.2866
     20  N         10.1870   14.6440   25.4720 N.3   109  PHE109     -0.1241
     21  CA         8.8610   14.1110   25.0490 C.3   109  PHE109      0.1605
     22  C          7.8040   14.5760   26.0370 C.2   109  PHE109      0.2264
     23  O          8.0320   14.4960   27.2550 O.2   109  PHE109     -0.2867
     24  CB         8.8880   12.5860   24.9580 C.3   109  PHE109      0.0534
     25  CG         7.6220   12.0040   24.3810 C.ar  109  PHE109     -0.0203
     26  CD1        7.3970   11.9880   23.0060 C.ar  109  PHE109     -0.0042
     27  CD2        6.6710   11.4390   25.2030 C.ar  109  PHE109     -0.0042
     28  CE1        6.2490   11.4090   22.4760 C.ar  109  PHE109     -0.0003
     29  CE2        5.4930   10.9210   24.6780 C.ar  109  PHE109     -0.0003
     30  CZ         5.2920   10.8750   23.3080 C.ar  109  PHE109     -0.0000
     31  N          3.0750    6.6980   24.0970 N.3   114  CYS114     -0.1235
     32  CA         2.9350    7.0670   22.6890 C.3   114  CYS114      0.1677
     33  C          1.6730    6.4000   22.1100 C.2   114  CYS114      0.2270
     34  O          1.4570    5.1840   22.2440 O.2   114  CYS114     -0.2867
     35  CB         4.1570    6.6020   21.9260 C.3   114  CYS114      0.0956
     36  SG         5.7300    7.2790   22.5190 S.3   114  CYS114     -0.0801
     37  N          5.1570    5.3570   14.7470 N.3   122  CYS122     -0.1221
     38  CA         5.4850    5.2570   16.1740 C.3   122  CYS122      0.1808
     39  C          5.6720    6.6620   16.7320 C.2   122  CYS122      0.2601
     40  O          5.7210    7.6370   15.9710 O.2   122  CYS122     -0.2717
     41  CB         6.7010    4.3750   16.3930 C.3   122  CYS122      0.0970
     42  SG         8.2600    5.1000   15.7980 S.3   122  CYS122     -0.0800
     43  N          5.7570    6.7420   18.0630 N.am  123  HIS123     -0.1975
     44  CA         6.0750    7.9830   18.7930 C.3   123  HIS123      0.1656
     45  C          5.0360    9.0870   18.6520 C.2   123  HIS123      0.2291
     46  O          5.3410   10.2470   18.8350 O.2   123  HIS123     -0.2864
     47  CB         7.4540    8.4680   18.3890 C.3   123  HIS123      0.0771
     48  CG         8.5250    7.5120   18.7900 C.ar  123  HIS123      0.0820
     49  ND1        9.7710    7.5390   18.2230 N.ar  123  HIS123     -0.2267
     50  CD2        8.5330    6.4920   19.6910 C.ar  123  HIS123      0.1154
     51  CE1       10.5320    6.6080   18.7700 C.ar  123  HIS123      0.1986
     52  NE2        9.7930    5.9320   19.6650 N.ar  123  HIS123     -0.2212
     53  N          1.8570    2.4800   23.0960 N.3   140  ASP140     -0.1239
     54  CA         3.1810    1.9670   23.4850 C.3   140  ASP140      0.1674
     55  C          3.4500    2.4610   24.9090 C.2   140  ASP140      0.2266
     56  O          3.4450    3.6700   25.1710 O.2   140  ASP140     -0.2867
     57  CB         4.2530    2.3550   22.4620 C.3   140  ASP140      0.1410
     58  CG         5.6130    1.6850   22.7000 C.2   140  ASP140      0.3668
     59  OD1        5.9140    1.3850   23.8160 O.co2 140  ASP140     -0.2456
     60  OD2        6.3340    1.4270   21.7580 O.co2 140  ASP140     -0.2456
     61  N          5.9450    2.3750   28.2390 N.3   142  THR142     -0.1218
     62  CA         7.2320    2.1140   28.8690 C.3   142  THR142      0.1862
     63  C          7.1730    2.6340   30.3180 C.2   142  THR142      0.2287
     64  O          6.7710    3.7810   30.5600 O.2   142  THR142     -0.2866
     65  CB         8.3610    2.7340   28.0340 C.3   142  THR142      0.1770
     66  OG1        8.0630    2.4390   26.6760 O.3   142  THR142     -0.2211
     67  CG2        9.7350    2.2070   28.3860 C.3   142  THR142      0.0375
     68  N          8.9730   -2.4080   28.4410 N.3   151  ASP151     -0.1239
     69  CA         8.4530   -1.7850   27.1670 C.3   151  ASP151      0.1674
     70  C          7.5700   -2.7520   26.3800 C.2   151  ASP151      0.2266
     71  O          7.9570   -3.8650   26.0760 O.2   151  ASP151     -0.2867
     72  CB         9.6650   -1.3770   26.3540 C.3   151  ASP151      0.1410
     73  CG         9.4700   -0.5620   25.0920 C.2   151  ASP151      0.3668
     74  OD1        8.3330   -0.1390   24.8040 O.co2 151  ASP151     -0.2456
     75  OD2       10.5000   -0.3510   24.4040 O.co2 151  ASP151     -0.2456
     76  N         13.7380    2.7280    9.6950 N.3   210  SER210     -0.1202
     77  CA        14.4340    3.7210   10.4880 C.3   210  SER210      0.2020
     78  C         14.2880    3.4540   11.9950 C.2   210  SER210      0.2619
     79  O         14.9910    4.0910   12.7920 O.2   210  SER210     -0.2717
     80  CB        13.9570    5.1220   10.1760 C.3   210  SER210      0.2103
     81  OG        14.0680    5.4180    8.7880 O.3   210  SER210     -0.2182
     82  N         13.3650    2.5580   12.3820 N.am  211  TYR211     -0.1961
     83  CA        13.1450    2.2800   13.7940 C.3   211  TYR211      0.1771
     84  C         13.3290    0.7800   14.0170 C.2   211  TYR211      0.2620
     85  O         12.8550    0.0020   13.1860 O.2   211  TYR211     -0.2715
     86  CB        11.7600    2.7600   14.2350 C.3   211  TYR211      0.0574
     87  CG        11.5840    4.2500   14.1120 C.ar  211  TYR211     -0.0198
     88  CD1       11.9170    5.1020   15.1500 C.ar  211  TYR211     -0.0009
     89  CD2       11.1590    4.8080   12.9270 C.ar  211  TYR211     -0.0009
     90  CE1       11.7630    6.4720   15.0260 C.ar  211  TYR211      0.0417
     91  CE2       11.0000    6.1740   12.7880 C.ar  211  TYR211      0.0417
     92  CZ        11.3220    7.0020   13.8350 C.ar  211  TYR211      0.1957
     93  OH        11.2110    8.3480   13.6770 O.3   211  TYR211     -0.2866
     94  N         13.9670    0.4330   15.1510 N.am  212  CYS212     -0.1954
     95  CA        14.4150   -0.9260   15.4530 C.3   212  CYS212      0.1843
     96  C         14.0220   -1.3190   16.8830 C.2   212  CYS212      0.2626
     97  O         13.8600   -0.4620   17.7430 O.2   212  CYS212     -0.2714
     98  CB        15.9330   -1.0140   15.2930 C.3   212  CYS212      0.0997
     99  SG        16.4550   -0.6240   13.5940 S.3   212  CYS212     -0.0797
    100  N         13.9720   -2.6340   17.1400 N.am  213  GLY213     -0.1940
    101  CA        13.9640   -3.1330   18.5140 C.3   213  GLY213      0.2014
    102  C         15.2920   -2.8370   19.1680 C.2   213  GLY213      0.2638
    103  O         16.2410   -2.4630   18.4690 O.2   213  GLY213     -0.2714
    104  N         15.3920   -3.0530   20.4800 N.am  214  HIS214     -0.1973
    105  CA        16.5360   -2.5770   21.2250 C.3   214  HIS214      0.1656
    106  C         16.6790   -3.3260   22.5420 C.2   214  HIS214      0.2291
    107  O         15.6880   -3.7660   23.1500 O.2   214  HIS214     -0.2864
    108  CB        16.3500   -1.0810   21.5280 C.3   214  HIS214      0.0771
    109  CG        15.0180   -0.7910   22.1460 C.ar  214  HIS214      0.0820
    110  ND1       14.8080   -0.7790   23.5230 N.ar  214  HIS214     -0.2267
    111  CD2       13.8160   -0.5540   21.5630 C.ar  214  HIS214      0.1154
    112  CE1       13.5110   -0.5130   23.7340 C.ar  214  HIS214      0.1986
    113  NE2       12.9030   -0.3720   22.5390 N.ar  214  HIS214     -0.2212
    114  N         16.6490    2.8170   28.7390 N.3   220  MET220     -0.1230
    115  CA        15.4460    2.6220   27.9670 C.3   220  MET220      0.1702
    116  C         15.8120    1.9690   26.6380 C.2   220  MET220      0.2592
    117  O         15.0930    1.1060   26.1380 O.2   220  MET220     -0.2718
    118  CB        14.7490    3.9550   27.7140 C.3   220  MET220      0.0401
    119  CG        13.2720    3.8260   27.4880 C.3   220  MET220      0.0596
    120  SD        12.5220    5.4510   27.6090 S.3   220  MET220     -0.1393
    121  CE        11.2280    5.2590   26.3970 C.3   220  MET220      0.0692
    122  N         16.9500    2.3880   26.0760 N.am  221  HIS221     -0.1976
    123  CA        17.4420    1.7730   24.8610 C.3   221  HIS221      0.1656
    124  C         18.9630    1.6450   24.9220 C.2   221  HIS221      0.2291
    125  O         19.6700    2.5730   25.3050 O.2   221  HIS221     -0.2864
    126  CB        16.9480    2.4920   23.6010 C.3   221  HIS221      0.0771
    127  CG        17.5780    3.8070   23.3010 C.ar  221  HIS221      0.0820
    128  ND1       18.7630    3.9150   22.5760 N.ar  221  HIS221     -0.2267
    129  CD2       17.1650    5.0720   23.5550 C.ar  221  HIS221      0.1154
    130  CE1       19.0750    5.1940   22.4390 C.ar  221  HIS221      0.1986
    131  NE2       18.0900    5.9320   23.0070 N.ar  221  HIS221     -0.2212
    132  N         20.8800   -3.5490   18.8190 N.3   225  ASN225     -0.1240
    133  CA        20.0120   -2.9580   17.8390 C.3   225  ASN225      0.1653
    134  C         19.4000   -4.1030   17.0240 C.2   225  ASN225      0.2266
    135  O         20.1050   -4.9950   16.5570 O.2   225  ASN225     -0.2867
    136  CB        20.7680   -1.9500   16.9690 C.3   225  ASN225      0.1155
    137  CG        19.8870   -1.2750   15.9420 C.2   225  ASN225      0.2627
    138  OD1       19.9180   -1.6200   14.7650 O.2   225  ASN225     -0.2716
    139  ND2       19.1030   -0.3090   16.3750 N.am  225  ASN225     -0.0877
    140  N          9.7910   -5.3400   17.8880 N.3   247  GLU247     -0.1245
    141  CA         8.6720   -4.3660   17.8100 C.3   247  GLU247      0.1567
    142  C          8.4310   -3.9720   16.3620 C.2   247  GLU247      0.2260
    143  O          8.4540   -2.7960   15.9890 O.2   247  GLU247     -0.2867
    144  CB         8.9110   -3.1580   18.7220 C.3   247  GLU247      0.0388
    145  CG        10.2100   -2.3870   18.4820 C.3   247  GLU247      0.1160
    146  CD        10.3350   -1.2290   19.4440 C.2   247  GLU247      0.3649
    147  OE1       11.0590   -1.3710   20.4360 O.co2 247  GLU247     -0.2457
    148  OE2        9.5800   -0.2240   19.2820 O.co2 247  GLU247     -0.2457
    149  N          7.2570   -2.6450   12.8960 N.3   249  MET249     -0.1245
    150  CA         6.3390   -1.6900   12.3270 C.3   249  MET249      0.1570
    151  C          6.1950   -2.0120   10.8310 C.2   249  MET249      0.2261
    152  O          7.2150   -2.0230   10.0740 O.2   249  MET249     -0.2867
    153  CB         6.8630   -0.2720   12.4950 C.3   249  MET249      0.0387
    154  CG         6.9400    0.1650   13.9420 C.3   249  MET249      0.0595
    155  SD         8.3880    1.1950   14.3350 S.3   249  MET249     -0.1393
    156  CE         9.6410   -0.0790   14.4950 C.3   249  MET249      0.0692
    157  N          8.9010   14.2270   16.9610 N.3   264  TRP264     -0.1241
    158  CA         8.6620   12.8810   17.4690 C.3   264  TRP264      0.1605
    159  C          7.8010   12.0340   16.5220 C.2   264  TRP264      0.2264
    160  O          8.1180   10.8470   16.3410 O.2   264  TRP264     -0.2867
    161  CB         8.0170   12.9540   18.8500 C.3   264  TRP264      0.0550
    162  CG         8.9760   13.3300   19.9300 C.ar  264  TRP264      0.0003
    163  CD1        9.0370   14.4940   20.6490 C.ar  264  TRP264      0.0946
    164  CD2       10.0280   12.4960   20.4320 C.ar  264  TRP264      0.0152
    165  NE1       10.0630   14.4380   21.5590 N.ar  264  TRP264     -0.2442
    166  CE2       10.6680   13.2170   21.4650 C.ar  264  TRP264      0.0810
    167  CE3       10.4470   11.1960   20.1370 C.ar  264  TRP264      0.0012
    168  CZ2       11.7130   12.6730   22.1980 C.ar  264  TRP264      0.0191
    169  CZ3       11.5050   10.6700   20.8380 C.ar  264  TRP264      0.0001
    170  CH2       12.1300   11.4090   21.8490 C.ar  264  TRP264      0.0015
    171  N          2.0030   -1.9460   14.5940 N.3   276  GLN276     -0.1245
    172  CA         3.1290   -2.3800   15.4060 C.3   276  GLN276      0.1566
    173  C          2.6600   -3.2470   16.5920 C.2   276  GLN276      0.2260
    174  O          1.5420   -3.0510   17.1540 O.2   276  GLN276     -0.2867
    175  CB         3.8740   -1.1640   15.9400 C.3   276  GLN276      0.0367
    176  CG         5.1920   -1.5180   16.6360 C.3   276  GLN276      0.0905
    177  CD         5.9490   -0.3260   17.1780 C.2   276  GLN276      0.2608
    178  OE1        5.3720    0.7270   17.4700 O.2   276  GLN276     -0.2717
    179  NE2        7.2620   -0.4870   17.3920 N.am  276  GLN276     -0.0878
    180  N          4.8890   -5.1220   20.1960 N.3   278  GLU278     -0.1245
    181  CA         6.1410   -5.1310   20.8580 C.3   278  GLU278      0.1567
    182  C          6.0120   -5.9500   22.1410 C.2   278  GLU278      0.2260
    183  O          5.0310   -5.8050   22.8410 O.2   278  GLU278     -0.2867
    184  CB         6.5790   -3.7130   21.1550 C.3   278  GLU278      0.0388
    185  CG         7.8110   -3.6720   22.0290 C.3   278  GLU278      0.1160
    186  CD         8.3730   -2.3080   22.3180 C.2   278  GLU278      0.3649
    187  OE1        7.5880   -1.3140   22.3110 O.co2 278  GLU278     -0.2457
    188  OE2        9.6030   -2.2600   22.5720 O.co2 278  GLU278     -0.2457
@<TRIPOS>BOND
     1    81    80    1
     2    76    77    1
     3   152   151    2
     4    80    77    1
     5    77    78    1
     6   151   150    1
     7    78    82   am
     8    78    79    2
     9   150   153    1
    10   150   149    1
    11    82    83    1
    12   153   154    1
    13    91    89   ar
    14    91    92   ar
    15    89    87   ar
    16    85    84    2
    17    99    98    1
    18    93    92    1
    19    83    84    1
    20    83    86    1
    21    92    90   ar
    22   154   155    1
    23    84    94   am
    24    87    86    1
    25    87    88   ar
    26   155   156    1
    27   171   172    1
    28    37    38    1
    29   138   137    2
    30    90    88   ar
    31    94    95    1
    32    98    95    1
    33   172   175    1
    34   172   173    1
    35    95    96    1
    36    42    41    1
    37   175   176    1
    38   137   139   am
    39   137   136    1
    40    40    39    2
    41   143   142    2
    42    38    41    1
    43    38    39    1
    44   160   159    2
    45   142   141    1
    46   159   158    1
    47   135   134    2
    48   173   174    2
    49   176   177    1
    50    39    43   am
    51    96   100   am
    52    96    97    2
    53   157   158    1
    54   136   133    1
    55   134   133    1
    56   100   101    1
    57   177   179   am
    58   177   178    2
    59   158   161    1
    60   141   140    1
    61   141   144    1
    62   133   132    1
    63    43    44    1
    64    49    51   ar
    65    49    48   ar
    66    47    48    1
    67    47    44    1
    68   103   102    2
    69   145   144    1
    70   145   146    1
    71   101   102    1
    72    45    44    1
    73    45    46    2
    74    51    52   ar
    75    48    50   ar
    76   161   162    1
    77   102   104   am
    78   148   146   ar
    79   146   147   ar
    80    52    50   ar
    81   162   164   ar
    82   162   163   ar
    83   167   164   ar
    84   167   169   ar
    85   180   181    1
    86   164   166   ar
    87   104   105    1
    88   163   165   ar
    89   169   170   ar
    90   181   184    1
    91   181   182    1
    92   184   185    1
    93   105   108    1
    94   105   106    1
    95   166   165   ar
    96   166   168   ar
    97   108   109    1
    98   111   109   ar
    99   111   113   ar
   100    60    58   ar
   101   170   168   ar
   102    35    36    1
   103    35    32    1
   104   185   186    1
   105    33    34    2
   106    33    32    1
   107   182   183    2
   108   109   110   ar
   109   187   186   ar
   110   186   188   ar
   111   130   128   ar
   112   130   131   ar
   113    57    58    1
   114    57    54    1
   115    28    26   ar
   116    28    30   ar
   117   113   112   ar
   118   106   107    2
   119   128   127   ar
   120    32    31    1
   121    58    59   ar
   122    26    25   ar
   123   131   129   ar
   124    53    54    1
   125   127   129   ar
   126   127   126    1
   127    30    29   ar
   128    54    55    1
   129   110   112   ar
   130   126   123    1
   131    25    24    1
   132    25    27   ar
   133    75    73   ar
   134    29    27   ar
   135    17    15   ar
   136    17    18   ar
   137    74    73   ar
   138   123   124    1
   139   123   122    1
   140    55    56    2
   141   124   125    2
   142    24    21    1
   143    19    18    1
   144    21    20    1
   145    21    22    1
   146    73    72    1
   147    15    13   ar
   148    11    10    2
   149    18    16   ar
   150    22    23    2
   151    71    70    2
   152   122   116   am
   153   117   116    2
   154    72    69    1
   155    70    69    1
   156   121   120    1
   157    10     9    1
   158   116   115    1
   159    13    12    1
   160    13    14   ar
   161    66    65    1
   162    16    14   ar
   163    69    68    1
   164     5     6    1
   165     5     2    1
   166    12     9    1
   167   119   120    1
   168   119   118    1
   169     6     7    1
   170     9     8    1
   171   118   115    1
   172     4     3    2
   173   115   114    1
   174     2     3    1
   175     2     1    1
   176    65    67    1
   177    65    62    1
   178    61    62    1
   179    62    63    1
   180     7     1    1
   181    63    64    2
