@<TRIPOS>MOLECULE
tmp/5yrsB00.pdb
 129 122 0 0 0
SMALL
GASTEIGER

@<TRIPOS>ATOM
      1  N         -6.1960   28.0200   20.6990 N.3     8  ARG8       -0.1245
      2  CA        -6.3160   27.4340   22.0490 C.3     8  ARG8        0.1563
      3  C         -6.4790   28.5530   23.0870 C.2     8  ARG8        0.2260
      4  O         -5.7590   29.5610   23.0600 O.2     8  ARG8       -0.2867
      5  CB        -5.0710   26.6060   22.3850 C.3     8  ARG8        0.0307
      6  CG        -4.9800   25.3090   21.5880 C.3     8  ARG8        0.0489
      7  CD        -3.6500   24.5760   21.7740 C.3     8  ARG8        0.2205
      8  NE        -3.6230   23.3940   20.9080 N.pl3   8  ARG8       -0.0865
      9  CZ        -2.5230   22.7300   20.5560 C.cat   8  ARG8        0.5346
     10  NH1       -1.3280   23.1240   20.9940 N.pl3   8  ARG8        0.1354
     11  NH2       -2.6160   21.6740   19.7540 N.pl3   8  ARG8        0.1354
     12  N         -4.3280   25.6980   29.7260 N.3    23  LEU23      -0.1245
     13  CA        -5.4700   25.7200   28.8150 C.3    23  LEU23       0.1561
     14  C         -6.8030   25.7970   29.5630 C.2    23  LEU23       0.2260
     15  O         -7.0100   25.0010   30.4770 O.2    23  LEU23      -0.2867
     16  CB        -5.4010   24.4260   27.9850 C.3    23  LEU23       0.0270
     17  CG        -6.3270   24.1490   26.8090 C.3    23  LEU23       0.0019
     18  CD1       -6.0530   25.1510   25.7130 C.3    23  LEU23       0.0001
     19  CD2       -6.0880   22.7140   26.2830 C.3    23  LEU23       0.0001
     20  N        -10.1750   24.6650   30.0080 N.3    25  ASP25      -0.1239
     21  CA       -10.7120   23.4480   29.4050 C.3    25  ASP25       0.1674
     22  C        -12.0740   23.0950   29.9440 C.2    25  ASP25       0.2266
     23  O        -12.1660   22.5010   31.0310 O.2    25  ASP25      -0.2867
     24  CB        -9.7410   22.3410   29.7500 C.3    25  ASP25       0.1410
     25  CG       -10.0590   21.0360   29.0830 C.2    25  ASP25       0.3668
     26  OD1      -11.1800   20.8410   28.5900 O.co2  25  ASP25      -0.2456
     27  OD2       -9.1530   20.1860   29.0710 O.co2  25  ASP25      -0.2456
     28  N        -13.9710   20.8180   29.0170 N.3    27  GLY27      -0.1210
     29  CA       -14.1770   19.3870   28.9720 C.3    27  GLY27       0.1956
     30  C        -13.5510   18.6430   30.1420 C.2    27  GLY27       0.2612
     31  O        -13.7240   17.4280   30.2600 O.2    27  GLY27      -0.2717
     32  N        -12.8490   19.3430   31.0320 N.am   28  ALA28      -0.1965
     33  CA       -12.2000   18.6620   32.1630 C.3    28  ALA28       0.1728
     34  C        -12.8620   18.9660   33.4900 C.2    28  ALA28       0.2616
     35  O        -13.0800   20.1110   33.8410 O.2    28  ALA28      -0.2715
     36  CB       -10.7090   19.0310   32.2190 C.3    28  ALA28       0.0334
     37  N        -13.1850   17.9140   34.2320 N.am   29  ASP29      -0.1957
     38  CA       -13.8400   18.1000   35.5110 C.3    29  ASP29       0.1840
     39  C        -12.8270   18.7190   36.4570 C.2    29  ASP29       0.2622
     40  O        -13.1620   19.6280   37.2170 O.2    29  ASP29      -0.2715
     41  CB       -14.2620   16.7600   36.1180 C.3    29  ASP29       0.1450
     42  CG       -15.3560   16.0460   35.3200 C.2    29  ASP29       0.3671
     43  OD1      -15.4930   14.8120   35.5200 O.co2  29  ASP29      -0.2456
     44  OD2      -16.0670   16.6970   34.5100 O.co2  29  ASP29      -0.2456
     45  N        -11.5910   18.2270   36.3550 N.am   30  ASP30      -0.1971
     46  CA       -10.4830   18.6090   37.2440 C.3    30  ASP30       0.1709
     47  C         -9.3560   19.4090   36.6100 C.2    30  ASP30       0.2293
     48  O         -9.2130   19.4630   35.3910 O.2    30  ASP30      -0.2864
     49  CB        -9.8760   17.3420   37.8400 C.3    30  ASP30       0.1436
     50  CG       -10.9180   16.4310   38.4710 C.2    30  ASP30       0.3671
     51  OD1      -10.8190   15.1940   38.2840 O.co2  30  ASP30      -0.2456
     52  OD2      -11.8350   16.9480   39.1510 O.co2  30  ASP30      -0.2456
     53  N         -5.4220   19.7470   36.0750 N.3    32  VAL32      -0.1245
     54  CA        -4.2460   18.8690   36.0480 C.3    32  VAL32       0.1561
     55  C         -3.0220   19.5920   35.4790 C.2    32  VAL32       0.2260
     56  O         -3.0420   20.0690   34.3410 O.2    32  VAL32      -0.2867
     57  CB        -4.4950   17.6390   35.1500 C.3    32  VAL32       0.0252
     58  CG1       -3.3130   16.6980   35.2440 C.3    32  VAL32       0.0019
     59  CG2       -5.7760   16.9580   35.5370 C.3    32  VAL32       0.0019
     60  N         -4.0000    9.3360   43.1330 N.3    45  LYS45      -0.1231
     61  CA        -5.3030    9.2460   42.5030 C.3    45  LYS45       0.1693
     62  C         -5.0490    8.9210   41.0540 C.2    45  LYS45       0.2592
     63  O         -3.9420    9.1190   40.5450 O.2    45  LYS45      -0.2718
     64  CB        -6.0630   10.5680   42.6240 C.3    45  LYS45       0.0285
     65  CG        -7.4810   10.4930   42.1090 C.3    45  LYS45       0.0035
     66  CD        -8.1410   11.8560   42.0950 C.3    45  LYS45       0.0206
     67  CE        -9.5250   11.7980   41.4720 C.3    45  LYS45       0.1093
     68  NZ       -10.0970   13.1680   41.3110 N.3    45  LYS45      -0.1314
     69  N         -6.0820    8.4080   40.4010 N.am   46  MET46      -0.1965
     70  CA        -5.9990    8.0220   39.0050 C.3    46  MET46       0.1736
     71  C         -7.0450    8.8060   38.2490 C.2    46  MET46       0.2616
     72  O         -8.1670    8.9040   38.7150 O.2    46  MET46      -0.2715
     73  CB        -6.3270    6.5410   38.8630 C.3    46  MET46       0.0427
     74  CG        -5.5110    5.8210   37.8460 C.3    46  MET46       0.0599
     75  SD        -4.0250    5.1880   38.6180 S.3    46  MET46      -0.1393
     76  CE        -4.7480    3.8550   39.6050 C.3    46  MET46       0.0692
     77  N         -6.6880    9.3560   37.0940 N.am   47  ILE47      -0.1963
     78  CA        -7.6490   10.0880   36.2760 C.3    47  ILE47       0.1727
     79  C         -7.5800    9.5540   34.8610 C.2    47  ILE47       0.2617
     80  O         -6.5250    9.1370   34.4110 O.2    47  ILE47      -0.2715
     81  CB        -7.3900   11.6220   36.2500 C.3    47  ILE47       0.0290
     82  CG1       -5.9610   11.9200   35.8030 C.3    47  ILE47       0.0022
     83  CG2       -7.6870   12.2050   37.6110 C.3    47  ILE47       0.0023
     84  CD1       -5.7060   13.3830   35.5150 C.3    47  ILE47       0.0001
     85  N         -8.7130    9.5580   34.1690 N.am   48  GLY48      -0.1940
     86  CA        -8.7390    9.0550   32.8090 C.3    48  GLY48       0.2014
     87  C         -8.8670   10.1650   31.7940 C.2    48  GLY48       0.2639
     88  O         -9.2820   11.2750   32.1150 O.2    48  GLY48      -0.2714
     89  N         -8.4980    9.8480   30.5660 N.am   49  GLY49      -0.1939
     90  CA        -8.5570   10.8020   29.4820 C.3    49  GLY49       0.2014
     91  C         -8.8260   10.0440   28.2030 C.2    49  GLY49       0.2638
     92  O         -9.1770    8.8610   28.2160 O.2    49  GLY49      -0.2714
     93  N         -8.6340   10.7120   27.0790 N.am   50  ILE50      -0.1977
     94  CA        -8.8880   10.0900   25.7990 C.3    50  ILE50       0.1596
     95  C         -8.0050    8.8960   25.4430 C.2    50  ILE50       0.2287
     96  O         -8.4480    7.9900   24.7240 O.2    50  ILE50      -0.2864
     97  CB        -8.8260   11.1360   24.6820 C.3    50  ILE50       0.0276
     98  CG1       -9.8470   10.7720   23.6120 C.3    50  ILE50       0.0022
     99  CG2       -7.4140   11.2160   24.1100 C.3    50  ILE50       0.0022
    100  CD1      -10.0890   11.8660   22.5860 C.3    50  ILE50       0.0001
    101  N          0.4390   14.8240   32.3760 N.3    80  THR80      -0.1204
    102  CA        -0.4810   15.3100   31.3700 C.3    80  THR80       0.1979
    103  C          0.3460   16.0000   30.2910 C.2    80  THR80       0.2460
    104  O          1.3490   16.6270   30.5770 O.2    80  THR80      -0.2732
    105  CB        -1.4800   16.3470   31.9340 C.3    80  THR80       0.1783
    106  OG1       -2.1830   16.9780   30.8470 O.3    80  THR80      -0.2211
    107  CG2       -0.7440   17.4230   32.7490 C.3    80  THR80       0.0376
    108  N         -0.0620   15.8810   29.0310 N.am   81  PRO81      -0.2717
    109  CA         0.6960   16.5370   27.9520 C.3    81  PRO81       0.1535
    110  C          0.6100   18.0780   28.0160 C.2    81  PRO81       0.2598
    111  O          1.4820   18.7850   27.4970 O.2    81  PRO81      -0.2715
    112  CB         0.0510   15.9650   26.6840 C.3    81  PRO81       0.0310
    113  CG        -1.3290   15.5900   27.1600 C.3    81  PRO81       0.0237
    114  CD        -1.1240   15.0180   28.4930 C.3    81  PRO81       0.0939
    115  N         -0.4250   18.6060   28.6710 N.am   82  VAL82      -0.1978
    116  CA        -0.6100   20.0640   28.7600 C.3    82  VAL82       0.1596
    117  C         -1.2610   20.4780   30.0780 C.2    82  VAL82       0.2287
    118  O         -2.0600   19.7250   30.6300 O.2    82  VAL82      -0.2864
    119  CB        -1.5170   20.5610   27.5910 C.3    82  VAL82       0.0276
    120  CG1       -1.8140   22.0540   27.7370 C.3    82  VAL82       0.0022
    121  CG2       -0.8460   20.2730   26.2500 C.3    82  VAL82       0.0022
    122  N         -3.9050   21.9060   32.2760 N.3    84  ILE84      -0.1245
    123  CA        -5.3030   22.1990   32.0090 C.3    84  ILE84       0.1561
    124  C         -6.0280   22.7200   33.2420 C.2    84  ILE84       0.2260
    125  O         -5.8260   22.2370   34.3640 O.2    84  ILE84      -0.2867
    126  CB        -6.0670   20.9650   31.4850 C.3    84  ILE84       0.0252
    127  CG1       -5.9080   19.8130   32.4510 C.3    84  ILE84       0.0019
    128  CG2       -5.5750   20.5490   30.0870 C.3    84  ILE84       0.0019
    129  CD1       -6.5810   18.5870   31.9490 C.3    84  ILE84       0.0001
@<TRIPOS>BOND
     1    11     9    1
     2     9     8    2
     3     9    10    1
     4     1     2    1
     5     8     7    1
     6     6     7    1
     7     6     5    1
     8     2     5    1
     9     2     3    1
    10   100    98    1
    11     4     3    2
    12    98    97    1
    13    99    97    1
    14    97    94    1
    15    96    95    2
    16    95    94    1
    17    18    17    1
    18    94    93    1
    19   121   119    1
    20    19    17    1
    21   112   113    1
    22   112   109    1
    23    17    16    1
    24    93    91   am
    25   113   114    1
    26   111   110    2
    27   119   120    1
    28   119   116    1
    29   109   110    1
    30   109   108    1
    31    16    13    1
    32   110   115   am
    33    91    92    2
    34    91    90    1
    35   114   108    1
    36    26    25   ar
    37   115   116    1
    38   116   117    1
    39    13    14    1
    40    13    12    1
    41    29    28    1
    42    29    30    1
    43   108   103   am
    44    27    25   ar
    45    25    24    1
    46    21    24    1
    47    21    22    1
    48    21    20    1
    49    90    89    1
    50    14    15    2
    51    22    23    2
    52   117   118    2
    53   128   126    1
    54    30    31    2
    55    30    32   am
    56   103   104    2
    57   103   102    1
    58    89    87   am
    59   106   105    1
    60    32    33    1
    61   102   105    1
    62   102   101    1
    63   126   123    1
    64   126   127    1
    65    87    88    2
    66    87    86    1
    67   105   107    1
    68   129   127    1
    69   123   122    1
    70   123   124    1
    71    33    36    1
    72    33    34    1
    73    86    85    1
    74   124   125    2
    75    34    35    2
    76    34    37   am
    77    85    79   am
    78    37    38    1
    79    56    55    2
    80    80    79    2
    81    44    42   ar
    82    79    78    1
    83    57    58    1
    84    57    59    1
    85    57    54    1
    86    42    43   ar
    87    42    41    1
    88    48    47    2
    89    55    54    1
    90    38    41    1
    91    38    39    1
    92    84    82    1
    93    82    81    1
    94    54    53    1
    95    81    78    1
    96    81    83    1
    97    78    77    1
    98    45    39   am
    99    45    46    1
   100    39    40    2
   101    47    46    1
   102    77    71   am
   103    46    49    1
   104    49    50    1
   105    74    75    1
   106    74    73    1
   107    71    72    2
   108    71    70    1
   109    51    50   ar
   110    50    52   ar
   111    75    76    1
   112    73    70    1
   113    70    69    1
   114    69    62   am
   115    63    62    2
   116    62    61    1
   117    68    67    1
   118    67    66    1
   119    66    65    1
   120    65    64    1
   121    61    64    1
   122    61    60    1
