@<TRIPOS>MOLECULE
tmp/5yrsA00.pdb
 112 105 0 0 0
SMALL
GASTEIGER

@<TRIPOS>ATOM
      1  N        -21.1710   19.3970   33.8470 N.3     8  ARG8       -0.1245
      2  CA       -20.5970   19.2340   32.4860 C.3     8  ARG8        0.1563
      3  C        -21.4790   19.9280   31.4510 C.2     8  ARG8        0.2260
      4  O        -22.7120   19.8080   31.4890 O.2     8  ARG8       -0.2867
      5  CB       -20.4680   17.7620   32.1280 C.3     8  ARG8        0.0307
      6  CG       -19.3120   17.0830   32.8640 C.3     8  ARG8        0.0489
      7  CD       -19.2880   15.5820   32.6650 C.3     8  ARG8        0.2205
      8  NE       -18.2980   14.9720   33.5490 N.pl3   8  ARG8       -0.0865
      9  CZ       -18.1190   13.6610   33.6850 C.cat   8  ARG8        0.5346
     10  NH1      -18.8760   12.8180   32.9890 N.pl3   8  ARG8        0.1354
     11  NH2      -17.1860   13.1920   34.5110 N.pl3   8  ARG8        0.1354
     12  N        -20.0630   16.6010   24.7860 N.3    23  LEU23      -0.1245
     13  CA       -19.5230   17.6070   25.6890 C.3    23  LEU23       0.1561
     14  C        -18.8850   18.8030   24.9550 C.2    23  LEU23       0.2260
     15  O        -18.0310   18.5820   24.1070 O.2    23  LEU23      -0.2867
     16  CB       -18.4670   16.9040   26.5410 C.3    23  LEU23       0.0270
     17  CG       -17.6680   17.6380   27.6080 C.3    23  LEU23       0.0019
     18  CD1      -18.6150   18.0160   28.7400 C.3    23  LEU23       0.0001
     19  CD2      -16.5610   16.7200   28.1430 C.3    23  LEU23       0.0001
     20  N        -16.2300   21.1790   24.4780 N.3    25  ASP25      -0.1239
     21  CA       -14.8750   21.0260   25.0270 C.3    25  ASP25       0.1674
     22  C        -13.8430   21.9910   24.4710 C.2    25  ASP25       0.2266
     23  O        -13.2120   21.7190   23.4350 O.2    25  ASP25      -0.2867
     24  CB       -14.4660   19.6030   24.7110 C.3    25  ASP25       0.1410
     25  CG       -13.1860   19.1950   25.3660 C.2    25  ASP25       0.3668
     26  OD1      -12.4340   20.0560   25.8590 O.co2  25  ASP25      -0.2456
     27  OD2      -12.9380   17.9830   25.3730 O.co2  25  ASP25      -0.2456
     28  N        -11.0150   22.5110   25.4460 N.3    27  GLY27      -0.1210
     29  CA        -9.6680   21.9790   25.5210 C.3    27  GLY27       0.1956
     30  C         -9.3320   21.0300   24.3770 C.2    27  GLY27       0.2612
     31  O         -8.2100   20.5210   24.2800 O.2    27  GLY27      -0.2717
     32  N        -10.2860   20.8000   23.4780 N.am   28  ALA28      -0.1965
     33  CA       -10.0400   19.8760   22.3750 C.3    28  ALA28       0.1728
     34  C         -9.9650   20.6220   21.0540 C.2    28  ALA28       0.2616
     35  O        -10.8640   21.4030   20.7070 O.2    28  ALA28      -0.2715
     36  CB       -11.1490   18.8410   22.3010 C.3    28  ALA28       0.0334
     37  N         -8.8930   20.3620   20.3120 N.am   29  ASP29      -0.1957
     38  CA        -8.7120   21.0210   19.0290 C.3    29  ASP29       0.1840
     39  C         -9.7420   20.4480   18.0840 C.2    29  ASP29       0.2622
     40  O        -10.3740   21.1880   17.3410 O.2    29  ASP29      -0.2715
     41  CB        -7.3360   20.7100   18.4060 C.3    29  ASP29       0.1450
     42  CG        -6.1620   21.2680   19.2100 C.2    29  ASP29       0.3671
     43  OD1       -6.3390   22.2760   19.9350 O.co2  29  ASP29      -0.2456
     44  OD2       -5.0510   20.6950   19.0910 O.co2  29  ASP29      -0.2456
     45  N         -9.8730   19.1220   18.1320 N.am   30  ASP30      -0.1971
     46  CA       -10.7610   18.3560   17.2400 C.3    30  ASP30       0.1709
     47  C        -12.0290   17.7990   17.8930 C.2    30  ASP30       0.2293
     48  O        -12.1490   17.7290   19.1080 O.2    30  ASP30      -0.2864
     49  CB       -10.0120   17.1510   16.6410 C.3    30  ASP30       0.1436
     50  CG        -8.6170   17.4940   16.1190 C.2    30  ASP30       0.3671
     51  OD1       -8.4630   18.5210   15.4360 O.co2  30  ASP30      -0.2456
     52  OD2       -7.6710   16.7150   16.3860 O.co2  30  ASP30      -0.2456
     53  N        -14.3780   14.5800   18.4820 N.3    32  VAL32      -0.1245
     54  CA       -14.2090   13.1270   18.5230 C.3    32  VAL32       0.1561
     55  C        -15.4310   12.4280   19.0920 C.2    32  VAL32       0.2260
     56  O        -15.8350   12.6610   20.2450 O.2    32  VAL32      -0.2867
     57  CB       -12.9980   12.7340   19.4020 C.3    32  VAL32       0.0252
     58  CG1      -12.8570   11.2120   19.4320 C.3    32  VAL32       0.0019
     59  CG2      -11.7500   13.4100   18.8930 C.3    32  VAL32       0.0019
     60  N         -4.6230   10.4210   17.4990 N.3    47  ILE47      -0.1231
     61  CA        -4.7030   11.6470   18.2720 C.3    47  ILE47       0.1692
     62  C         -4.3530   11.3010   19.7130 C.2    47  ILE47       0.2593
     63  O         -4.5590   10.1800   20.1530 O.2    47  ILE47      -0.2718
     64  CB        -6.1270   12.2620   18.1990 C.3    47  ILE47       0.0266
     65  CG1       -7.1580   11.2680   18.7160 C.3    47  ILE47       0.0019
     66  CG2       -6.4180   12.6760   16.7740 C.3    47  ILE47       0.0020
     67  CD1       -8.5560   11.8010   18.7850 C.3    47  ILE47       0.0001
     68  N         -3.7900   12.2460   20.4450 N.am   48  GLY48      -0.1942
     69  CA        -3.4520   11.9760   21.8320 C.3    48  GLY48       0.2014
     70  C         -4.2370   12.8160   22.8330 C.2    48  GLY48       0.2639
     71  O         -4.8870   13.8070   22.4860 O.2    48  GLY48      -0.2714
     72  N         -4.1570   12.4100   24.0910 N.am   49  GLY49      -0.1939
     73  CA        -4.8260   13.0960   25.1760 C.3    49  GLY49       0.2014
     74  C         -4.1490   12.6480   26.4520 C.2    49  GLY49       0.2638
     75  O         -3.0430   12.1170   26.4120 O.2    49  GLY49      -0.2714
     76  N         -4.7860   12.8730   27.5940 N.am   50  ILE50      -0.1977
     77  CA        -4.2280   12.3880   28.8380 C.3    50  ILE50       0.1596
     78  C         -4.3950   10.8680   28.7260 C.2    50  ILE50       0.2287
     79  O         -5.4490   10.3890   28.3100 O.2    50  ILE50      -0.2864
     80  CB        -5.0260   12.9380   30.0460 C.3    50  ILE50       0.0276
     81  CG1       -4.4140   14.2690   30.4670 C.3    50  ILE50       0.0022
     82  CG2       -5.0250   11.9420   31.2230 C.3    50  ILE50       0.0022
     83  CD1       -5.0410   14.8620   31.7000 C.3    50  ILE50       0.0001
     84  N        -13.0680    7.0120   22.1230 N.3    80  THR80      -0.1204
     85  CA       -13.0290    8.0420   23.1540 C.3    80  THR80       0.1979
     86  C        -14.0520    7.7130   24.2400 C.2    80  THR80       0.2460
     87  O        -15.1230    7.2020   23.9510 O.2    80  THR80      -0.2732
     88  CB       -13.3510    9.4470   22.5870 C.3    80  THR80       0.1783
     89  OG1      -13.4990   10.3750   23.6750 O.3    80  THR80      -0.2211
     90  CG2      -14.6450    9.4240   21.7690 C.3    80  THR80       0.0376
     91  N        -13.7300    7.9930   25.5030 N.am   81  PRO81      -0.2717
     92  CA       -14.6710    7.7060   26.6060 C.3    81  PRO81       0.1535
     93  C        -15.9510    8.5650   26.5780 C.2    81  PRO81       0.2598
     94  O        -16.9620    8.2160   27.2060 O.2    81  PRO81      -0.2715
     95  CB       -13.8320    7.9580   27.8570 C.3    81  PRO81       0.0310
     96  CG       -12.7940    8.9380   27.3900 C.3    81  PRO81       0.0237
     97  CD       -12.4420    8.4980   26.0050 C.3    81  PRO81       0.0939
     98  N        -15.9050    9.6810   25.8480 N.am   82  VAL82      -0.1978
     99  CA       -17.0430   10.6010   25.7400 C.3    82  VAL82       0.1596
    100  C        -17.0540   11.2980   24.3940 C.2    82  VAL82       0.2287
    101  O        -16.0080   11.5060   23.7970 O.2    82  VAL82      -0.2864
    102  CB       -16.9660   11.7080   26.7850 C.3    82  VAL82       0.0276
    103  CG1      -17.1810   11.1450   28.1690 C.3    82  VAL82       0.0022
    104  CG2      -15.6260   12.4020   26.6500 C.3    82  VAL82       0.0022
    105  N        -16.9720   14.3000   22.1730 N.3    84  ILE84      -0.1245
    106  CA       -16.4320   15.6330   22.4130 C.3    84  ILE84       0.1561
    107  C        -16.6120   16.5530   21.2160 C.2    84  ILE84       0.2260
    108  O        -16.3380   16.1500   20.0960 O.2    84  ILE84      -0.2867
    109  CB       -14.9190   15.5700   22.6340 C.3    84  ILE84       0.0252
    110  CG1      -14.5940   14.7470   23.8660 C.3    84  ILE84       0.0019
    111  CG2      -14.3570   16.9850   22.7020 C.3    84  ILE84       0.0019
    112  CD1      -13.1660   14.1920   23.8090 C.3    84  ILE84       0.0001
@<TRIPOS>BOND
     1    51    50   ar
     2    50    52   ar
     3    50    49    1
     4    49    46    1
     5    66    64    1
     6    46    47    1
     7    46    45    1
     8    40    39    2
     9    60    61    1
    10    47    48    2
    11    39    45   am
    12    39    38    1
    13    64    61    1
    14    64    65    1
    15    61    62    1
    16    41    38    1
    17    41    42    1
    18    53    54    1
    19    54    55    1
    20    54    57    1
    21    65    67    1
    22    59    57    1
    23    38    37    1
    24    44    42   ar
    25    55    56    2
    26    42    43   ar
    27    57    58    1
    28    62    63    2
    29    62    68   am
    30   108   107    2
    31    37    34   am
    32    68    69    1
    33    35    34    2
    34    34    33    1
    35   107   106    1
    36    90    88    1
    37    69    70    1
    38    84    85    1
    39   105   106    1
    40    36    33    1
    41    33    32    1
    42   106   109    1
    43    71    70    2
    44    88    85    1
    45    88    89    1
    46   109   111    1
    47   109   110    1
    48    70    72   am
    49    85    86    1
    50    23    22    2
    51    32    30   am
    52   101   100    2
    53   112   110    1
    54    87    86    2
    55    72    73    1
    56    15    14    2
    57    86    91   am
    58    31    30    2
    59    30    29    1
    60   100    99    1
    61    22    21    1
    62    20    21    1
    63    24    21    1
    64    24    25    1
    65    12    13    1
    66    14    13    1
    67    73    74    1
    68    25    27   ar
    69    25    26   ar
    70    28    29    1
    71    91    97    1
    72    91    92    1
    73    13    16    1
    74    99    98    1
    75    99   102    1
    76    98    93   am
    77    97    96    1
    78    75    74    2
    79    74    76   am
    80    16    17    1
    81    93    92    1
    82    93    94    2
    83    92    95    1
    84   104   102    1
    85   102   103    1
    86    96    95    1
    87    76    77    1
    88    17    19    1
    89    17    18    1
    90    79    78    2
    91    78    77    1
    92    77    80    1
    93    80    81    1
    94    80    82    1
    95    81    83    1
    96     3     4    2
    97     3     2    1
    98     5     2    1
    99     5     6    1
   100     2     1    1
   101     7     6    1
   102     7     8    1
   103    10     9    1
   104     8     9    2
   105     9    11    1
