@<TRIPOS>MOLECULE
tmp/5yrtJ00.pdb
 133 124 0 0 0
SMALL
GASTEIGER

@<TRIPOS>ATOM
      1  N       -125.7880  171.0790   38.9350 N.3   170  GLU170     -0.1245
      2  CA      -124.6120  170.2700   38.6540 C.3   170  GLU170      0.1567
      3  C       -123.3710  170.9560   39.1980 C.2   170  GLU170      0.2260
      4  O       -123.1950  172.1620   39.0050 O.2   170  GLU170     -0.2867
      5  CB      -124.4560  170.0610   37.1400 C.3   170  GLU170      0.0388
      6  CG      -123.1460  169.4060   36.7100 C.3   170  GLU170      0.1160
      7  CD      -123.0340  169.2810   35.1950 C.2   170  GLU170      0.3649
      8  OE1     -123.7360  170.0330   34.4760 O.co2 170  GLU170     -0.2457
      9  OE2     -122.2460  168.4350   34.7190 O.co2 170  GLU170     -0.2457
     10  N       -120.0610  165.8830   38.6000 N.3   202  SER202     -0.1217
     11  CA      -119.4980  165.3050   37.3900 C.3   202  SER202      0.1889
     12  C       -118.0260  164.9620   37.6060 C.2   202  SER202      0.2288
     13  O       -117.2010  165.8420   37.8690 O.2   202  SER202     -0.2866
     14  CB      -119.7160  166.2700   36.2290 C.3   202  SER202      0.2089
     15  OG      -121.1170  166.5050   36.0990 O.3   202  SER202     -0.2183
     16  N       -115.7500  158.1950   35.7660 N.3   205  GLU205     -0.1245
     17  CA      -117.0090  157.4330   35.8200 C.3   205  GLU205      0.1567
     18  C       -117.1030  156.5330   37.0540 C.2   205  GLU205      0.2260
     19  O       -118.1460  156.4900   37.7180 O.2   205  GLU205     -0.2867
     20  CB      -117.2210  156.6030   34.5480 C.3   205  GLU205      0.0388
     21  CG      -117.2480  157.4030   33.2160 C.3   205  GLU205      0.1160
     22  CD      -118.4250  158.3610   33.0580 C.2   205  GLU205      0.3649
     23  OE1     -119.1650  158.5910   34.0370 O.co2 205  GLU205     -0.2457
     24  OE2     -118.5920  158.8940   31.9290 O.co2 205  GLU205     -0.2457
     25  N       -123.0420  163.2840   33.0940 N.3   222  THR222     -0.1218
     26  CA      -121.8460  163.3230   32.2590 C.3   222  THR222      0.1862
     27  C       -121.2930  161.9230   32.0520 C.2   222  THR222      0.2287
     28  O       -120.0910  161.6780   32.1850 O.2   222  THR222     -0.2866
     29  CB      -120.7980  164.2640   32.8650 C.3   222  THR222      0.1770
     30  OG1     -120.3460  163.7610   34.1300 O.3   222  THR222     -0.2211
     31  CG2     -121.4240  165.6400   33.0760 C.3   222  THR222      0.0375
     32  N       -120.3100  159.7690   29.5440 N.3   224  SER224     -0.1202
     33  CA      -119.9590  160.2380   28.2060 C.3   224  SER224      0.2020
     34  C       -119.9190  159.1110   27.1880 C.2   224  SER224      0.2619
     35  O       -119.4110  158.0220   27.4610 O.2   224  SER224     -0.2717
     36  CB      -118.6030  160.9420   28.2280 C.3   224  SER224      0.2103
     37  OG      -118.7430  162.2350   28.8030 O.3   224  SER224     -0.2182
     38  N       -120.4480  159.3880   25.9930 N.am  225  VAL225     -0.1965
     39  CA      -120.2370  158.5060   24.8540 C.3   225  VAL225      0.1727
     40  C       -119.6230  159.3250   23.7210 C.2   225  VAL225      0.2616
     41  O       -119.6390  160.5620   23.7270 O.2   225  VAL225     -0.2715
     42  CB      -121.5240  157.7810   24.3970 C.3   225  VAL225      0.0290
     43  CG1     -122.0540  156.8930   25.5240 C.3   225  VAL225      0.0023
     44  CG2     -122.5880  158.7630   23.9510 C.3   225  VAL225      0.0023
     45  N       -119.0600  158.6080   22.7520 N.am  226  TYR226     -0.1974
     46  CA      -118.2140  159.1780   21.7090 C.3   226  TYR226      0.1639
     47  C       -118.5050  158.4720   20.3910 C.2   226  TYR226      0.2290
     48  O       -118.9020  157.3030   20.3770 O.2   226  TYR226     -0.2864
     49  CB      -116.7350  159.0210   22.0680 C.3   226  TYR226      0.0560
     50  CG      -116.3740  159.6220   23.4080 C.ar  226  TYR226     -0.0198
     51  CD1     -115.9710  160.9470   23.5070 C.ar  226  TYR226     -0.0009
     52  CD2     -116.4290  158.8620   24.5730 C.ar  226  TYR226     -0.0009
     53  CE1     -115.6270  161.5030   24.7310 C.ar  226  TYR226      0.0417
     54  CE2     -116.0870  159.4040   25.7930 C.ar  226  TYR226      0.0417
     55  CZ      -115.6930  160.7210   25.8690 C.ar  226  TYR226      0.1957
     56  OH      -115.3560  161.2480   27.0900 O.3   226  TYR226     -0.2866
     57  N       -123.9790  161.7790   28.0370 N.3   259  THR259     -0.1203
     58  CA      -123.6060  163.0510   27.4210 C.3   259  THR259      0.1994
     59  C       -122.8160  162.7750   26.1500 C.2   259  THR259      0.2619
     60  O       -121.9640  161.8860   26.1140 O.2   259  THR259     -0.2717
     61  CB      -122.7640  163.9540   28.3650 C.3   259  THR259      0.1784
     62  OG1     -123.5560  164.3610   29.4850 O.3   259  THR259     -0.2211
     63  CG2     -122.2910  165.2260   27.6350 C.3   259  THR259      0.0376
     64  N       -123.1090  163.5390   25.1020 N.am  260  SER260     -0.1937
     65  CA      -122.2700  163.5400   23.9150 C.3   260  SER260      0.2055
     66  C       -122.1410  164.9740   23.4330 C.2   260  SER260      0.2643
     67  O       -122.2290  165.9070   24.2360 O.2   260  SER260     -0.2714
     68  CB      -122.8470  162.6160   22.8260 C.3   260  SER260      0.2130
     69  OG      -124.2100  162.8910   22.5350 O.3   260  SER260     -0.2179
     70  N       -121.9020  165.1690   22.1450 N.am  261  GLY261     -0.1954
     71  CA      -121.8350  166.5220   21.6330 C.3   261  GLY261      0.1869
     72  C       -120.9050  166.6430   20.4550 C.2   261  GLY261      0.2309
     73  O       -119.8020  166.0880   20.4690 O.2   261  GLY261     -0.2863
     74  N       -116.4230  166.4310   19.7760 N.3   264  SER264     -0.1217
     75  CA      -115.5730  165.7220   20.7260 C.3   264  SER264      0.1889
     76  C       -114.5130  164.8950   20.0100 C.2   264  SER264      0.2288
     77  O       -113.3790  164.7840   20.4920 O.2   264  SER264     -0.2866
     78  CB      -116.4110  164.8230   21.6360 C.3   264  SER264      0.2089
     79  OG      -117.0650  163.8130   20.8740 O.3   264  SER264     -0.2183
     80  N       -127.5490  164.6000   27.1430 N.3   296  GLN296     -0.1245
     81  CA      -127.0620  165.9690   27.0800 C.3   296  GLN296      0.1566
     82  C       -126.2140  166.1050   25.8200 C.2   296  GLN296      0.2260
     83  O       -125.1920  165.4150   25.6860 O.2   296  GLN296     -0.2867
     84  CB      -126.2450  166.3120   28.3280 C.3   296  GLN296      0.0367
     85  CG      -125.7020  167.7480   28.3240 C.3   296  GLN296      0.0905
     86  CD      -124.8460  168.0840   29.5420 C.2   296  GLN296      0.2608
     87  OE1     -124.9690  169.1640   30.1190 O.2   296  GLN296     -0.2717
     88  NE2     -123.9530  167.1790   29.9090 N.am  296  GLN296     -0.0878
     89  N       -123.1360  169.9230   21.2620 N.3   299  SER299     -0.1202
     90  CA      -121.6880  170.1190   21.3780 C.3   299  SER299      0.2020
     91  C       -121.1690  170.1050   22.8130 C.2   299  SER299      0.2619
     92  O       -120.1060  169.5290   23.0760 O.2   299  SER299     -0.2717
     93  CB      -121.2310  171.4170   20.7060 C.3   299  SER299      0.2103
     94  OG      -119.8250  171.3670   20.5520 O.3   299  SER299     -0.2182
     95  N       -121.8910  170.7510   23.7280 N.am  300  VAL300     -0.1965
     96  CA      -121.5600  170.7900   25.1530 C.3   300  VAL300      0.1727
     97  C       -120.1370  171.3320   25.3080 C.2   300  VAL300      0.2617
     98  O       -119.8550  172.4520   24.8720 O.2   300  VAL300     -0.2715
     99  CB      -121.7630  169.4080   25.8080 C.3   300  VAL300      0.0290
    100  CG1     -121.7700  169.5110   27.3440 C.3   300  VAL300      0.0023
    101  CG2     -123.0930  168.8090   25.3460 C.3   300  VAL300      0.0023
    102  N       -119.2130  170.5500   25.8780 N.am  301  SER301     -0.1936
    103  CA      -117.9030  171.1230   26.2050 C.3   301  SER301      0.2055
    104  C       -117.0040  171.3690   24.9980 C.2   301  SER301      0.2643
    105  O       -115.9500  171.9920   25.1600 O.2   301  SER301     -0.2714
    106  CB      -117.1530  170.2250   27.1970 C.3   301  SER301      0.2130
    107  OG      -117.8460  170.1940   28.4430 O.3   301  SER301     -0.2179
    108  N       -117.3540  170.8800   23.8120 N.am  302  CYS302     -0.1967
    109  CA      -116.4950  171.0370   22.6450 C.3   302  CYS302      0.1712
    110  C       -117.0140  172.1060   21.6900 C.2   302  CYS302      0.2296
    111  O       -116.6470  172.1070   20.5090 O.2   302  CYS302     -0.2864
    112  CB      -116.3280  169.6930   21.9330 C.3   302  CYS302      0.0983
    113  SG      -115.5160  168.4670   23.0360 S.3   302  CYS302     -0.0798
    114  N       -121.7560  176.1950   27.8190 N.3   336  GLN336     -0.1245
    115  CA      -120.3150  176.2790   27.6500 C.3   336  GLN336      0.1566
    116  C       -119.9450  177.4740   26.7790 C.2   336  GLN336      0.2260
    117  O       -120.6220  177.7740   25.7870 O.2   336  GLN336     -0.2867
    118  CB      -119.7710  174.9690   27.0530 C.3   336  GLN336      0.0367
    119  CG      -119.9710  173.7580   27.9650 C.3   336  GLN336      0.0905
    120  CD      -118.9250  173.6610   29.0620 C.2   336  GLN336      0.2608
    121  OE1     -117.9900  172.8720   28.9620 O.2   336  GLN336     -0.2717
    122  NE2     -119.0820  174.4540   30.1200 N.am  336  GLN336     -0.0878
    123  N       -116.5750  174.3610   34.7400 N.3   374  PHE374     -0.1241
    124  CA      -116.6410  173.8220   33.3910 C.3   374  PHE374      0.1605
    125  C       -116.0590  174.8000   32.3760 C.2   374  PHE374      0.2264
    126  O       -116.3920  174.7330   31.1870 O.2   374  PHE374     -0.2867
    127  CB      -118.0840  173.4440   33.0390 C.3   374  PHE374      0.0534
    128  CG      -118.6840  172.4120   33.9730 C.ar  374  PHE374     -0.0203
    129  CD1     -118.4730  171.0620   33.7540 C.ar  374  PHE374     -0.0042
    130  CD2     -119.4800  172.7970   35.0480 C.ar  374  PHE374     -0.0042
    131  CE1     -119.0260  170.0950   34.6090 C.ar  374  PHE374     -0.0003
    132  CE2     -120.0500  171.8390   35.8950 C.ar  374  PHE374     -0.0003
    133  CZ      -119.8210  170.4920   35.6730 C.ar  374  PHE374     -0.0000
@<TRIPOS>BOND
     1    74    75    1
     2    76    77    2
     3    76    75    1
     4    48    47    2
     5    47    46    1
     6    72    73    2
     7    72    71    1
     8   111   110    2
     9    94    93    1
    10    93    90    1
    11    75    78    1
    12    79    78    1
    13    89    90    1
    14    90    91    1
    15    71    70    1
    16   110   109    1
    17    46    49    1
    18    46    45    1
    19   112   109    1
    20   112   113    1
    21    49    50    1
    22    70    66   am
    23    69    68    1
    24   109   108    1
    25    45    40   am
    26    91    92    2
    27    91    95   am
    28    68    65    1
    29    50    51   ar
    30    50    52   ar
    31    66    65    1
    32    66    67    2
    33    51    53   ar
    34    40    41    2
    35    40    39    1
    36    95    96    1
    37   108   104   am
    38    65    64    1
    39    44    42    1
    40    42    39    1
    41    42    43    1
    42    52    54   ar
    43    53    55   ar
    44    39    38    1
    45    98    97    2
    46   104   105    2
    47   104   103    1
    48    64    59   am
    49    96    97    1
    50    96    99    1
    51    97   102   am
    52   101    99    1
    53    83    82    2
    54   117   116    2
    55    54    55   ar
    56    99   100    1
    57    82    81    1
    58    55    56    1
    59   102   103    1
    60    38    34   am
    61    60    59    2
    62    59    58    1
    63   103   106    1
    64   116   115    1
    65   118   115    1
    66   118   119    1
    67    81    80    1
    68    81    84    1
    69    34    35    2
    70    34    33    1
    71   106   107    1
    72    58    57    1
    73    58    61    1
    74    63    61    1
    75   115   114    1
    76   119   120    1
    77    33    36    1
    78    33    32    1
    79    36    37    1
    80    85    84    1
    81    85    86    1
    82    61    62    1
    83   121   120    2
    84   120   122   am
    85    86    88   am
    86    86    87    2
    87   126   125    2
    88    24    22   ar
    89    27    28    2
    90    27    26    1
    91    26    29    1
    92    26    25    1
    93   125   124    1
    94    29    31    1
    95    29    30    1
    96   127   124    1
    97   127   128    1
    98    22    21    1
    99    22    23   ar
   100    21    20    1
   101   124   123    1
   102   129   128   ar
   103   129   131   ar
   104   128   130   ar
   105     8     7   ar
   106    20    17    1
   107   131   133   ar
   108     9     7   ar
   109   130   132   ar
   110     7     6    1
   111   133   132   ar
   112    16    17    1
   113    17    18    1
   114    15    14    1
   115    14    11    1
   116     6     5    1
   117    18    19    2
   118     5     2    1
   119    11    12    1
   120    11    10    1
   121    12    13    2
   122     2     1    1
   123     2     3    1
   124     4     3    2
