@<TRIPOS>MOLECULE
tmp/5ys0B00.pdb
 187 172 0 0 0
SMALL
GASTEIGER

@<TRIPOS>ATOM
      1  N       -115.1330   -2.1860  -20.1900 N.3    36  GLN36      -0.1245
      2  CA      -114.3830   -1.3150  -19.2880 C.3    36  GLN36       0.1566
      3  C       -114.9230    0.1080  -19.3130 C.2    36  GLN36       0.2260
      4  O       -114.1420    1.0610  -19.4240 O.2    36  GLN36      -0.2867
      5  CB      -112.8900   -1.3350  -19.6320 C.3    36  GLN36       0.0367
      6  CG      -112.3040   -2.7120  -19.5010 C.3    36  GLN36       0.0905
      7  CD      -110.8130   -2.7360  -19.6990 C.2    36  GLN36       0.2608
      8  OE1     -110.1910   -1.7020  -19.9700 O.2    36  GLN36      -0.2717
      9  NE2     -110.2200   -3.9110  -19.5660 N.am   36  GLN36      -0.0878
     10  N       -111.7730    4.9980  -28.3050 N.3    56  TYR56      -0.1241
     11  CA      -113.0570    4.8620  -27.6460 C.3    56  TYR56       0.1605
     12  C       -113.1960    6.0080  -26.6740 C.2    56  TYR56       0.2264
     13  O       -112.2400    6.7370  -26.4000 O.2    56  TYR56      -0.2867
     14  CB      -113.1950    3.5310  -26.9130 C.3    56  TYR56       0.0534
     15  CG      -112.0620    3.2230  -25.9780 C.ar   56  TYR56      -0.0201
     16  CD1     -112.0610    3.6930  -24.6640 C.ar   56  TYR56      -0.0009
     17  CD2     -111.0130    2.4220  -26.3910 C.ar   56  TYR56      -0.0009
     18  CE1     -111.0170    3.3900  -23.7910 C.ar   56  TYR56       0.0417
     19  CE2     -109.9720    2.0990  -25.5340 C.ar   56  TYR56       0.0417
     20  CZ      -109.9690    2.5920  -24.2380 C.ar   56  TYR56       0.1957
     21  OH      -108.9160    2.2760  -23.4090 O.3    56  TYR56      -0.2866
     22  N       -114.3120    6.8800  -22.7750 N.3    58  LYS58      -0.1245
     23  CA      -114.4080    6.2380  -21.4770 C.3    58  LYS58       0.1561
     24  C       -115.3080    7.0630  -20.5810 C.2    58  LYS58       0.2260
     25  O       -115.1660    8.2820  -20.5150 O.2    58  LYS58      -0.2867
     26  CB      -113.0380    6.0580  -20.8230 C.3    58  LYS58       0.0271
     27  CG      -113.1240    5.3730  -19.4580 C.3    58  LYS58       0.0035
     28  CD      -111.7490    5.0660  -18.9190 C.3    58  LYS58       0.0206
     29  CE      -111.2170    3.8280  -19.5380 C.3    58  LYS58       0.1093
     30  NZ      -111.7710    2.6380  -18.8500 N.3    58  LYS58      -0.1314
     31  N       -115.9070    8.0240  -16.9750 N.3    60  LEU60      -0.1245
     32  CA      -115.2930    8.0790  -15.6520 C.3    60  LEU60       0.1561
     33  C       -116.3590    8.4500  -14.6290 C.2    60  LEU60       0.2260
     34  O       -117.2240    9.2930  -14.8970 O.2    60  LEU60      -0.2867
     35  CB      -114.1440    9.0880  -15.6060 C.3    60  LEU60       0.0270
     36  CG      -113.3060    9.2950  -16.8640 C.3    60  LEU60       0.0019
     37  CD1     -113.5330   10.6760  -17.3880 C.3    60  LEU60       0.0001
     38  CD2     -111.8570    9.1120  -16.5750 C.3    60  LEU60       0.0001
     39  N       -116.2500    9.8730  -11.2440 N.3    62  ASN62      -0.1240
     40  CA      -115.7400   10.6020  -10.0910 C.3    62  ASN62       0.1653
     41  C       -116.6830   11.7100   -9.6230 C.2    62  ASN62       0.2266
     42  O       -116.5890   12.1350   -8.4650 O.2    62  ASN62      -0.2867
     43  CB      -114.3580   11.1880  -10.4230 C.3    62  ASN62       0.1155
     44  CG      -113.8980   12.2440   -9.4230 C.2    62  ASN62       0.2627
     45  OD1     -113.5550   13.3640   -9.8070 O.2    62  ASN62      -0.2716
     46  ND2     -113.8960   11.8920   -8.1350 N.am   62  ASN62      -0.0877
     47  N       -114.2430   15.3920  -11.7600 N.3    65  GLY65      -0.1210
     48  CA      -113.6360   15.5950  -13.0620 C.3    65  GLY65       0.1940
     49  C       -114.6180   15.3910  -14.2060 C.2    65  GLY65       0.2453
     50  O       -115.8390   15.3160  -14.0000 O.2    65  GLY65      -0.2732
     51  N       -114.1080   15.2810  -15.4380 N.am   66  PRO66      -0.2728
     52  CA      -115.0090   15.0740  -16.5790 C.3    66  PRO66       0.1401
     53  C       -115.7930   13.7820  -16.4100 C.2    66  PRO66       0.2269
     54  O       -115.3350   12.8230  -15.7830 O.2    66  PRO66      -0.2865
     55  CB      -114.0630   14.9980  -17.7850 C.3    66  PRO66       0.0296
     56  CG      -112.7050   15.3550  -17.2760 C.3    66  PRO66       0.0237
     57  CD      -112.6970   15.0890  -15.8030 C.3    66  PRO66       0.0939
     58  N       -114.2020   10.7350  -21.3840 N.3    69  THR69      -0.1218
     59  CA      -113.0610   11.2280  -22.1570 C.3    69  THR69       0.1862
     60  C       -112.7480   10.2880  -23.3080 C.2    69  THR69       0.2287
     61  O       -112.8590    9.0600  -23.1710 O.2    69  THR69      -0.2866
     62  CB      -111.7820   11.3820  -21.3280 C.3    69  THR69       0.1770
     63  OG1     -110.6720   11.4930  -22.2250 O.3    69  THR69      -0.2211
     64  CG2     -111.5670   10.1710  -20.4340 C.3    69  THR69       0.0375
     65  N       -110.1720    8.3010  -25.6050 N.3    71  CYS71      -0.1235
     66  CA      -108.8870    7.6370  -25.4700 C.3    71  CYS71       0.1677
     67  C       -108.3750    7.2770  -26.8500 C.2    71  CYS71       0.2270
     68  O       -109.0890    6.6490  -27.6320 O.2    71  CYS71      -0.2867
     69  CB      -109.0190    6.3890  -24.6420 C.3    71  CYS71       0.0956
     70  SG      -109.4880    6.7940  -22.9810 S.3    71  CYS71      -0.0801
     71  N        -99.0790   -0.2640  -24.4690 N.3    90  GLN90      -0.1245
     72  CA      -100.1330    0.6830  -24.7960 C.3    90  GLN90       0.1566
     73  C        -99.6220    2.0710  -24.4560 C.2    90  GLN90       0.2260
     74  O        -99.0430    2.2630  -23.3800 O.2    90  GLN90      -0.2867
     75  CB      -101.4090    0.4020  -23.9900 C.3    90  GLN90       0.0367
     76  CG      -102.4670   -0.3540  -24.6930 C.3    90  GLN90       0.0905
     77  CD      -103.6210   -0.6650  -23.7670 C.2    90  GLN90       0.2608
     78  OE1     -103.8170    0.0270  -22.7630 O.2    90  GLN90      -0.2717
     79  NE2     -104.3790   -1.7210  -24.0800 N.am   90  GLN90      -0.0878
     80  N       -101.5750    5.5080  -24.0750 N.3    92  VAL92      -0.1245
     81  CA      -102.9520    6.0130  -24.0340 C.3    92  VAL92       0.1561
     82  C       -102.9590    7.5360  -23.9450 C.2    92  VAL92       0.2260
     83  O       -102.3390    8.1220  -23.0440 O.2    92  VAL92      -0.2867
     84  CB      -103.7340    5.4130  -22.8550 C.3    92  VAL92       0.0252
     85  CG1     -105.2060    5.8020  -22.9600 C.3    92  VAL92       0.0019
     86  CG2     -103.5560    3.9180  -22.8220 C.3    92  VAL92       0.0019
     87  N       -105.4890   10.9630  -23.5570 N.3    94  SER94      -0.1217
     88  CA      -106.7900   11.4470  -23.0860 C.3    94  SER94       0.1889
     89  C       -106.8440   12.9530  -23.3120 C.2    94  SER94       0.2288
     90  O       -106.6490   13.7490  -22.3850 O.2    94  SER94      -0.2866
     91  CB      -107.0190   11.1020  -21.6130 C.3    94  SER94       0.2089
     92  OG      -107.3020    9.7250  -21.4600 O.3    94  SER94      -0.2183
     93  N       -109.1690   15.4390  -20.8860 N.3    97  VAL97      -0.1231
     94  CA      -108.9050   15.4200  -19.4530 C.3    97  VAL97       0.1678
     95  C       -108.1190   16.6970  -19.1660 C.2    97  VAL97       0.2434
     96  O       -107.6900   17.3670  -20.1180 O.2    97  VAL97      -0.2733
     97  CB      -108.1920   14.1000  -19.0820 C.3    97  VAL97       0.0265
     98  CG1     -106.9440   14.3130  -18.2760 C.3    97  VAL97       0.0020
     99  CG2     -109.1650   13.1480  -18.3750 C.3    97  VAL97       0.0020
    100  N       -107.9850   17.1480  -17.9260 N.am   98  PRO98      -0.2729
    101  CA      -107.0730   18.2730  -17.6770 C.3    98  PRO98       0.1401
    102  C       -105.6320   17.9480  -18.0930 C.2    98  PRO98       0.2269
    103  O       -105.1200   16.8520  -17.8420 O.2    98  PRO98      -0.2865
    104  CB      -107.2080   18.5060  -16.1690 C.3    98  PRO98       0.0296
    105  CG      -108.6190   18.1230  -15.8850 C.3    98  PRO98       0.0237
    106  CD      -108.8480   16.8860  -16.7620 C.3    98  PRO98       0.0939
    107  N        -99.3780   14.9870  -21.7110 N.3   103  PHE103     -0.1241
    108  CA       -98.8660   13.6940  -21.2890 C.3   103  PHE103      0.1605
    109  C        -99.4790   12.5980  -22.1580 C.2   103  PHE103      0.2264
    110  O       -100.0470   12.8620  -23.2230 O.2   103  PHE103     -0.2867
    111  CB       -99.1170   13.4780  -19.7900 C.3   103  PHE103      0.0534
    112  CG      -100.5690   13.3400  -19.4210 C.ar  103  PHE103     -0.0203
    113  CD1     -101.3220   14.4490  -19.0980 C.ar  103  PHE103     -0.0042
    114  CD2     -101.1760   12.0880  -19.3600 C.ar  103  PHE103     -0.0042
    115  CE1     -102.6710   14.3120  -18.7460 C.ar  103  PHE103     -0.0003
    116  CE2     -102.5070   11.9530  -18.9990 C.ar  103  PHE103     -0.0003
    117  CZ      -103.2530   13.0620  -18.7010 C.ar  103  PHE103     -0.0000
    118  N       -100.1610    7.9790  -21.2110 N.3   105  VAL105     -0.1245
    119  CA       -99.9520    6.9690  -20.1780 C.3   105  VAL105      0.1561
    120  C        -99.3520    5.7290  -20.8110 C.2   105  VAL105      0.2260
    121  O        -99.9130    5.1570  -21.7470 O.2   105  VAL105     -0.2867
    122  CB      -101.2390    6.6270  -19.4260 C.3   105  VAL105      0.0252
    123  CG1     -100.9470    5.5500  -18.4650 C.3   105  VAL105      0.0019
    124  CG2     -101.7560    7.8620  -18.6940 C.3   105  VAL105      0.0019
    125  N        -97.6190   -4.4960  -20.7590 N.3   109  PHE109     -0.1241
    126  CA       -98.2470   -5.7460  -20.3370 C.3   109  PHE109      0.1605
    127  C        -97.2620   -6.8910  -20.5450 C.2   109  PHE109      0.2264
    128  O        -96.8200   -7.1360  -21.6750 O.2   109  PHE109     -0.2867
    129  CB       -99.5410   -5.9980  -21.1060 C.3   109  PHE109      0.0534
    130  CG      -100.6420   -5.0290  -20.7780 C.ar  109  PHE109     -0.0203
    131  CD1     -100.6940   -3.7870  -21.3880 C.ar  109  PHE109     -0.0042
    132  CD2     -101.6290   -5.3660  -19.8720 C.ar  109  PHE109     -0.0042
    133  CE1     -101.7060   -2.8890  -21.0890 C.ar  109  PHE109     -0.0003
    134  CE2     -102.6460   -4.4780  -19.5710 C.ar  109  PHE109     -0.0003
    135  CZ      -102.6840   -3.2370  -20.1800 C.ar  109  PHE109     -0.0000
    136  N       -100.5390   19.6320  -11.7570 N.3   135  LEU135     -0.1245
    137  CA      -101.4170   18.5560  -11.3310 C.3   135  LEU135      0.1561
    138  C       -100.8470   17.1750  -11.6170 C.2   135  LEU135      0.2260
    139  O       -101.6100   16.2000  -11.6130 O.2   135  LEU135     -0.2867
    140  CB      -102.7750   18.7000  -12.0170 C.3   135  LEU135      0.0270
    141  CG      -103.6880   19.7620  -11.4270 C.3   135  LEU135      0.0019
    142  CD1     -104.7120   20.1180  -12.4600 C.3   135  LEU135      0.0001
    143  CD2     -104.3540   19.1970  -10.1860 C.3   135  LEU135      0.0001
    144  N       -102.0540   14.2690   -8.9160 N.3   138  THR138     -0.1203
    145  CA      -103.3130   13.5370   -8.9660 C.3   138  THR138      0.1994
    146  C       -103.4300   12.7370  -10.2500 C.2   138  THR138      0.2617
    147  O       -103.9100   11.5970  -10.2280 O.2   138  THR138     -0.2717
    148  CB      -104.5270   14.4740   -8.8030 C.3   138  THR138      0.1784
    149  OG1     -104.4500   15.5930   -9.7050 O.3   138  THR138     -0.2211
    150  CG2     -104.6550   14.9470   -7.3510 C.3   138  THR138      0.0376
    151  N       -102.9970   13.3030  -11.3790 N.am  139  ILE139     -0.1979
    152  CA      -103.0450   12.5510  -12.6290 C.3   139  ILE139      0.1595
    153  C       -102.3510   11.1980  -12.4680 C.2   139  ILE139      0.2287
    154  O       -102.9120   10.1480  -12.7910 O.2   139  ILE139     -0.2864
    155  CB      -102.4500   13.3820  -13.7750 C.3   139  ILE139      0.0276
    156  CG1     -103.2530   14.6720  -13.9340 C.3   139  ILE139      0.0022
    157  CG2     -102.4500   12.5890  -15.0720 C.3   139  ILE139      0.0022
    158  CD1     -102.9610   15.4160  -15.2070 C.3   139  ILE139      0.0001
    159  N       -104.2950    8.9840  -10.6940 N.3   142  GLY142     -0.1210
    160  CA      -105.5100    8.6940  -11.4240 C.3   142  GLY142      0.1956
    161  C       -105.3070    7.6020  -12.4530 C.2   142  GLY142      0.2612
    162  O       -106.0350    6.6090  -12.4730 O.2   142  GLY142     -0.2717
    163  N       -104.3110    7.7820  -13.3180 N.am  143  SER143     -0.1952
    164  CA      -104.0260    6.7740  -14.3220 C.3   143  SER143      0.1924
    165  C       -103.5710    5.4680  -13.6920 C.2   143  SER143      0.2314
    166  O       -103.7280    4.4060  -14.3020 O.2   143  SER143     -0.2863
    167  CB      -102.9740    7.2990  -15.2810 C.3   143  SER143      0.2116
    168  OG      -102.0030    8.0140  -14.5560 O.3   143  SER143     -0.2180
    169  N       -107.0540    3.9210  -12.1410 N.3   146  GLY146     -0.1210
    170  CA      -108.0180    3.5190  -13.1530 C.3   146  GLY146      0.1956
    171  C       -107.5940    2.3050  -13.9530 C.2   146  GLY146      0.2611
    172  O       -108.4410    1.5050  -14.3700 O.2   146  GLY146     -0.2717
    173  N       -106.2870    2.1550  -14.1850 N.am  147  GLN147     -0.1979
    174  CA      -105.7500    1.0270  -14.9310 C.3   147  GLN147      0.1601
    175  C       -105.6820   -0.2520  -14.0880 C.2   147  GLN147      0.2287
    176  O       -105.7160   -1.3610  -14.6430 O.2   147  GLN147     -0.2864
    177  CB      -104.3780    1.4230  -15.4900 C.3   147  GLN147      0.0394
    178  CG      -103.7190    0.4160  -16.4250 C.3   147  GLN147      0.0908
    179  CD      -103.3030    1.0480  -17.7550 C.2   147  GLN147      0.2608
    180  OE1     -102.7310    2.1580  -17.7800 O.2   147  GLN147     -0.2717
    181  NE2     -103.5990    0.3470  -18.8770 N.am  147  GLN147     -0.0878
    182  N       -108.9510   -1.3380  -14.5380 N.3   150  SER150     -0.1217
    183  CA      -108.9530   -1.8780  -15.8860 C.3   150  SER150      0.1889
    184  C       -108.3830   -3.2870  -15.9110 C.2   150  SER150      0.2288
    185  O       -109.0560   -4.2290  -16.3410 O.2   150  SER150     -0.2866
    186  CB      -108.1620   -0.9620  -16.8150 C.3   150  SER150      0.2089
    187  OG      -109.0220   -0.3810  -17.7740 O.3   150  SER150     -0.2183
@<TRIPOS>BOND
     1    10    11    1
     2    11    14    1
     3    11    12    1
     4    68    67    2
     5    14    15    1
     6    67    66    1
     7    12    13    2
     8    17    15   ar
     9    17    19   ar
    10    15    16   ar
    11    65    66    1
    12    19    20   ar
    13    66    69    1
    14    72    71    1
    15    72    73    1
    16    72    75    1
    17    76    75    1
    18    76    77    1
    19    16    18   ar
    20    69    70    1
    21    73    74    2
    22    20    18   ar
    23    20    21    1
    24    79    77   am
    25    80    81    1
    26    81    82    1
    27    81    84    1
    28    82    83    2
    29    77    78    2
    30    87    88    1
    31    89    88    1
    32    89    90    2
    33    60    61    2
    34    60    59    1
    35   110   109    2
    36    88    91    1
    37    85    84    1
    38    84    86    1
    39    22    23    1
    40    63    62    1
    41   109   108    1
    42    59    58    1
    43    59    62    1
    44   121   120    2
    45   107   108    1
    46   128   127    2
    47    91    92    1
    48    23    26    1
    49    23    24    1
    50   131   133   ar
    51   131   130   ar
    52    62    64    1
    53   108   111    1
    54   118   119    1
    55   129   130    1
    56   129   126    1
    57   133   135   ar
    58    93    94    1
    59    26    27    1
    60   120   119    1
    61   130   132   ar
    62   125   126    1
    63    24    25    2
    64   127   126    1
    65     1     2    1
    66   135   134   ar
    67   119   122    1
    68    96    95    2
    69     8     7    2
    70   132   134   ar
    71   111   112    1
    72     7     9   am
    73     7     6    1
    74     5     6    1
    75     5     2    1
    76    29    28    1
    77    29    30    1
    78    27    28    1
    79    94    95    1
    80    94    97    1
    81   122   124    1
    82   122   123    1
    83     4     3    2
    84   112   114   ar
    85   112   113   ar
    86   114   116   ar
    87     3     2    1
    88    95   100   am
    89   113   115   ar
    90    97    99    1
    91    97    98    1
    92   116   117   ar
    93   181   179   am
    94   115   117   ar
    95   102   103    2
    96   102   101    1
    97   100   101    1
    98   100   106    1
    99    55    56    1
   100    55    52    1
   101   180   179    2
   102   187   186    1
   103   179   178    1
   104   101   104    1
   105    37    36    1
   106    56    57    1
   107    31    32    1
   108    36    38    1
   109    36    35    1
   110   186   183    1
   111   106   105    1
   112    52    53    1
   113    52    51    1
   114   178   177    1
   115    53    54    2
   116   185   184    2
   117   104   105    1
   118   184   183    1
   119   183   182    1
   120    57    51    1
   121    32    35    1
   122    32    33    1
   123   177   174    1
   124    51    49   am
   125   167   168    1
   126   167   164    1
   127   158   156    1
   128   157   155    1
   129   174   173    1
   130   174   175    1
   131    34    33    2
   132   176   175    2
   133   172   171    2
   134   164   165    1
   135   164   163    1
   136   166   165    2
   137    49    50    2
   138    49    48    1
   139   173   171   am
   140   171   170    1
   141   156   155    1
   142   155   152    1
   143   163   161   am
   144   170   169    1
   145    48    47    1
   146   154   153    2
   147   152   153    1
   148   152   151    1
   149   162   161    2
   150   142   141    1
   151   161   160    1
   152   140   141    1
   153   140   137    1
   154   136   137    1
   155   138   139    2
   156   138   137    1
   157   141   143    1
   158   160   159    1
   159   151   146   am
   160    39    40    1
   161    43    40    1
   162    43    44    1
   163   146   147    2
   164   146   145    1
   165    40    41    1
   166    45    44    2
   167   149   148    1
   168    41    42    2
   169    44    46   am
   170   145   144    1
   171   145   148    1
   172   148   150    1
