@<TRIPOS>MOLECULE
tmp/5ys3A00.pdb
 76 73 0 0 0
SMALL
GASTEIGER

@<TRIPOS>ATOM
      1  N         10.9410  -16.1070   50.1500 N.3   118  ARG118     -0.1231
      2  CA        10.2150  -16.8900   49.1480 C.3   118  ARG118      0.1694
      3  C         10.3640  -16.2930   47.7600 C.2   118  ARG118      0.2591
      4  O         10.4820  -17.0130   46.7700 O.2   118  ARG118     -0.2718
      5  CB         8.7230  -16.9760   49.4930 C.3   118  ARG118      0.0321
      6  CG         8.4180  -17.7410   50.7430 C.3   118  ARG118      0.0489
      7  CD         8.9030  -19.1660   50.6370 C.3   118  ARG118      0.2205
      8  NE         8.3770  -19.9740   51.7330 N.pl3 118  ARG118     -0.0865
      9  CZ         8.7250  -21.2340   51.9790 C.cat 118  ARG118      0.5346
     10  NH1        9.6170  -21.8520   51.2070 N.pl3 118  ARG118      0.1354
     11  NH2        8.1740  -21.8750   53.0020 N.pl3 118  ARG118      0.1354
     12  N         10.3160  -14.9670   47.6940 N.am  119  ALA119     -0.1980
     13  CA        10.4250  -14.2920   46.4180 C.3   119  ALA119      0.1597
     14  C         11.7650  -14.6060   45.7470 C.2   119  ALA119      0.2287
     15  O         11.8270  -14.7470   44.5310 O.2   119  ALA119     -0.2864
     16  CB        10.2400  -12.7930   46.5960 C.3   119  ALA119      0.0319
     17  N         11.5800  -18.0720   44.2640 N.3   122  PHE122     -0.1241
     18  CA        10.8480  -18.0130   42.9960 C.3   122  PHE122      0.1605
     19  C         11.7430  -17.5170   41.8660 C.2   122  PHE122      0.2264
     20  O         11.6970  -18.0390   40.7450 O.2   122  PHE122     -0.2867
     21  CB         9.6090  -17.1160   43.0910 C.3   122  PHE122      0.0534
     22  CG         8.8110  -17.0630   41.8030 C.ar  122  PHE122     -0.0203
     23  CD1        9.0850  -16.1100   40.8320 C.ar  122  PHE122     -0.0042
     24  CD2        7.8250  -18.0060   41.5410 C.ar  122  PHE122     -0.0042
     25  CE1        8.3700  -16.0790   39.6340 C.ar  122  PHE122     -0.0003
     26  CE2        7.1080  -17.9820   40.3420 C.ar  122  PHE122     -0.0003
     27  CZ         7.3840  -17.0190   39.3950 C.ar  122  PHE122     -0.0000
     28  N          8.4500  -13.5640   33.4130 N.3   155  VAL155     -0.1245
     29  CA         7.9890  -13.7430   34.7820 C.3   155  VAL155      0.1561
     30  C          9.1580  -13.7260   35.7580 C.2   155  VAL155      0.2260
     31  O          9.0990  -13.1210   36.8190 O.2   155  VAL155     -0.2867
     32  CB         7.2140  -15.0570   34.9480 C.3   155  VAL155      0.0252
     33  CG1        6.7730  -15.2040   36.3910 C.3   155  VAL155      0.0019
     34  CG2        6.0180  -15.0640   34.0210 C.3   155  VAL155      0.0019
     35  N         10.5240  -10.1170   35.9960 N.3   158  ALA158     -0.1231
     36  CA         9.5800   -9.3200   36.7640 C.3   158  ALA158      0.1694
     37  C          9.6240   -9.6350   38.2610 C.2   158  ALA158      0.2592
     38  O          9.4330   -8.7430   39.0950 O.2   158  ALA158     -0.2718
     39  CB         8.1700   -9.5280   36.2340 C.3   158  ALA158      0.0304
     40  N          9.8350  -10.9000   38.6070 N.am  159  SER159     -0.1952
     41  CA         9.8590  -11.2720   40.0170 C.3   159  SER159      0.1924
     42  C         11.1180  -10.7310   40.6940 C.2   159  SER159      0.2314
     43  O         11.1000  -10.4250   41.8870 O.2   159  SER159     -0.2863
     44  CB         9.7720  -12.7910   40.1800 C.3   159  SER159      0.2116
     45  OG        10.9090  -13.4270   39.6380 O.3   159  SER159     -0.2180
     46  N         10.3950   -7.0790   41.3580 N.3   162  TYR162     -0.1241
     47  CA         9.5320   -7.0600   42.5300 C.3   162  TYR162      0.1605
     48  C         10.3500   -7.2670   43.8130 C.2   162  TYR162      0.2264
     49  O         10.2250   -6.4980   44.7650 O.2   162  TYR162     -0.2867
     50  CB         8.4350   -8.1340   42.4270 C.3   162  TYR162      0.0534
     51  CG         7.5790   -8.1690   43.6690 C.ar  162  TYR162     -0.0201
     52  CD1        6.6050   -7.1970   43.8870 C.ar  162  TYR162     -0.0009
     53  CD2        7.7740   -9.1410   44.6380 C.ar  162  TYR162     -0.0009
     54  CE1        5.8300   -7.2140   45.0390 C.ar  162  TYR162      0.0417
     55  CE2        7.0200   -9.1650   45.7760 C.ar  162  TYR162      0.0417
     56  CZ         6.0480   -8.1980   45.9730 C.ar  162  TYR162      0.1957
     57  OH         5.3070   -8.2190   47.1100 O.3   162  TYR162     -0.2866
     58  N          5.3470   -7.6130   50.5160 N.3   179  PRO179     -0.2102
     59  CA         5.7250   -8.9030   51.1070 C.3   179  PRO179      0.1504
     60  C          6.6060   -9.6860   50.1540 C.2   179  PRO179      0.2576
     61  O          6.2570   -9.8460   48.9860 O.2   179  PRO179     -0.2718
     62  CB         4.3780   -9.6050   51.3360 C.3   179  PRO179      0.0282
     63  CG         3.4280   -8.9260   50.4060 C.3   179  PRO179      0.0208
     64  CD         3.8920   -7.4970   50.3160 C.3   179  PRO179      0.0893
     65  N          7.7530  -10.1460   50.6360 N.am  180  ILE180     -0.1966
     66  CA         8.6610  -10.9070   49.7840 C.3   180  ILE180      0.1727
     67  C          8.8990  -12.3010   50.3650 C.2   180  ILE180      0.2616
     68  O          9.6780  -13.0890   49.8320 O.2   180  ILE180     -0.2715
     69  CB        10.0150  -10.1710   49.5890 C.3   180  ILE180      0.0290
     70  CG1       10.6880   -9.8940   50.9320 C.3   180  ILE180      0.0022
     71  CG2        9.8020   -8.8820   48.8410 C.3   180  ILE180      0.0023
     72  CD1       12.0250   -9.1390   50.7990 C.3   180  ILE180      0.0001
     73  N          8.2070  -12.6050   51.4550 N.am  181  GLY181     -0.1955
     74  CA         8.2210  -13.9520   51.9920 C.3   181  GLY181      0.1869
     75  C          9.4700  -14.2410   52.7850 C.2   181  GLY181      0.2309
     76  O          9.9810  -15.3630   52.7600 O.2   181  GLY181     -0.2863
@<TRIPOS>BOND
     1    28    29    1
     2    34    32    1
     3    29    32    1
     4    29    30    1
     5    32    33    1
     6    30    31    2
     7    35    36    1
     8    39    36    1
     9    36    37    1
    10    37    40   am
    11    37    38    2
    12    40    41    1
    13    27    25   ar
    14    27    26   ar
    15    25    23   ar
    16    45    44    1
    17    41    44    1
    18    41    42    1
    19    26    24   ar
    20    42    43    2
    21    20    19    2
    22    23    22   ar
    23    46    47    1
    24    24    22   ar
    25    22    21    1
    26    19    18    1
    27    50    47    1
    28    50    51    1
    29    47    48    1
    30    18    21    1
    31    18    17    1
    32    51    52   ar
    33    51    53   ar
    34    48    49    2
    35    52    54   ar
    36    15    14    2
    37    53    55   ar
    38    54    56   ar
    39    14    13    1
    40    55    56   ar
    41    56    57    1
    42    13    16    1
    43    13    12    1
    44     4     3    2
    45    12     3   am
    46     3     2    1
    47    71    69    1
    48    61    60    2
    49     2     5    1
    50     2     1    1
    51     5     6    1
    52    69    66    1
    53    69    70    1
    54    66    67    1
    55    66    65    1
    56    68    67    2
    57    60    65   am
    58    60    59    1
    59    64    63    1
    60    64    58    1
    61    67    73   am
    62    63    62    1
    63    58    59    1
    64     7     6    1
    65     7     8    1
    66    72    70    1
    67    59    62    1
    68    10     9    1
    69    73    74    1
    70     8     9    2
    71     9    11    1
    72    74    75    1
    73    76    75    2
