@<TRIPOS>MOLECULE
tmp/5ys3B02.pdb
 76 73 0 0 0
SMALL
GASTEIGER

@<TRIPOS>ATOM
      1  N         11.3710   16.5090   50.1460 N.3   118  ARG118     -0.1231
      2  CA        10.3350   16.8320   49.1720 C.3   118  ARG118      0.1694
      3  C         10.8800   17.1190   47.7730 C.2   118  ARG118      0.2591
      4  O         10.2440   16.7900   46.7850 O.2   118  ARG118     -0.2718
      5  CB         9.5220   18.0400   49.6400 C.3   118  ARG118      0.0321
      6  CG         8.6920   17.7850   50.8730 C.3   118  ARG118      0.0489
      7  CD         7.3130   17.3010   50.4990 C.3   118  ARG118      0.2205
      8  NE         6.5570   16.9150   51.6850 N.pl3 118  ARG118     -0.0865
      9  CZ         5.8960   17.7660   52.4640 C.cat 118  ARG118      0.5346
     10  NH1        5.8900   19.0610   52.1820 N.pl3 118  ARG118      0.1354
     11  NH2        5.2390   17.3170   53.5260 N.pl3 118  ARG118      0.1354
     12  N         12.0330   17.7730   47.6860 N.am  119  ALA119     -0.1980
     13  CA        12.6120   18.0720   46.3810 C.3   119  ALA119      0.1597
     14  C         13.0010   16.7800   45.6550 C.2   119  ALA119      0.2287
     15  O         12.9200   16.7060   44.4360 O.2   119  ALA119     -0.2864
     16  CB        13.8220   18.9900   46.5280 C.3   119  ALA119      0.0319
     17  N          9.9440   15.2590   44.1150 N.3   122  PHE122     -0.1241
     18  CA         9.6260   15.9260   42.8480 C.3   122  PHE122      0.1605
     19  C         10.5080   15.3920   41.7250 C.2   122  PHE122      0.2264
     20  O         10.0400   15.1830   40.6040 O.2   122  PHE122     -0.2867
     21  CB         9.7830   17.4510   42.9620 C.3   122  PHE122      0.0534
     22  CG         9.4040   18.1980   41.7010 C.ar  122  PHE122     -0.0203
     23  CD1       10.3350   18.4090   40.6940 C.ar  122  PHE122     -0.0042
     24  CD2        8.1160   18.6770   41.5230 C.ar  122  PHE122     -0.0042
     25  CE1        9.9940   19.0820   39.5370 C.ar  122  PHE122     -0.0003
     26  CE2        7.7650   19.3610   40.3650 C.ar  122  PHE122     -0.0003
     27  CZ         8.7030   19.5660   39.3750 C.ar  122  PHE122     -0.0000
     28  N         12.2880   20.3010   33.1710 N.3   155  VAL155     -0.1245
     29  CA        11.8870   20.6310   34.5400 C.3   155  VAL155      0.1561
     30  C         12.4570   19.6080   35.5220 C.2   155  VAL155      0.2260
     31  O         12.9360   19.9590   36.5970 O.2   155  VAL155     -0.2867
     32  CB        10.3470   20.6920   34.6830 C.3   155  VAL155      0.0252
     33  CG1        9.9400   20.7160   36.1490 C.3   155  VAL155      0.0019
     34  CG2        9.8070   21.9290   33.9790 C.3   155  VAL155      0.0019
     35  N         16.2910   20.1750   35.8010 N.3   158  ALA158     -0.1231
     36  CA        16.5420   21.3840   36.5730 C.3   158  ALA158      0.1694
     37  C         16.3060   21.1390   38.0550 C.2   158  ALA158      0.2592
     38  O         17.0460   21.6320   38.9050 O.2   158  ALA158     -0.2718
     39  CB        15.6540   22.5260   36.0760 C.3   158  ALA158      0.0304
     40  N         15.2670   20.3800   38.3750 N.am  159  SER159     -0.1952
     41  CA        14.9360   20.1380   39.7760 C.3   159  SER159      0.1924
     42  C         16.0370   19.3180   40.4580 C.2   159  SER159      0.2314
     43  O         16.2870   19.4520   41.6570 O.2   159  SER159     -0.2863
     44  CB        13.5740   19.4360   39.9000 C.3   159  SER159      0.2116
     45  OG        13.6290   18.0680   39.5230 O.3   159  SER159     -0.2180
     46  N         18.8900   21.7020   41.1750 N.3   162  TYR162     -0.1241
     47  CA        18.4630   22.4790   42.3320 C.3   162  TYR162      0.1605
     48  C         18.6950   21.7200   43.6380 C.2   162  TYR162      0.2264
     49  O         19.2630   22.2600   44.5800 O.2   162  TYR162     -0.2867
     50  CB        16.9780   22.8590   42.2060 C.3   162  TYR162      0.0534
     51  CG        16.4710   23.5860   43.4280 C.ar  162  TYR162     -0.0201
     52  CD1       16.7180   24.9430   43.6040 C.ar  162  TYR162     -0.0009
     53  CD2       15.7820   22.9120   44.4130 C.ar  162  TYR162     -0.0009
     54  CE1       16.2760   25.6090   44.7360 C.ar  162  TYR162      0.0417
     55  CE2       15.3310   23.5620   45.5440 C.ar  162  TYR162      0.0417
     56  CZ        15.5740   24.9100   45.6970 C.ar  162  TYR162      0.1957
     57  OH        15.1300   25.5500   46.8290 O.3   162  TYR162     -0.2866
     58  N         15.7610   25.8300   50.2520 N.3   179  PRO179     -0.2102
     59  CA        14.8780   24.8370   50.8730 C.3   179  PRO179      0.1504
     60  C         14.6530   23.6630   49.9280 C.2   179  PRO179      0.2576
     61  O         14.3730   23.8670   48.7550 O.2   179  PRO179     -0.2718
     62  CB        13.5860   25.6160   51.1290 C.3   179  PRO179      0.0282
     63  CG        13.6060   26.7360   50.1440 C.3   179  PRO179      0.0208
     64  CD        15.0570   27.0760   49.8930 C.3   179  PRO179      0.0893
     65  N         14.8120   22.4490   50.4330 N.am  180  ILE180     -0.1966
     66  CA        14.6100   21.2750   49.6040 C.3   180  ILE180      0.1727
     67  C         13.6150   20.3410   50.2750 C.2   180  ILE180      0.2616
     68  O         13.4370   19.1970   49.8530 O.2   180  ILE180     -0.2715
     69  CB        15.9400   20.5360   49.3400 C.3   180  ILE180      0.0290
     70  CG1       16.6770   20.2930   50.6580 C.3   180  ILE180      0.0022
     71  CG2       16.8100   21.3410   48.3900 C.3   180  ILE180      0.0023
     72  CD1       18.0180   19.5630   50.5010 C.3   180  ILE180      0.0001
     73  N         12.9670   20.8370   51.3240 N.am  181  GLY181     -0.1955
     74  CA        11.9690   20.0620   52.0400 C.3   181  GLY181      0.1869
     75  C         12.5430   18.9160   52.8490 C.2   181  GLY181      0.2309
     76  O         11.9680   17.8280   52.8930 O.2   181  GLY181     -0.2863
@<TRIPOS>BOND
     1    28    29    1
     2    34    32    1
     3    29    32    1
     4    29    30    1
     5    32    33    1
     6    30    31    2
     7    35    36    1
     8    39    36    1
     9    36    37    1
    10    37    40   am
    11    37    38    2
    12    40    41    1
    13    27    25   ar
    14    27    26   ar
    15    45    44    1
    16    25    23   ar
    17    41    44    1
    18    41    42    1
    19    26    24   ar
    20    42    43    2
    21    20    19    2
    22    23    22   ar
    23    46    47    1
    24    24    22   ar
    25    22    21    1
    26    19    18    1
    27    50    47    1
    28    50    51    1
    29    47    48    1
    30    18    21    1
    31    18    17    1
    32    51    52   ar
    33    51    53   ar
    34    52    54   ar
    35    48    49    2
    36    53    55   ar
    37    15    14    2
    38    54    56   ar
    39    55    56   ar
    40    14    13    1
    41    56    57    1
    42    13    16    1
    43    13    12    1
    44     4     3    2
    45    12     3   am
    46     3     2    1
    47    71    69    1
    48    61    60    2
    49     2     5    1
    50     2     1    1
    51    69    66    1
    52    69    70    1
    53    66    67    1
    54    66    65    1
    55     5     6    1
    56    68    67    2
    57    64    63    1
    58    64    58    1
    59    60    65   am
    60    60    59    1
    61    63    62    1
    62    58    59    1
    63    67    73   am
    64     7     6    1
    65     7     8    1
    66    72    70    1
    67    59    62    1
    68    73    74    1
    69     8     9    2
    70    74    75    1
    71    10     9    1
    72     9    11    1
    73    75    76    2
