@<TRIPOS>MOLECULE
tmp/5ys3A02.pdb
 64 58 0 0 0
SMALL
GASTEIGER

@<TRIPOS>ATOM
      1  N         23.0080  -24.5070   29.3250 N.3   100  GLY100     -0.1225
      2  CA        22.7600  -25.6290   30.2120 C.3   100  GLY100      0.1811
      3  C         23.6330  -25.5630   31.4490 C.2   100  GLY100      0.2280
      4  O         23.1620  -25.8220   32.5610 O.2   100  GLY100     -0.2866
      5  N         22.3270  -23.1650   33.6280 N.3   103  GLY103     -0.1210
      6  CA        21.1640  -23.7820   34.2520 C.3   103  GLY103      0.1956
      7  C         21.5080  -24.6610   35.4490 C.2   103  GLY103      0.2611
      8  O         20.8280  -24.6180   36.4820 O.2   103  GLY103     -0.2717
      9  N         22.5630  -25.4590   35.3050 N.am  104  VAL104     -0.1979
     10  CA        23.0350  -26.3240   36.3840 C.3   104  VAL104      0.1595
     11  C         23.5030  -25.5020   37.5740 C.2   104  VAL104      0.2287
     12  O         23.1160  -25.7740   38.7040 O.2   104  VAL104     -0.2864
     13  CB        24.1720  -27.2350   35.9020 C.3   104  VAL104      0.0276
     14  CG1       24.8370  -27.9430   37.0810 C.3   104  VAL104      0.0022
     15  CG2       23.6210  -28.2700   34.9040 C.3   104  VAL104      0.0022
     16  N         20.3790  -24.1900   39.2670 N.3   107  LEU107     -0.1245
     17  CA        19.7040  -25.2410   40.0280 C.3   107  LEU107      0.1561
     18  C         20.3730  -25.4480   41.3860 C.2   107  LEU107      0.2260
     19  O         19.6930  -25.5030   42.4100 O.2   107  LEU107     -0.2867
     20  CB        19.6920  -26.5570   39.2430 C.3   107  LEU107      0.0270
     21  CG        19.1420  -27.7920   39.9760 C.3   107  LEU107      0.0019
     22  CD1       17.7040  -27.5830   40.4010 C.3   107  LEU107      0.0001
     23  CD2       19.2420  -28.9640   39.0400 C.3   107  LEU107      0.0001
     24  N         16.0440  -21.2460   36.7560 N.3   128  THR128     -0.1218
     25  CA        16.4820  -22.5990   36.4160 C.3   128  THR128      0.1862
     26  C         15.6830  -23.1120   35.2350 C.2   128  THR128      0.2287
     27  O         16.2320  -23.5920   34.2550 O.2   128  THR128     -0.2866
     28  CB        16.2960  -23.5810   37.5950 C.3   128  THR128      0.1770
     29  OG1       17.0150  -23.1070   38.7410 O.3   128  THR128     -0.2211
     30  CG2       16.7810  -24.9880   37.2010 C.3   128  THR128      0.0375
     31  N         17.0820  -24.0210   31.4280 N.3   132  ALA132     -0.1245
     32  CA        16.8390  -25.3850   30.9230 C.3   132  ALA132      0.1562
     33  C         16.0960  -25.3680   29.5920 C.2   132  ALA132      0.2260
     34  O         16.4540  -26.0800   28.6470 O.2   132  ALA132     -0.2867
     35  CB        16.0440  -26.1950   31.9500 C.3   132  ALA132      0.0290
     36  N         18.2010  -23.8750   26.9320 N.3   135  ALA135     -0.1231
     37  CA        19.2200  -24.8440   26.5570 C.3   135  ALA135      0.1694
     38  C         18.6170  -25.8730   25.6000 C.2   135  ALA135      0.2592
     39  O         19.1600  -26.1250   24.5290 O.2   135  ALA135     -0.2718
     40  CB        19.8080  -25.5250   27.7800 C.3   135  ALA135      0.0304
     41  N         17.4800  -26.4390   25.9860 N.am  136  PHE136     -0.1976
     42  CA        16.8350  -27.4570   25.1630 C.3   136  PHE136      0.1639
     43  C         16.4630  -26.9070   23.7940 C.2   136  PHE136      0.2290
     44  O         16.7780  -27.5130   22.7670 O.2   136  PHE136     -0.2864
     45  CB        15.5830  -28.0130   25.8420 C.3   136  PHE136      0.0560
     46  CG        14.8870  -29.0700   25.0150 C.ar  136  PHE136     -0.0200
     47  CD1       15.3260  -30.3790   25.0420 C.ar  136  PHE136     -0.0042
     48  CD2       13.8430  -28.7370   24.1700 C.ar  136  PHE136     -0.0042
     49  CE1       14.7080  -31.3510   24.2640 C.ar  136  PHE136     -0.0003
     50  CE2       13.2270  -29.7010   23.3900 C.ar  136  PHE136     -0.0003
     51  CZ        13.6610  -31.0080   23.4410 C.ar  136  PHE136     -0.0000
     52  N         19.4550  -26.5650   21.6280 N.3   139  ILE139     -0.1231
     53  CA        20.0950  -27.8280   21.3040 C.3   139  ILE139      0.1692
     54  C         19.2280  -28.5800   20.2950 C.2   139  ILE139      0.2591
     55  O         19.7350  -29.1310   19.3200 O.2   139  ILE139     -0.2718
     56  CB        20.3350  -28.6790   22.5580 C.3   139  ILE139      0.0266
     57  CG1       21.5130  -28.1000   23.3490 C.3   139  ILE139      0.0019
     58  CG2       20.6160  -30.1340   22.1750 C.3   139  ILE139      0.0020
     59  CD1       21.5690  -28.5530   24.7940 C.3   139  ILE139      0.0001
     60  N         17.9180  -28.5470   20.5120 N.am  140  ALA140     -0.1980
     61  CA        16.9780  -29.3120   19.6970 C.3   140  ALA140      0.1597
     62  C         16.4050  -28.4850   18.5430 C.2   140  ALA140      0.2287
     63  O         15.6660  -29.0040   17.7080 O.2   140  ALA140     -0.2864
     64  CB        15.8500  -29.8520   20.5750 C.3   140  ALA140      0.0319
@<TRIPOS>BOND
     1    63    62    2
     2    62    61    1
     3    55    54    2
     4    61    60    1
     5    61    64    1
     6    54    60   am
     7    54    53    1
     8    53    52    1
     9    53    56    1
    10    58    56    1
    11    56    57    1
    12    44    43    2
    13    57    59    1
    14    50    51   ar
    15    50    48   ar
    16    51    49   ar
    17    43    42    1
    18    48    46   ar
    19    49    47   ar
    20    39    38    2
    21    46    47   ar
    22    46    45    1
    23    42    45    1
    24    42    41    1
    25    38    41   am
    26    38    37    1
    27    37    36    1
    28    37    40    1
    29    34    33    2
    30     1     2    1
    31    33    32    1
    32     2     3    1
    33    32    31    1
    34    32    35    1
    35     3     4    2
    36     5     6    1
    37     6     7    1
    38    27    26    2
    39    15    13    1
    40    26    25    1
    41     9     7   am
    42     9    10    1
    43     7     8    2
    44    13    10    1
    45    13    14    1
    46    10    11    1
    47    25    24    1
    48    25    28    1
    49    30    28    1
    50    11    12    2
    51    28    29    1
    52    23    21    1
    53    20    21    1
    54    20    17    1
    55    16    17    1
    56    21    22    1
    57    17    18    1
    58    18    19    2
