@<TRIPOS>MOLECULE
tmp/5ys3C01.pdb
 64 58 0 0 0
SMALL
GASTEIGER

@<TRIPOS>ATOM
      1  N         26.7740   26.6370   29.0960 N.3   100  GLY100     -0.1225
      2  CA        25.9090   27.3860   30.0000 C.3   100  GLY100      0.1811
      3  C         25.5090   26.6030   31.2380 C.2   100  GLY100      0.2280
      4  O         25.5450   27.1330   32.3480 O.2   100  GLY100     -0.2866
      5  N         28.2760   26.5170   33.4850 N.3   103  GLY103     -0.1210
      6  CA        28.3690   27.8280   34.1130 C.3   103  GLY103      0.1956
      7  C         27.4180   27.9840   35.2820 C.2   103  GLY103      0.2611
      8  O         27.7840   28.5460   36.3090 O.2   103  GLY103     -0.2717
      9  N         26.2000   27.4640   35.1360 N.am  104  VAL104     -0.1979
     10  CA        25.2160   27.5150   36.2110 C.3   104  VAL104      0.1595
     11  C         25.6610   26.6940   37.4180 C.2   104  VAL104      0.2287
     12  O         25.5900   27.1500   38.5600 O.2   104  VAL104     -0.2864
     13  CB        23.8430   27.0020   35.7240 C.3   104  VAL104      0.0276
     14  CG1       22.8740   26.8640   36.8980 C.3   104  VAL104      0.0022
     15  CG2       23.2850   27.9360   34.6460 C.3   104  VAL104      0.0022
     16  N         28.3440   28.6630   39.0820 N.3   107  LEU107     -0.1245
     17  CA        27.8220   29.8150   39.8100 C.3   107  LEU107      0.1561
     18  C         27.2870   29.4130   41.1830 C.2   107  LEU107      0.2260
     19  O         27.5800   30.0740   42.1860 O.2   107  LEU107     -0.2867
     20  CB        26.7350   30.5160   38.9920 C.3   107  LEU107      0.0270
     21  CG        25.9570   31.5870   39.7760 C.3   107  LEU107      0.0019
     22  CD1       26.8910   32.7120   40.2270 C.3   107  LEU107      0.0001
     23  CD2       24.8210   32.1350   38.9400 C.3   107  LEU107      0.0001
     24  N         33.1850   30.8490   36.5400 N.3   128  THR128     -0.1218
     25  CA        31.8180   31.1980   36.1720 C.3   128  THR128      0.1862
     26  C         31.8020   32.1380   34.9740 C.2   128  THR128      0.2287
     27  O         31.0370   31.9500   34.0290 O.2   128  THR128     -0.2866
     28  CB        31.0560   31.8770   37.3230 C.3   128  THR128      0.1770
     29  OG1       31.1140   31.0590   38.5030 O.3   128  THR128     -0.2211
     30  CG2       29.5950   32.1000   36.9350 C.3   128  THR128      0.0375
     31  N         30.3280   31.4550   31.1610 N.3   132  ALA132     -0.1245
     32  CA        29.2890   32.3590   30.6790 C.3   132  ALA132      0.1562
     33  C         29.6970   32.9820   29.3560 C.2   132  ALA132      0.2260
     34  O         28.8900   33.0840   28.4360 O.2   132  ALA132     -0.2867
     35  CB        29.0060   33.4310   31.7020 C.3   132  ALA132      0.0290
     36  N         29.6740   30.3100   26.7330 N.3   135  ALA135     -0.1231
     37  CA        28.2890   29.9870   26.3740 C.3   135  ALA135      0.1694
     38  C         27.7350   31.0560   25.4380 C.2   135  ALA135      0.2592
     39  O         27.1670   30.7420   24.3870 O.2   135  ALA135     -0.2718
     40  CB        27.4130   29.8610   27.6090 C.3   135  ALA135      0.0304
     41  N         27.9190   32.3220   25.8100 N.am  136  PHE136     -0.1976
     42  CA        27.4250   33.4210   24.9690 C.3   136  PHE136      0.1639
     43  C         28.0370   33.3780   23.5810 C.2   136  PHE136      0.2290
     44  O         27.3230   33.4550   22.5810 O.2   136  PHE136     -0.2864
     45  CB        27.7120   34.7840   25.5910 C.3   136  PHE136      0.0560
     46  CG        27.1470   35.9410   24.7800 C.ar  136  PHE136     -0.0200
     47  CD1       27.8870   36.5170   23.7670 C.ar  136  PHE136     -0.0042
     48  CD2       25.8590   36.3920   25.0020 C.ar  136  PHE136     -0.0042
     49  CE1       27.3610   37.5590   23.0060 C.ar  136  PHE136     -0.0003
     50  CE2       25.3220   37.4300   24.2430 C.ar  136  PHE136     -0.0003
     51  CZ        26.0780   38.0120   23.2540 C.ar  136  PHE136     -0.0000
     52  N         26.5430   30.5870   21.4970 N.3   139  ILE139     -0.1231
     53  CA        25.1310   30.7250   21.1660 C.3   139  ILE139      0.1692
     54  C         24.9110   31.8700   20.1780 C.2   139  ILE139      0.2591
     55  O         24.1440   31.7380   19.2240 O.2   139  ILE139     -0.2718
     56  CB        24.2880   30.9370   22.4340 C.3   139  ILE139      0.0266
     57  CG1       24.1690   29.6130   23.1920 C.3   139  ILE139      0.0019
     58  CG2       22.8990   31.4340   22.0870 C.3   139  ILE139      0.0020
     59  CD1       23.7910   29.7630   24.6600 C.3   139  ILE139      0.0001
     60  N         25.6180   32.9760   20.3900 N.am  140  ALA140     -0.1980
     61  CA        25.5020   34.1690   19.5370 C.3   140  ALA140      0.1597
     62  C         26.3520   34.0990   18.2860 C.2   140  ALA140      0.2287
     63  O         26.1810   34.9060   17.3800 O.2   140  ALA140     -0.2864
     64  CB        25.8820   35.4250   20.3350 C.3   140  ALA140      0.0319
@<TRIPOS>BOND
     1    63    62    2
     2    62    61    1
     3    55    54    2
     4    61    64    1
     5    61    60    1
     6    54    60   am
     7    54    53    1
     8    53    52    1
     9    53    56    1
    10    58    56    1
    11    56    57    1
    12    44    43    2
    13    49    51   ar
    14    49    47   ar
    15    57    59    1
    16    51    50   ar
    17    43    42    1
    18    47    46   ar
    19    50    48   ar
    20    39    38    2
    21    46    48   ar
    22    46    45    1
    23    42    45    1
    24    42    41    1
    25    38    41   am
    26    38    37    1
    27    37    36    1
    28    37    40    1
    29    34    33    2
    30     1     2    1
    31    33    32    1
    32     2     3    1
    33    32    31    1
    34    32    35    1
    35     3     4    2
    36     5     6    1
    37    27    26    2
    38     6     7    1
    39    15    13    1
    40    26    25    1
    41     9     7   am
    42     9    10    1
    43     7     8    2
    44    13    10    1
    45    13    14    1
    46    25    24    1
    47    25    28    1
    48    10    11    1
    49    30    28    1
    50    28    29    1
    51    11    12    2
    52    23    21    1
    53    20    21    1
    54    20    17    1
    55    16    17    1
    56    21    22    1
    57    17    18    1
    58    18    19    2
