@<TRIPOS>MOLECULE
tmp/5ysdB02.pdb
 125 123 0 0 0
SMALL
GASTEIGER

@<TRIPOS>ATOM
      1  N         -0.6240  -54.5430   34.4020 N.3    38  TRP38      -0.1241
      2  CA        -1.5040  -54.0340   33.3890 C.3    38  TRP38       0.1605
      3  C         -0.7820  -53.3590   32.2440 C.2    38  TRP38       0.2264
      4  O         -1.2210  -53.5320   31.1290 O.2    38  TRP38      -0.2867
      5  CB        -2.5250  -53.0580   33.9890 C.3    38  TRP38       0.0550
      6  CG        -3.6810  -53.7490   34.7030 C.ar   38  TRP38       0.0003
      7  CD1       -3.9320  -53.7500   36.0710 C.ar   38  TRP38       0.0946
      8  CD2       -4.7110  -54.5460   34.1080 C.ar   38  TRP38       0.0152
      9  NE1       -5.0570  -54.4960   36.3290 N.ar   38  TRP38      -0.2442
     10  CE2       -5.5470  -55.0040   35.1510 C.ar   38  TRP38       0.0810
     11  CE3       -4.9840  -54.9620   32.7830 C.ar   38  TRP38       0.0012
     12  CZ2       -6.6600  -55.8070   34.9240 C.ar   38  TRP38       0.0191
     13  CZ3       -6.1140  -55.7690   32.5530 C.ar   38  TRP38       0.0001
     14  CH2       -6.9440  -56.1730   33.6400 C.ar   38  TRP38       0.0015
     15  N         -8.8460  -57.9930   30.8360 N.3    61  GLY61      -0.1210
     16  CA        -9.3740  -56.6230   30.8190 C.3    61  GLY61       0.1956
     17  C        -10.5480  -56.5090   29.8540 C.2    61  GLY61       0.2613
     18  O        -10.4310  -56.9460   28.6710 O.2    61  GLY61      -0.2717
     19  N        -11.6460  -55.9280   30.3390 N.am   62  THR62      -0.1938
     20  CA       -12.8570  -55.8440   29.5310 C.3    62  THR62       0.2028
     21  C        -12.6350  -55.1930   28.1440 C.2    62  THR62       0.2643
     22  O        -13.2400  -55.5840   27.1880 O.2    62  THR62      -0.2714
     23  CB       -13.9740  -55.0550   30.2530 C.3    62  THR62       0.1808
     24  OG1      -13.5190  -53.7530   30.6300 O.3    62  THR62      -0.2208
     25  CG2      -14.4790  -55.8250   31.5260 C.3    62  THR62       0.0379
     26  N        -11.7760  -54.1700   28.0600 N.am   63  THR63      -0.1936
     27  CA       -11.5600  -53.4660   26.7830 C.3    63  THR63       0.2028
     28  C        -10.8230  -54.2850   25.7230 C.2    63  THR63       0.2642
     29  O        -10.8430  -53.9410   24.5140 O.2    63  THR63      -0.2714
     30  CB       -10.7900  -52.1730   26.9890 C.3    63  THR63       0.1808
     31  OG1       -9.4670  -52.4440   27.4150 O.3    63  THR63      -0.2208
     32  CG2      -11.5550  -51.2250   28.0120 C.3    63  THR63       0.0379
     33  N        -10.1440  -55.3650   26.1750 N.am   64  TRP64      -0.1973
     34  CA        -9.4710  -56.3050   25.2790 C.3    64  TRP64       0.1640
     35  C        -10.2630  -57.5060   24.8660 C.2    64  TRP64       0.2290
     36  O         -9.8170  -58.2830   24.0390 O.2    64  TRP64      -0.2864
     37  CB        -8.1400  -56.7490   25.8980 C.3    64  TRP64       0.0576
     38  CG        -7.2330  -55.5830   26.2270 C.ar   64  TRP64       0.0006
     39  CD1       -7.2210  -54.3530   25.6190 C.ar   64  TRP64       0.0946
     40  CD2       -6.2390  -55.5360   27.2360 C.ar   64  TRP64       0.0152
     41  NE1       -6.2850  -53.5490   26.1860 N.ar   64  TRP64      -0.2442
     42  CE2       -5.6510  -54.2490   27.1730 C.ar   64  TRP64       0.0810
     43  CE3       -5.8120  -56.4360   28.2370 C.ar   64  TRP64       0.0012
     44  CZ2       -4.6330  -53.8460   28.0420 C.ar   64  TRP64       0.0191
     45  CZ3       -4.7780  -56.0460   29.0860 C.ar   64  TRP64       0.0001
     46  CH2       -4.2090  -54.7440   28.9910 C.ar   64  TRP64       0.0015
     47  N        -14.8310  -58.8890   38.1440 N.3   112  TYR112     -0.1298
     48  CA       -15.1500  -57.6540   38.8480 C.3   112  TYR112      0.1290
     49  C        -15.4140  -56.5440   37.8210 C.3   112  TYR112      0.2013
     50  O        -15.0360  -56.6530   36.5870 O.3   112  TYR112     -0.2188
     51  CB       -14.0660  -57.2430   39.8450 C.3   112  TYR112      0.0480
     52  CG       -12.7910  -56.7780   39.2240 C.ar  112  TYR112     -0.0204
     53  CD1      -12.6000  -55.4550   38.8670 C.ar  112  TYR112     -0.0009
     54  CD2      -11.7850  -57.6790   38.9200 C.ar  112  TYR112     -0.0009
     55  CE1      -11.4030  -55.0440   38.2770 C.ar  112  TYR112      0.0417
     56  CE2      -10.5980  -57.2560   38.3350 C.ar  112  TYR112      0.0417
     57  CZ       -10.4220  -55.9480   37.9770 C.ar  112  TYR112      0.1957
     58  OH        -9.2070  -55.5530   37.3780 O.3   112  TYR112     -0.2866
     59  N        -15.5860  -52.0650   37.2970 N.3   114  GLU114     -0.1245
     60  CA       -15.1700  -50.7860   37.8550 C.3   114  GLU114      0.1567
     61  C        -15.7260  -49.6400   37.0260 C.2   114  GLU114      0.2260
     62  O        -16.1140  -49.8280   35.8880 O.2   114  GLU114     -0.2867
     63  CB       -13.6060  -50.7180   38.0760 C.3   114  GLU114      0.0388
     64  CG       -12.7720  -50.9410   36.8310 C.3   114  GLU114      0.1160
     65  CD       -12.5820  -49.7010   35.9340 C.2   114  GLU114      0.3649
     66  OE1      -11.9990  -49.8330   34.8180 O.co2 114  GLU114     -0.2457
     67  OE2      -13.1070  -48.5870   36.3040 O.co2 114  GLU114     -0.2457
     68  N        -15.0380  -45.0530   36.8920 N.3   116  ARG116     -0.1245
     69  CA       -14.1610  -43.9500   37.3450 C.3   116  ARG116      0.1563
     70  C        -14.9700  -42.7940   37.9310 C.2   116  ARG116      0.2260
     71  O        -15.9810  -42.3790   37.3900 O.2   116  ARG116     -0.2867
     72  CB       -13.3600  -43.4450   36.1640 C.3   116  ARG116      0.0307
     73  CG       -12.6190  -44.5160   35.3690 C.3   116  ARG116      0.0489
     74  CD       -11.7740  -45.3950   36.2790 C.3   116  ARG116      0.2205
     75  NE       -11.2620  -46.5740   35.6280 N.pl3 116  ARG116     -0.0865
     76  CZ       -10.0930  -46.6940   34.9870 C.cat 116  ARG116      0.5346
     77  NH1       -9.2610  -45.6680   34.8400 N.pl3 116  ARG116      0.1354
     78  NH2       -9.7200  -47.8540   34.4830 N.pl3 116  ARG116      0.1354
     79  N         -6.1500  -44.9700   29.2400 N.3   164  GLN164     -0.1231
     80  CA        -6.8410  -45.1910   28.0020 C.3   164  GLN164      0.1698
     81  C         -8.2670  -44.5650   27.9780 C.2   164  GLN164      0.2592
     82  O         -8.7570  -44.1310   26.9270 O.2   164  GLN164     -0.2718
     83  CB        -6.8940  -46.7200   27.6780 C.3   164  GLN164      0.0381
     84  CG        -5.4940  -47.3440   27.4710 C.3   164  GLN164      0.0905
     85  CD        -4.9920  -48.1080   28.6830 C.2   164  GLN164      0.2608
     86  OE1       -5.2250  -47.6740   29.8310 O.2   164  GLN164     -0.2717
     87  NE2       -4.3300  -49.2510   28.4590 N.am  164  GLN164     -0.0878
     88  N         -8.9190  -44.5160   29.1250 N.am  165  THR165     -0.1953
     89  CA       -10.2940  -44.0480   29.1710 C.3   165  THR165      0.1897
     90  C        -10.4750  -42.5220   29.1590 C.2   165  THR165      0.2313
     91  O        -11.5400  -42.0110   28.7950 O.2   165  THR165     -0.2863
     92  CB       -11.0050  -44.5390   30.4550 C.3   165  THR165      0.1794
     93  OG1      -10.2400  -44.0890   31.6040 O.3   165  THR165     -0.2208
     94  CG2      -11.2000  -46.0560   30.4500 C.3   165  THR165      0.0378
     95  N         -9.9690  -49.4500   43.2240 N.3   235  TRP235     -0.1241
     96  CA        -8.6500  -49.7670   43.7150 C.3   235  TRP235      0.1605
     97  C         -8.0040  -48.5910   44.4110 C.2   235  TRP235      0.2264
     98  O         -7.2920  -48.7900   45.3650 O.2   235  TRP235     -0.2867
     99  CB        -7.7720  -50.3630   42.6440 C.3   235  TRP235      0.0550
    100  CG        -7.1320  -49.3590   41.6870 C.ar  235  TRP235      0.0003
    101  CD1       -5.8760  -48.8230   41.7830 C.ar  235  TRP235      0.0946
    102  CD2       -7.6970  -48.8070   40.5030 C.ar  235  TRP235      0.0152
    103  NE1       -5.6280  -47.9660   40.7300 N.ar  235  TRP235     -0.2442
    104  CE2       -6.7180  -47.9560   39.9150 C.ar  235  TRP235      0.0810
    105  CE3       -8.9120  -48.9870   39.8350 C.ar  235  TRP235      0.0012
    106  CZ2       -6.9370  -47.2540   38.7370 C.ar  235  TRP235      0.0191
    107  CZ3       -9.1130  -48.2770   38.6090 C.ar  235  TRP235      0.0001
    108  CH2       -8.1420  -47.4290   38.1100 C.ar  235  TRP235      0.0015
    109  N        -15.5490  -50.6030   33.2030 N.3   267  GLY267     -0.1210
    110  CA       -14.4820  -51.5620   33.0290 C.3   267  GLY267      0.1956
    111  C        -14.5160  -52.7500   33.9850 C.2   267  GLY267      0.2612
    112  O        -15.5630  -53.0910   34.5610 O.2   267  GLY267     -0.2717
    113  N        -13.3210  -53.2960   34.2040 N.am  268  GLY268     -0.1956
    114  CA       -13.1040  -54.3710   35.1410 C.3   268  GLY268      0.1869
    115  C        -12.4500  -55.5110   34.3700 C.2   268  GLY268      0.2309
    116  O        -11.7820  -55.2890   33.3840 O.2   268  GLY268     -0.2863
    117  N         -7.4440  -51.0950   21.8340 N.3   344  GLU344     -0.1245
    118  CA        -6.1810  -50.7140   22.5010 C.3   344  GLU344      0.1567
    119  C         -5.2470  -49.9270   21.6010 C.2   344  GLU344      0.2260
    120  O         -4.6190  -49.0000   22.0670 O.2   344  GLU344     -0.2867
    121  CB        -5.4150  -51.8970   23.0680 C.3   344  GLU344      0.0388
    122  CG        -4.2640  -51.5370   24.0080 C.3   344  GLU344      0.1160
    123  CD        -4.6930  -50.7360   25.2590 C.2   344  GLU344      0.3649
    124  OE1       -5.9010  -50.6780   25.6200 O.co2 344  GLU344     -0.2457
    125  OE2       -3.7870  -50.2150   25.9270 O.co2 344  GLU344     -0.2457
@<TRIPOS>BOND
     1   119   120    2
     2   119   118    1
     3   117   118    1
     4   118   121    1
     5   121   122    1
     6   122   123    1
     7    36    35    2
     8    29    28    2
     9    35    34    1
    10   123   124   ar
    11   123   125   ar
    12    34    37    1
    13    34    33    1
    14    39    41   ar
    15    39    38   ar
    16    28    33   am
    17    28    27    1
    18    37    38    1
    19    41    42   ar
    20    38    40   ar
    21    27    30    1
    22    27    26    1
    23    82    81    2
    24    30    31    1
    25    30    32    1
    26    42    40   ar
    27    42    44   ar
    28    22    21    2
    29    40    43   ar
    30    84    83    1
    31    84    85    1
    32    83    80    1
    33    81    80    1
    34    81    88   am
    35    80    79    1
    36    44    46   ar
    37    26    21   am
    38    21    20    1
    39    43    45   ar
    40    87    85   am
    41    18    17    2
    42    85    86    2
    43    91    90    2
    44    46    45   ar
    45    88    89    1
    46    90    89    1
    47    89    92    1
    48    20    23    1
    49    20    19    1
    50    17    19   am
    51    17    16    1
    52    23    24    1
    53    23    25    1
    54    94    92    1
    55    92    93    1
    56    16    15    1
    57     4     3    2
    58     3     2    1
    59    13    11   ar
    60    13    14   ar
    61    11     8   ar
    62   110   109    1
    63   110   111    1
    64   116   115    2
    65     2     5    1
    66     2     1    1
    67    14    12   ar
    68   111   113   am
    69   111   112    2
    70     5     6    1
    71     8     6   ar
    72     8    10   ar
    73   113   114    1
    74   115   114    1
    75    78    76    1
    76     6     7   ar
    77    66    65   ar
    78    77    76    1
    79    12    10   ar
    80    76    75    2
    81    10     9   ar
    82    73    72    1
    83    73    74    1
    84    75    74    1
    85    62    61    2
    86    65    67   ar
    87    65    64    1
    88     7     9   ar
    89    72    69    1
    90    50    49    1
    91    64    63    1
    92    68    69    1
    93    61    60    1
    94    59    60    1
    95    69    70    1
    96    58    57    1
    97    71    70    2
    98    49    48    1
    99    60    63    1
   100    57    55   ar
   101    57    56   ar
   102   108   107   ar
   103   108   106   ar
   104    47    48    1
   105    55    53   ar
   106    56    54   ar
   107   107   105   ar
   108   106   104   ar
   109    48    51    1
   110    53    52   ar
   111    54    52   ar
   112    52    51    1
   113   105   102   ar
   114   104   102   ar
   115   104   103   ar
   116   102   100   ar
   117   103   101   ar
   118   100   101   ar
   119   100    99    1
   120    99    96    1
   121    95    96    1
   122    96    97    1
   123    97    98    2
