@<TRIPOS>MOLECULE
tmp/5ysdB01.pdb
 83 80 0 0 0
SMALL
GASTEIGER

@<TRIPOS>ATOM
      1  N         -5.4730  -33.8890   38.1470 N.3   158  ALA158     -0.1231
      2  CA        -4.5280  -34.6880   37.4010 C.3   158  ALA158      0.1694
      3  C         -5.1700  -35.3030   36.1640 C.2   158  ALA158      0.2592
      4  O         -6.3000  -35.7760   36.2210 O.2   158  ALA158     -0.2718
      5  CB        -3.9970  -35.8050   38.2890 C.3   158  ALA158      0.0304
      6  N         -4.4200  -35.3390   35.0860 N.am  159  ILE159     -0.1966
      7  CA        -4.8030  -36.0400   33.8560 C.3   159  ILE159      0.1727
      8  C         -3.6470  -37.0340   33.6080 C.2   159  ILE159      0.2616
      9  O         -2.4620  -36.6300   33.3680 O.2   159  ILE159     -0.2715
     10  CB        -4.9900  -35.0510   32.6780 C.3   159  ILE159      0.0290
     11  CG1       -6.1420  -34.1010   32.9930 C.3   159  ILE159      0.0022
     12  CG2       -5.2060  -35.7840   31.3420 C.3   159  ILE159      0.0023
     13  CD1       -6.1470  -32.8150   32.1770 C.3   159  ILE159      0.0001
     14  N         -3.9970  -38.3230   33.7100 N.am  160  ASP160     -0.1958
     15  CA        -3.0730  -39.4210   33.5200 C.3   160  ASP160      0.1825
     16  C         -2.8730  -39.6430   31.9970 C.2   160  ASP160      0.2464
     17  O         -3.8240  -40.0210   31.3140 O.2   160  ASP160     -0.2730
     18  CB        -3.6380  -40.6780   34.1970 C.3   160  ASP160      0.1450
     19  CG        -2.6540  -41.8550   34.1670 C.2   160  ASP160      0.3671
     20  OD1       -1.6730  -41.8130   33.3820 O.co2 160  ASP160     -0.2456
     21  OD2       -2.8370  -42.8470   34.9310 O.co2 160  ASP160     -0.2456
     22  N         -1.6780  -39.3640   31.4570 N.am  161  PRO161     -0.2727
     23  CA        -1.4730  -39.4540   29.9990 C.3   161  PRO161      0.1402
     24  C         -1.4740  -40.8740   29.4400 C.2   161  PRO161      0.2269
     25  O         -1.4930  -41.0700   28.2080 O.2   161  PRO161     -0.2865
     26  CB        -0.0660  -38.8440   29.8250 C.3   161  PRO161      0.0296
     27  CG         0.6320  -39.1880   31.1150 C.3   161  PRO161      0.0237
     28  CD        -0.4420  -38.9450   32.1360 C.3   161  PRO161      0.0939
     29  N         -0.4880  -31.3730   36.5100 N.3   209  PRO209     -0.2116
     30  CA         0.9090  -31.6140   36.1530 C.3   209  PRO209      0.1372
     31  C          1.1170  -32.0240   34.7120 C.2   209  PRO209      0.2244
     32  O          0.3260  -32.7620   34.1920 O.2   209  PRO209     -0.2868
     33  CB         1.3290  -32.7390   37.0880 C.3   209  PRO209      0.0268
     34  CG         0.3090  -32.7520   38.1690 C.3   209  PRO209      0.0207
     35  CD        -0.9530  -32.2990   37.5460 C.3   209  PRO209      0.0892
     36  N          4.0580  -33.6210   33.9000 N.3   211  THR211     -0.1203
     37  CA         5.0120  -34.7200   34.0640 C.3   211  THR211      0.1994
     38  C          4.6000  -35.5410   35.2600 C.2   211  THR211      0.2618
     39  O          3.7200  -35.1520   36.0560 O.2   211  THR211     -0.2717
     40  CB         6.4940  -34.2900   34.3190 C.3   211  THR211      0.1784
     41  OG1        6.5610  -33.4190   35.4630 O.3   211  THR211     -0.2211
     42  CG2        7.0720  -33.5990   33.1190 C.3   211  THR211      0.0376
     43  N          5.2600  -36.6870   35.3880 N.am  212  ASP212     -0.1959
     44  CA         5.1100  -37.5280   36.5610 C.3   212  ASP212      0.1840
     45  C          5.9050  -36.9060   37.7060 C.2   212  ASP212      0.2622
     46  O          7.1330  -36.8530   37.6630 O.2   212  ASP212     -0.2715
     47  CB         5.5830  -38.9430   36.2460 C.3   212  ASP212      0.1450
     48  CG         5.2310  -39.9410   37.3330 C.2   212  ASP212      0.3671
     49  OD1        4.8990  -39.6240   38.5070 O.co2 212  ASP212     -0.2456
     50  OD2        5.2940  -41.1220   36.9900 O.co2 212  ASP212     -0.2456
     51  N          5.2050  -36.4690   38.7430 N.am  213  LEU213     -0.1963
     52  CA         5.8500  -35.8940   39.9280 C.3   213  LEU213      0.1728
     53  C          6.5430  -36.9370   40.7910 C.2   213  LEU213      0.2617
     54  O          7.2870  -36.5960   41.6960 O.2   213  LEU213     -0.2715
     55  CB         4.8350  -35.1630   40.8080 C.3   213  LEU213      0.0311
     56  CG         4.3260  -33.7800   40.4380 C.3   213  LEU213      0.0022
     57  CD1        5.1800  -33.0300   39.4220 C.3   213  LEU213      0.0001
     58  CD2        2.9360  -33.9140   39.9370 C.3   213  LEU213      0.0001
     59  N          6.2430  -38.2020   40.5400 N.am  214  GLY214     -0.1940
     60  CA         6.8960  -39.3130   41.2460 C.3   214  GLY214      0.2014
     61  C          6.4510  -39.5480   42.6740 C.2   214  GLY214      0.2638
     62  O          7.2340  -39.9730   43.5100 O.2   214  GLY214     -0.2714
     63  N          5.2130  -39.2190   42.9750 N.am  215  LEU215     -0.1977
     64  CA         4.6940  -39.2870   44.3250 C.3   215  LEU215      0.1596
     65  C          3.7110  -40.4260   44.2920 C.2   215  LEU215      0.2287
     66  O          3.0360  -40.5960   43.3340 O.2   215  LEU215     -0.2864
     67  CB         3.9530  -38.0150   44.7100 C.3   215  LEU215      0.0297
     68  CG         4.7430  -36.7080   44.8370 C.3   215  LEU215      0.0022
     69  CD1        3.8370  -35.5040   44.9250 C.3   215  LEU215      0.0001
     70  CD2        5.7020  -36.7420   46.0150 C.3   215  LEU215      0.0001
     71  N          0.7670  -37.3270   47.2710 N.3   220  SER220     -0.1217
     72  CA         0.2580  -36.3060   46.3620 C.3   220  SER220      0.1889
     73  C         -1.1130  -35.8350   46.8030 C.2   220  SER220      0.2288
     74  O         -1.3850  -34.6330   46.7460 O.2   220  SER220     -0.2866
     75  CB         0.2340  -36.7540   44.9040 C.3   220  SER220      0.2089
     76  OG        -0.5310  -37.9260   44.7700 O.3   220  SER220     -0.2183
     77  N         -1.7450  -32.5760   44.6880 N.3   227  VAL227     -0.1245
     78  CA        -2.7340  -32.8970   43.6900 C.3   227  VAL227      0.1561
     79  C         -4.0470  -33.2340   44.4100 C.2   227  VAL227      0.2260
     80  O         -4.2090  -34.3320   44.9170 O.2   227  VAL227     -0.2867
     81  CB        -2.2930  -34.0580   42.7980 C.3   227  VAL227      0.0252
     82  CG1       -3.3640  -34.2860   41.7000 C.3   227  VAL227      0.0019
     83  CG2       -0.9070  -33.7650   42.2000 C.3   227  VAL227      0.0019
@<TRIPOS>BOND
     1    25    24    2
     2    24    23    1
     3    26    23    1
     4    26    27    1
     5    23    22    1
     6    27    28    1
     7    17    16    2
     8    12    10    1
     9    22    16   am
    10    22    28    1
    11    16    15    1
    12    13    11    1
    13    10    11    1
    14    10     7    1
    15    42    40    1
    16     9     8    2
    17    20    19   ar
    18    15    14    1
    19    15    18    1
    20     8    14   am
    21     8     7    1
    22     7     6    1
    23    36    37    1
    24    37    40    1
    25    37    38    1
    26    19    18    1
    27    19    21   ar
    28    32    31    2
    29    40    41    1
    30    31    30    1
    31     6     3   am
    32    38    43   am
    33    38    39    2
    34    43    44    1
    35    30    29    1
    36    30    33    1
    37     3     4    2
    38     3     2    1
    39    47    44    1
    40    47    48    1
    41    29    35    1
    42    44    45    1
    43    50    48   ar
    44    33    34    1
    45    48    49   ar
    46     2     1    1
    47     2     5    1
    48    35    34    1
    49    46    45    2
    50    45    51   am
    51    51    52    1
    52    57    56    1
    53    52    53    1
    54    52    55    1
    55    58    56    1
    56    56    55    1
    57    59    53   am
    58    59    60    1
    59    53    54    2
    60    60    61    1
    61    82    81    1
    62    83    81    1
    63    61    63   am
    64    61    62    2
    65    81    78    1
    66    63    64    1
    67    66    65    2
    68    78    79    1
    69    78    77    1
    70    65    64    1
    71    64    67    1
    72    79    80    2
    73    67    68    1
    74    76    75    1
    75    68    69    1
    76    68    70    1
    77    75    72    1
    78    72    73    1
    79    72    71    1
    80    74    73    2
