@<TRIPOS>MOLECULE
tmp/5ysdA01.pdb
 83 77 0 0 0
SMALL
GASTEIGER

@<TRIPOS>ATOM
      1  N          0.8730  -15.3250    7.8110 N.3   158  ALA158     -0.1245
      2  CA         1.4610  -14.5660    8.9110 C.3   158  ALA158      0.1562
      3  C          0.3820  -13.9460    9.7800 C.2   158  ALA158      0.2260
      4  O         -0.5980  -13.4220    9.2780 O.2   158  ALA158     -0.2867
      5  CB         2.3320  -13.4490    8.3350 C.3   158  ALA158      0.0290
      6  N          0.5070  -10.8990   12.4760 N.3   160  ASP160     -0.1239
      7  CA         1.3010   -9.8160   13.0290 C.3   160  ASP160      0.1674
      8  C          0.9250   -9.6120   14.5120 C.2   160  ASP160      0.2266
      9  O         -0.1710   -9.2030   14.7850 O.2   160  ASP160     -0.2867
     10  CB         1.0860   -8.5550   12.1900 C.3   160  ASP160      0.1410
     11  CG         1.9940   -7.3870   12.6180 C.2   160  ASP160      0.3668
     12  OD1        2.6380   -7.4690   13.6890 O.co2 160  ASP160     -0.2456
     13  OD2        2.0270   -6.3650   11.8370 O.co2 160  ASP160     -0.2456
     14  N         12.5870  -10.1900    7.8370 N.3   215  LEU215     -0.1245
     15  CA        12.6990  -10.1230    6.4140 C.3   215  LEU215      0.1561
     16  C         11.7670   -8.9770    6.0050 C.2   215  LEU215      0.2260
     17  O         10.6900   -8.8420    6.5930 O.2   215  LEU215     -0.2867
     18  CB        12.1450  -11.4060    5.7580 C.3   215  LEU215      0.0270
     19  CG        12.8210  -12.7220    6.0010 C.3   215  LEU215      0.0019
     20  CD1       11.9330  -13.8310    5.4920 C.3   215  LEU215      0.0001
     21  CD2       14.1620  -12.7500    5.2600 C.3   215  LEU215      0.0001
     22  N          9.1610   -7.3950    3.0430 N.3   217  ALA217     -0.1245
     23  CA         8.0770   -8.0430    2.3170 C.3   217  ALA217      0.1562
     24  C          8.5950   -8.7730    1.0370 C.2   217  ALA217      0.2260
     25  O          8.1840   -9.8790    0.7230 O.2   217  ALA217     -0.2867
     26  CB         7.0220   -7.0040    1.9570 C.3   217  ALA217      0.0290
     27  N         10.1990  -12.0450    2.0010 N.3   220  SER220     -0.1202
     28  CA         9.3200  -13.0420    2.6230 C.3   220  SER220      0.2020
     29  C          8.2480  -13.4770    1.6590 C.2   220  SER220      0.2618
     30  O          7.9650  -14.6750    1.5630 O.2   220  SER220     -0.2717
     31  CB         8.7090  -12.5660    3.9350 C.3   220  SER220      0.2103
     32  OG         7.9500  -11.4290    3.7730 O.3   220  SER220     -0.2182
     33  N          7.6890  -12.5480    0.8970 N.am  221  PHE221     -0.1975
     34  CA         6.5740  -12.8670    0.0050 C.3   221  PHE221      0.1639
     35  C          7.0490  -13.1550   -1.3730 C.2   221  PHE221      0.2290
     36  O          6.3900  -13.8920   -2.1160 O.2   221  PHE221     -0.2864
     37  CB         5.5750  -11.7100    0.0460 C.3   221  PHE221      0.0560
     38  CG         4.2650  -11.9430   -0.6420 C.ar  221  PHE221     -0.0200
     39  CD1        3.3450  -12.7850   -0.1390 C.ar  221  PHE221     -0.0042
     40  CD2        3.9370  -11.1850   -1.7870 C.ar  221  PHE221     -0.0042
     41  CE1        2.0960  -12.9040   -0.7140 C.ar  221  PHE221     -0.0003
     42  CE2        2.6970  -11.3160   -2.3850 C.ar  221  PHE221     -0.0003
     43  CZ         1.7620  -12.1610   -1.8470 C.ar  221  PHE221     -0.0000
     44  N          6.7830  -16.7400    3.2340 N.3   227  VAL227     -0.1245
     45  CA         5.4810  -16.3970    3.7980 C.3   227  VAL227      0.1561
     46  C          4.5490  -16.0240    2.6290 C.2   227  VAL227      0.2260
     47  O          4.6240  -14.9190    2.1260 O.2   227  VAL227     -0.2867
     48  CB         5.5610  -15.2680    4.8330 C.3   227  VAL227      0.0252
     49  CG1        4.2040  -15.0230    5.4070 C.3   227  VAL227      0.0019
     50  CG2        6.5370  -15.6150    5.9190 C.3   227  VAL227      0.0019
     51  N         -0.5920  -13.2710    3.6800 N.3   230  PHE230     -0.1227
     52  CA        -0.6240  -12.3380    4.8130 C.3   230  PHE230      0.1736
     53  C         -1.7430  -11.3440    4.5630 C.2   230  PHE230      0.2595
     54  O         -2.3120  -11.3110    3.4940 O.2   230  PHE230     -0.2718
     55  CB         0.7010  -11.6220    5.0640 C.3   230  PHE230      0.0547
     56  CG         1.1150  -10.6130    3.9490 C.ar  230  PHE230     -0.0202
     57  CD1        1.7670  -11.0360    2.8040 C.ar  230  PHE230     -0.0042
     58  CD2        0.8390   -9.2630    4.0740 C.ar  230  PHE230     -0.0042
     59  CE1        2.1020  -10.1540    1.7880 C.ar  230  PHE230     -0.0003
     60  CE2        1.2090   -8.3330    3.1170 C.ar  230  PHE230     -0.0003
     61  CZ         1.8520   -8.7760    1.9470 C.ar  230  PHE230     -0.0000
     62  N         -2.0590  -10.5480    5.5860 N.am  231  MET231     -0.1965
     63  CA        -3.1080   -9.5550    5.5440 C.3   231  MET231      0.1736
     64  C         -2.4790   -8.1840    5.7480 C.2   231  MET231      0.2617
     65  O         -1.5640   -8.0240    6.5610 O.2   231  MET231     -0.2715
     66  CB        -4.1200   -9.7520    6.6840 C.3   231  MET231      0.0427
     67  CG        -5.0690  -10.9010    6.4450 C.3   231  MET231      0.0599
     68  SD        -5.8600  -11.4070    8.0250 S.3   231  MET231     -0.1393
     69  CE        -6.5610   -9.8020    8.5450 C.3   231  MET231      0.0692
     70  N         -2.9100   -7.2290    4.9330 N.am  232  SER232     -0.1950
     71  CA        -2.4740   -5.8520    5.0610 C.3   232  SER232      0.1924
     72  C         -3.3180   -4.9220    4.2320 C.2   232  SER232      0.2314
     73  O         -4.3540   -5.3170    3.6590 O.2   232  SER232     -0.2863
     74  CB        -0.9610   -5.7400    4.6990 C.3   232  SER232      0.2116
     75  OG        -0.4970   -4.4810    5.1150 O.3   232  SER232     -0.2180
     76  N          0.8360   -1.7570    1.3880 N.3   236  MET236     -0.1245
     77  CA         1.6390   -2.9280    0.9840 C.3   236  MET236      0.1570
     78  C          1.5460   -3.3120   -0.5030 C.2   236  MET236      0.2261
     79  O          2.4000   -3.9520   -1.0210 O.2   236  MET236     -0.2867
     80  CB         1.2720   -4.1290    1.9120 C.3   236  MET236      0.0387
     81  CG         2.3850   -5.1220    2.0070 C.3   236  MET236      0.0595
     82  SD         3.8720   -4.6490    2.9380 S.3   236  MET236     -0.1393
     83  CE         3.2980   -4.9340    4.6010 C.3   236  MET236      0.0692
@<TRIPOS>BOND
     1    42    43   ar
     2    42    40   ar
     3    36    35    2
     4    43    41   ar
     5    40    38   ar
     6    35    34    1
     7    79    78    2
     8    41    39   ar
     9    38    39   ar
    10    38    37    1
    11    78    77    1
    12    34    37    1
    13    34    33    1
    14    25    24    2
    15    33    29   am
    16    77    76    1
    17    77    80    1
    18    24    23    1
    19    30    29    2
    20    29    28    1
    21    59    61   ar
    22    59    57   ar
    23    80    81    1
    24    61    60   ar
    25    26    23    1
    26    27    28    1
    27    81    82    1
    28    47    46    2
    29    23    22    1
    30    28    31    1
    31    46    45    1
    32    57    56   ar
    33    82    83    1
    34    60    58   ar
    35    44    45    1
    36    54    53    2
    37    73    72    2
    38    51    52    1
    39    32    31    1
    40    45    48    1
    41    56    58   ar
    42    56    55    1
    43    72    71    1
    44    53    52    1
    45    53    62   am
    46    74    71    1
    47    74    75    1
    48    52    55    1
    49    48    49    1
    50    48    50    1
    51    70    71    1
    52    70    64   am
    53    21    19    1
    54    20    19    1
    55    63    62    1
    56    63    64    1
    57    63    66    1
    58    64    65    2
    59    18    19    1
    60    18    15    1
    61    16    15    1
    62    16    17    2
    63    15    14    1
    64    67    66    1
    65    67    68    1
    66     1     2    1
    67    68    69    1
    68     5     2    1
    69     2     3    1
    70     4     3    2
    71    13    11   ar
    72    10    11    1
    73    10     7    1
    74     6     7    1
    75    11    12   ar
    76     7     8    1
    77     8     9    2
