@<TRIPOS>MOLECULE
tmp/5yshJ00.pdb
 100 95 0 0 0
SMALL
GASTEIGER

@<TRIPOS>ATOM
      1  N        102.3380  210.6430 -142.2500 N.3   222  THR222     -0.1218
      2  CA       103.7160  210.5090 -142.6870 C.3   222  THR222      0.1862
      3  C        104.5810  211.5710 -142.0140 C.2   222  THR222      0.2287
      4  O        105.3360  212.2810 -142.6770 O.2   222  THR222     -0.2866
      5  CB       103.7920  210.5790 -144.2140 C.3   222  THR222      0.1770
      6  OG1      103.1200  211.7580 -144.6920 O.3   222  THR222     -0.2211
      7  CG2      103.1220  209.3410 -144.8160 C.3   222  THR222      0.0375
      8  N        107.5490  211.9460 -140.0140 N.3   224  SER224     -0.1202
      9  CA       108.5970  210.9390 -139.8830 C.3   224  SER224      0.2020
     10  C        109.5070  211.2030 -138.6890 C.2   224  SER224      0.2619
     11  O        109.8790  212.3450 -138.4130 O.2   224  SER224     -0.2717
     12  CB       109.4240  210.8610 -141.1670 C.3   224  SER224      0.2103
     13  OG       108.6900  210.1940 -142.1890 O.3   224  SER224     -0.2182
     14  N        109.8320  210.1310 -137.9590 N.am  225  VAL225     -0.1965
     15  CA       110.8830  210.1510 -136.9520 C.3   225  VAL225      0.1727
     16  C        111.8900  209.0700 -137.3210 C.2   225  VAL225      0.2616
     17  O        111.5950  208.1480 -138.0910 O.2   225  VAL225     -0.2715
     18  CB       110.3500  209.9410 -135.5170 C.3   225  VAL225      0.0290
     19  CG1      109.3970  211.0730 -135.1240 C.3   225  VAL225      0.0023
     20  CG2      109.6680  208.6150 -135.4040 C.3   225  VAL225      0.0023
     21  N        113.0970  209.1970 -136.7650 N.am  226  TYR226     -0.1974
     22  CA       114.2130  208.3420 -137.1460 C.3   226  TYR226      0.1639
     23  C        115.0120  207.9440 -135.9090 C.2   226  TYR226      0.2290
     24  O        114.9410  208.5890 -134.8620 O.2   226  TYR226     -0.2864
     25  CB       115.1270  209.0380 -138.1690 C.3   226  TYR226      0.0560
     26  CG       114.3880  209.5680 -139.3810 C.ar  226  TYR226     -0.0198
     27  CD1      114.1990  208.7800 -140.5120 C.ar  226  TYR226     -0.0009
     28  CD2      113.8780  210.8590 -139.3950 C.ar  226  TYR226     -0.0009
     29  CE1      113.5210  209.2690 -141.6220 C.ar  226  TYR226      0.0417
     30  CE2      113.1980  211.3540 -140.4960 C.ar  226  TYR226      0.0417
     31  CZ       113.0240  210.5610 -141.6020 C.ar  226  TYR226      0.1957
     32  OH       112.3530  211.0720 -142.6860 O.3   226  TYR226     -0.2866
     33  N        105.4020  208.3490 -138.3040 N.3   259  THR259     -0.1203
     34  CA       105.7950  207.2240 -139.1400 C.3   259  THR259      0.1994
     35  C        107.2590  206.9060 -138.8880 C.2   259  THR259      0.2619
     36  O        108.0860  207.8090 -138.7790 O.2   259  THR259     -0.2717
     37  CB       105.5740  207.5050 -140.6400 C.3   259  THR259      0.1784
     38  OG1      104.1720  207.5830 -140.9150 O.3   259  THR259     -0.2211
     39  CG2      106.1740  206.3880 -141.4930 C.3   259  THR259      0.0376
     40  N        107.5710  205.6150 -138.7670 N.am  260  SER260     -0.1937
     41  CA       108.9600  205.1810 -138.6820 C.3   260  SER260      0.2055
     42  C        109.1010  203.8750 -139.4520 C.2   260  SER260      0.2643
     43  O        108.4010  203.6700 -140.4490 O.2   260  SER260     -0.2714
     44  CB       109.4060  205.0340 -137.2210 C.3   260  SER260      0.2130
     45  OG       108.6000  204.1100 -136.4950 O.3   260  SER260     -0.2179
     46  N        109.9900  202.9890 -139.0200 N.am  261  GLY261     -0.1954
     47  CA       110.1400  201.7200 -139.7150 C.3   261  GLY261      0.1869
     48  C        111.5720  201.2430 -139.8630 C.2   261  GLY261      0.2309
     49  O        112.4740  202.0250 -140.1900 O.2   261  GLY261     -0.2863
     50  N        115.3690  202.3740 -142.1410 N.3   264  SER264     -0.1217
     51  CA       115.5060  203.7620 -142.5790 C.3   264  SER264      0.1889
     52  C        116.9050  204.2970 -142.3060 C.2   264  SER264      0.2288
     53  O        117.4690  205.0320 -143.1270 O.2   264  SER264     -0.2866
     54  CB       114.4600  204.6340 -141.8820 C.3   264  SER264      0.2089
     55  OG       114.6820  204.6810 -140.4660 O.3   264  SER264     -0.2183
     56  N        102.8240  204.5850 -137.6380 N.3   296  GLN296     -0.1245
     57  CA       102.9020  203.7310 -138.8160 C.3   296  GLN296      0.1566
     58  C        104.2960  203.1140 -138.8370 C.2   296  GLN296      0.2260
     59  O        105.2880  203.8240 -139.0020 O.2   296  GLN296     -0.2867
     60  CB       102.6300  204.5350 -140.0900 C.3   296  GLN296      0.0367
     61  CG       102.7820  203.7170 -141.3850 C.3   296  GLN296      0.0905
     62  CD       102.5310  204.5210 -142.6700 C.2   296  GLN296      0.2608
     63  OE1      101.8600  204.0370 -143.5800 O.2   296  GLN296     -0.2717
     64  NE2      103.0940  205.7350 -142.7600 N.am  296  GLN296     -0.0878
     65  N        108.6840  198.6800 -141.0100 N.3   299  SER299     -0.1202
     66  CA       109.6060  199.0540 -142.0900 C.3   299  SER299      0.2020
     67  C        109.0270  200.0660 -143.0800 C.2   299  SER299      0.2619
     68  O        109.7520  200.9530 -143.5600 O.2   299  SER299     -0.2717
     69  CB       110.0950  197.8230 -142.8590 C.3   299  SER299      0.2103
     70  OG       111.1990  198.2030 -143.6820 O.3   299  SER299     -0.2182
     71  N        107.7400  199.9270 -143.4180 N.am  300  VAL300     -0.1965
     72  CA       107.0550  200.8730 -144.2970 C.3   300  VAL300      0.1727
     73  C        107.8450  201.0020 -145.6000 C.2   300  VAL300      0.2617
     74  O        108.0440  200.0110 -146.3090 O.2   300  VAL300     -0.2715
     75  CB       106.8500  202.2330 -143.5880 C.3   300  VAL300      0.0290
     76  CG1      105.8430  203.1120 -144.3370 C.3   300  VAL300      0.0023
     77  CG2      106.3330  201.9990 -142.1840 C.3   300  VAL300      0.0023
     78  N        108.3350  202.2070 -145.9200 N.am  301  SER301     -0.1936
     79  CA       108.9410  202.4260 -147.2320 C.3   301  SER301      0.2055
     80  C        110.3260  201.8060 -147.3850 C.2   301  SER301      0.2643
     81  O        110.8230  201.7210 -148.5150 O.2   301  SER301     -0.2714
     82  CB       109.0250  203.9300 -147.5400 C.3   301  SER301      0.2130
     83  OG       107.7270  204.4830 -147.7220 O.3   301  SER301     -0.2179
     84  N        110.9690  201.3810 -146.2980 N.am  302  CYS302     -0.1967
     85  CA       112.2960  200.7840 -146.3790 C.3   302  CYS302      0.1712
     86  C        112.2710  199.2570 -146.3220 C.2   302  CYS302      0.2296
     87  O        113.3010  198.6420 -146.0310 O.2   302  CYS302     -0.2864
     88  CB       113.1800  201.3450 -145.2760 C.3   302  CYS302      0.0983
     89  SG       113.3850  203.1150 -145.5150 S.3   302  CYS302     -0.0798
     90  N        103.4660  205.6720 -154.1840 N.3   374  PHE374     -0.1241
     91  CA       104.4640  205.2970 -153.1950 C.3   374  PHE374      0.1605
     92  C        105.3850  204.2110 -153.7260 C.2   374  PHE374      0.2264
     93  O        106.0110  203.4980 -152.9360 O.2   374  PHE374     -0.2867
     94  CB       103.7930  204.8500 -151.8950 C.3   374  PHE374      0.0534
     95  CG       102.9860  205.9340 -151.2370 C.ar  374  PHE374     -0.0203
     96  CD1      103.6030  206.8940 -150.4500 C.ar  374  PHE374     -0.0042
     97  CD2      101.6110  205.9990 -151.4150 C.ar  374  PHE374     -0.0042
     98  CE1      102.8620  207.8980 -149.8430 C.ar  374  PHE374     -0.0003
     99  CE2      100.8670  207.0010 -150.8150 C.ar  374  PHE374     -0.0003
    100  CZ       101.4940  207.9500 -150.0250 C.ar  374  PHE374     -0.0000
@<TRIPOS>BOND
     1    90    91    1
     2    92    91    1
     3    92    93    2
     4    91    94    1
     5    94    95    1
     6    97    95   ar
     7    97    99   ar
     8    95    96   ar
     9    99   100   ar
    10    96    98   ar
    11   100    98   ar
    12    81    80    2
    13    83    82    1
    14    82    79    1
    15    80    79    1
    16    80    84   am
    17    79    78    1
    18    85    86    1
    19    85    84    1
    20    85    88    1
    21    86    87    2
    22    74    73    2
    23    78    73   am
    24    73    72    1
    25    89    88    1
    26     7     5    1
    27     6     5    1
    28    76    75    1
    29    72    75    1
    30    72    71    1
    31     5     2    1
    32    70    69    1
    33    75    77    1
    34    63    62    2
    35    68    67    2
    36    71    67   am
    37    53    52    2
    38    67    66    1
    39    69    66    1
    40    64    62   am
    41     2     1    1
    42     2     3    1
    43    32    31    1
    44     4     3    2
    45    62    61    1
    46    51    52    1
    47    51    50    1
    48    51    54    1
    49    13    12    1
    50    66    65    1
    51    54    55    1
    52    29    31   ar
    53    29    27   ar
    54    31    30   ar
    55    39    37    1
    56    61    60    1
    57    12     9    1
    58    38    37    1
    59    37    34    1
    60    27    26   ar
    61    30    28   ar
    62    43    42    2
    63    49    48    2
    64    60    57    1
    65     8     9    1
    66     9    10    1
    67    48    47    1
    68    47    46    1
    69    42    46   am
    70    42    41    1
    71    28    26   ar
    72    26    25    1
    73    34    35    1
    74    34    33    1
    75    59    58    2
    76    35    36    2
    77    35    40   am
    78    58    57    1
    79    57    56    1
    80    40    41    1
    81    10    11    2
    82    10    14   am
    83    41    44    1
    84    25    22    1
    85    17    16    2
    86    14    15    1
    87    16    15    1
    88    16    21   am
    89    44    45    1
    90    22    21    1
    91    22    23    1
    92    15    18    1
    93    23    24    2
    94    18    20    1
    95    18    19    1
