@<TRIPOS>MOLECULE
tmp/5ysiA00.pdb
 80 78 0 0 0
SMALL
GASTEIGER

@<TRIPOS>ATOM
      1  N         17.0690    9.9900   49.8820 N.3     8  PHE8       -0.1227
      2  CA        18.3750    9.6870   50.4180 C.3     8  PHE8        0.1736
      3  C         18.4790   10.0520   51.8930 C.2     8  PHE8        0.2595
      4  O         17.9080   11.0440   52.3680 O.2     8  PHE8       -0.2718
      5  CB        19.4650   10.4590   49.7010 C.3     8  PHE8        0.0547
      6  CG        19.5710   10.1820   48.2390 C.ar    8  PHE8       -0.0202
      7  CD1       20.3860    9.1890   47.7740 C.ar    8  PHE8       -0.0042
      8  CD2       18.9080   10.9850   47.3200 C.ar    8  PHE8       -0.0042
      9  CE1       20.5000    8.9530   46.4110 C.ar    8  PHE8       -0.0003
     10  CE2       19.0460   10.7510   45.9620 C.ar    8  PHE8       -0.0003
     11  CZ        19.8370    9.7550   45.5240 C.ar    8  PHE8       -0.0000
     12  N         19.2800    9.2620   52.5970 N.am    9  ARG9       -0.1966
     13  CA        19.5810    9.5250   53.9930 C.3     9  ARG9        0.1729
     14  C         21.0030    9.0460   54.2450 C.2     9  ARG9        0.2616
     15  O         21.3690    7.9690   53.7910 O.2     9  ARG9       -0.2715
     16  CB        18.5600    8.8130   54.8860 C.3     9  ARG9        0.0348
     17  CG        18.8400    8.8170   56.3530 C.3     9  ARG9        0.0492
     18  CD        17.6590    8.2440   57.1320 C.3     9  ARG9        0.2205
     19  NE        18.0100    8.1420   58.5330 N.pl3   9  ARG9       -0.0865
     20  CZ        17.9220    9.1430   59.4010 C.cat   9  ARG9        0.5346
     21  NH1       17.4680   10.3390   59.0220 N.pl3   9  ARG9        0.1354
     22  NH2       18.2930    8.9350   60.6600 N.pl3   9  ARG9        0.1354
     23  N         21.7900    9.8390   54.9450 N.am   10  GLY10      -0.1955
     24  CA        23.1710    9.5160   55.2170 C.3    10  GLY10       0.1869
     25  C         23.3960    9.3120   56.6980 C.2    10  GLY10       0.2309
     26  O         22.7050    9.9040   57.5430 O.2    10  GLY10      -0.2863
     27  N         14.3150   11.9200   58.7080 N.3    61  SER61      -0.1202
     28  CA        14.5460   12.9550   57.7050 C.3    61  SER61       0.2020
     29  C         15.3410   12.4190   56.5090 C.2    61  SER61       0.2619
     30  O         16.2810   11.6410   56.6590 O.2    61  SER61      -0.2717
     31  CB        15.3000   14.1240   58.3400 C.3    61  SER61       0.2103
     32  OG        14.5930   14.6180   59.4600 O.3    61  SER61      -0.2182
     33  N         14.9360   12.8470   55.3140 N.am   62  THR62      -0.1938
     34  CA        15.5150   12.4210   54.0520 C.3    62  THR62       0.2028
     35  C         15.5240   13.6090   53.1100 C.2    62  THR62       0.2642
     36  O         14.8910   14.6320   53.3580 O.2    62  THR62      -0.2714
     37  CB        14.7360   11.2740   53.4030 C.3    62  THR62       0.1808
     38  OG1       13.4600   11.7720   52.9770 O.3    62  THR62      -0.2208
     39  CG2       14.4380   10.1370   54.3750 C.3    62  THR62       0.0379
     40  N         16.2310   13.4460   51.9990 N.am   63  THR63      -0.1950
     41  CA        16.2260   14.4610   50.9570 C.3    63  THR63       0.1897
     42  C         16.1800   13.7860   49.5970 C.2    63  THR63       0.2313
     43  O         16.6390   12.6600   49.4380 O.2    63  THR63      -0.2863
     44  CB        17.4550   15.3670   51.0870 C.3    63  THR63       0.1794
     45  OG1       17.4690   16.3250   50.0250 O.3    63  THR63      -0.2208
     46  CG2       18.7290   14.5940   51.0810 C.3    63  THR63       0.0378
     47  N         23.0500   17.1090   48.7850 N.3    68  LEU68      -0.1231
     48  CA        22.7650   17.6780   50.1010 C.3    68  LEU68       0.1693
     49  C         23.2490   16.7610   51.2200 C.2    68  LEU68       0.2591
     50  O         23.7650   17.2390   52.2290 O.2    68  LEU68      -0.2718
     51  CB        21.2680   17.9790   50.2720 C.3    68  LEU68       0.0284
     52  CG        20.8890   18.4830   51.6800 C.3    68  LEU68       0.0019
     53  CD1       21.4480   19.8930   51.9340 C.3    68  LEU68       0.0001
     54  CD2       19.3880   18.4520   51.9160 C.3    68  LEU68       0.0001
     55  N         23.0950   15.4460   51.0770 N.am   69  VAL69      -0.1980
     56  CA        23.6180   14.5580   52.1110 C.3    69  VAL69       0.1595
     57  C         25.1300   14.6690   52.1820 C.2    69  VAL69       0.2287
     58  O         25.7130   14.9200   53.2500 O.2    69  VAL69      -0.2864
     59  CB        23.2140   13.1000   51.8520 C.3    69  VAL69       0.0276
     60  CG1       23.7130   12.1930   52.9650 C.3    69  VAL69       0.0022
     61  CG2       21.7560   12.9710   51.7600 C.3    69  VAL69       0.0022
     62  N         26.3710   16.4510   55.8330 N.3    73  TRP73      -0.1241
     63  CA        26.8180   15.6010   56.9140 C.3    73  TRP73       0.1605
     64  C         28.0530   14.8040   56.5340 C.2    73  TRP73       0.2264
     65  O         28.6720   14.1700   57.4080 O.2    73  TRP73      -0.2867
     66  CB        25.6660   14.6620   57.3250 C.3    73  TRP73       0.0550
     67  CG        24.4380   15.4330   57.7740 C.ar   73  TRP73       0.0003
     68  CD1       24.2460   15.9920   58.9870 C.ar   73  TRP73       0.0946
     69  CD2       23.2800   15.7440   56.9920 C.ar   73  TRP73       0.0152
     70  NE1       23.0370   16.6320   59.0280 N.ar   73  TRP73      -0.2442
     71  CE2       22.4210   16.5000   57.8100 C.ar   73  TRP73       0.0810
     72  CE3       22.8820   15.4530   55.6860 C.ar   73  TRP73       0.0012
     73  CZ2       21.1810   16.9670   57.3640 C.ar   73  TRP73       0.0191
     74  CZ3       21.6560   15.9260   55.2440 C.ar   73  TRP73       0.0001
     75  CH2       20.8280   16.6830   56.0780 C.ar   73  TRP73       0.0015
     76  N         13.0620   19.0280   53.2830 N.3   102  ALA102     -0.1245
     77  CA        13.3010   17.6360   53.4740 C.3   102  ALA102      0.1562
     78  C         12.0250   16.8520   53.2940 C.2   102  ALA102      0.2260
     79  O         11.0230   17.4090   53.0700 O.2   102  ALA102     -0.2867
     80  CB        13.8050   17.4690   54.8990 C.3   102  ALA102      0.0290
@<TRIPOS>BOND
     1    11    10   ar
     2    11     9   ar
     3    10     8   ar
     4     9     7   ar
     5     8     6   ar
     6     7     6   ar
     7     6     5    1
     8    47    48    1
     9    43    42    2
    10    42    41    1
    11     5     2    1
    12     1     2    1
    13    45    44    1
    14    48    51    1
    15    48    49    1
    16    51    52    1
    17     2     3    1
    18    41    44    1
    19    41    40    1
    20    55    49   am
    21    55    56    1
    22    46    44    1
    23    49    50    2
    24    52    54    1
    25    52    53    1
    26    61    59    1
    27    59    56    1
    28    59    60    1
    29     3     4    2
    30     3    12   am
    31    40    35   am
    32    56    57    1
    33    57    58    2
    34    12    13    1
    35    38    37    1
    36    79    78    2
    37    35    36    2
    38    35    34    1
    39    76    77    1
    40    78    77    1
    41    37    34    1
    42    37    39    1
    43    77    80    1
    44    15    14    2
    45    13    14    1
    46    13    16    1
    47    34    33    1
    48    14    23   am
    49    16    17    1
    50    23    24    1
    51    24    25    1
    52    74    72   ar
    53    74    75   ar
    54    33    29   am
    55    72    69   ar
    56    62    63    1
    57    75    73   ar
    58    17    18    1
    59    29    30    2
    60    29    28    1
    61    64    63    1
    62    64    65    2
    63    25    26    2
    64    63    66    1
    65    69    67   ar
    66    69    71   ar
    67    18    19    1
    68    66    67    1
    69    73    71   ar
    70    28    31    1
    71    28    27    1
    72    67    68   ar
    73    71    70   ar
    74    31    32    1
    75    19    20    2
    76    68    70   ar
    77    21    20    1
    78    20    22    1
