@<TRIPOS>MOLECULE
tmp/5ysnC00.pdb
 121 114 0 0 0
SMALL
GASTEIGER

@<TRIPOS>ATOM
      1  N        113.0690 -109.6860  -45.7480 N.3   193  ASN193     -0.1240
      2  CA       112.7310 -111.0890  -45.5360 C.3   193  ASN193      0.1653
      3  C        112.6290 -111.7920  -46.8800 C.2   193  ASN193      0.2266
      4  O        111.6590 -111.5700  -47.6180 O.2   193  ASN193     -0.2867
      5  CB       111.4040 -111.2390  -44.7820 C.3   193  ASN193      0.1155
      6  CG       111.4290 -110.5960  -43.4300 C.2   193  ASN193      0.2627
      7  OD1      111.1830 -109.3960  -43.3000 O.2   193  ASN193     -0.2716
      8  ND2      111.7260 -111.3860  -42.4010 N.am  193  ASN193     -0.0877
      9  N        117.0530 -111.3040  -43.9770 N.3   225  LEU225     -0.1245
     10  CA       116.6750 -112.0170  -42.7600 C.3   225  LEU225      0.1561
     11  C        116.4430 -113.4960  -43.0210 C.2   225  LEU225      0.2260
     12  O        115.4460 -114.0930  -42.6140 O.2   225  LEU225     -0.2867
     13  CB       115.4480 -111.3580  -42.1450 C.3   225  LEU225      0.0270
     14  CG       115.6710 -110.0150  -41.4110 C.3   225  LEU225      0.0019
     15  CD1      115.9610 -108.8750  -42.3650 C.3   225  LEU225      0.0001
     16  CD2      114.4640 -109.6660  -40.5400 C.3   225  LEU225      0.0001
     17  N        121.4450 -111.3080  -39.1790 N.3   245  PHE245     -0.1241
     18  CA       120.1780 -111.4840  -38.4830 C.3   245  PHE245      0.1605
     19  C        119.9980 -112.9210  -38.0190 C.2   245  PHE245      0.2264
     20  O        120.4310 -113.8710  -38.6840 O.2   245  PHE245     -0.2867
     21  CB       118.9870 -111.1200  -39.3690 C.3   245  PHE245      0.0534
     22  CG       117.6560 -111.5700  -38.8260 C.ar  245  PHE245     -0.0203
     23  CD1      116.9840 -110.8020  -37.8970 C.ar  245  PHE245     -0.0042
     24  CD2      117.0780 -112.7620  -39.2490 C.ar  245  PHE245     -0.0042
     25  CE1      115.7580 -111.2210  -37.4040 C.ar  245  PHE245     -0.0003
     26  CE2      115.8530 -113.1860  -38.7610 C.ar  245  PHE245     -0.0003
     27  CZ       115.1990 -112.4160  -37.8350 C.ar  245  PHE245     -0.0000
     28  N        116.4900 -114.9380  -35.9790 N.3   247  SER247     -0.1202
     29  CA       115.3490 -115.1660  -35.1040 C.3   247  SER247      0.2020
     30  C        115.7970 -115.9710  -33.8940 C.2   247  SER247      0.2618
     31  O        116.4860 -116.9810  -34.0560 O.2   247  SER247     -0.2717
     32  CB       114.2880 -115.9510  -35.8730 C.3   247  SER247      0.2103
     33  OG       113.0300 -115.8820  -35.2440 O.3   247  SER247     -0.2182
     34  N        115.4220 -115.5570  -32.6850 N.am  248  ILE248     -0.1979
     35  CA       115.8490 -116.2760  -31.4930 C.3   248  ILE248      0.1595
     36  C        114.6360 -116.7050  -30.6730 C.2   248  ILE248      0.2287
     37  O        113.5280 -116.1990  -30.8240 O.2   248  ILE248     -0.2864
     38  CB       116.8180 -115.4560  -30.6260 C.3   248  ILE248      0.0276
     39  CG1      116.1600 -114.1420  -30.2030 C.3   248  ILE248      0.0022
     40  CG2      118.1650 -115.2390  -31.3700 C.3   248  ILE248      0.0022
     41  CD1      117.0920 -113.1830  -29.4960 C.3   248  ILE248      0.0001
     42  N        114.3050 -123.8240  -34.3260 N.3   258  PHE258     -0.1241
     43  CA       114.7920 -122.8920  -35.3380 C.3   258  PHE258      0.1605
     44  C        116.0580 -123.3620  -36.0400 C.2   258  PHE258      0.2264
     45  O        116.4990 -122.6940  -36.9800 O.2   258  PHE258     -0.2867
     46  CB       115.1050 -121.5290  -34.7110 C.3   258  PHE258      0.0534
     47  CG       113.9130 -120.7690  -34.2740 C.ar  258  PHE258     -0.0203
     48  CD1      112.6530 -121.3230  -34.3390 C.ar  258  PHE258     -0.0042
     49  CD2      114.0500 -119.4790  -33.8060 C.ar  258  PHE258     -0.0042
     50  CE1      111.5470 -120.6040  -33.9340 C.ar  258  PHE258     -0.0003
     51  CE2      112.9510 -118.7500  -33.4010 C.ar  258  PHE258     -0.0003
     52  CZ       111.6990 -119.3080  -33.4650 C.ar  258  PHE258     -0.0000
     53  N        115.2920 -110.8390  -33.7830 N.3   287  GLU287     -0.1231
     54  CA       113.8620 -110.6090  -33.6160 C.3   287  GLU287      0.1699
     55  C        113.2950 -111.6570  -32.6760 C.2   287  GLU287      0.2593
     56  O        113.7890 -112.7940  -32.5980 O.2   287  GLU287     -0.2718
     57  CB       113.0940 -110.5960  -34.9500 C.3   287  GLU287      0.0402
     58  CG       112.9810 -109.1690  -35.5220 C.3   287  GLU287      0.1161
     59  CD       112.1740 -109.0610  -36.8270 C.2   287  GLU287      0.3649
     60  OE1      112.0990 -110.0730  -37.5730 O.co2 287  GLU287     -0.2457
     61  OE2      111.6330 -107.9510  -37.1060 O.co2 287  GLU287     -0.2457
     62  N        112.2800 -111.2280  -31.9240 N.am  288  THR288     -0.1939
     63  CA       111.7020 -111.9830  -30.8220 C.3   288  THR288      0.2028
     64  C        110.1870 -111.7980  -30.8980 C.2   288  THR288      0.2643
     65  O        109.6670 -111.1380  -31.8030 O.2   288  THR288     -0.2714
     66  CB       112.2450 -111.4860  -29.4740 C.3   288  THR288      0.1808
     67  OG1      111.7020 -110.1840  -29.2230 O.3   288  THR288     -0.2208
     68  CG2      113.7810 -111.4080  -29.4570 C.3   288  THR288      0.0379
     69  N        109.4590 -112.3210  -29.9180 N.am  289  GLY289     -0.1939
     70  CA       108.0310 -112.0560  -29.8840 C.3   289  GLY289      0.2014
     71  C        107.3030 -113.0780  -29.0550 C.2   289  GLY289      0.2638
     72  O        107.6550 -114.2590  -29.0970 O.2   289  GLY289     -0.2714
     73  N        106.2890 -112.6380  -28.3050 N.am  290  GLN290     -0.1977
     74  CA       105.6330 -113.5110  -27.3360 C.3   290  GLN290      0.1601
     75  C        104.9070 -114.6520  -28.0320 C.2   290  GLN290      0.2287
     76  O        104.2260 -114.4560  -29.0420 O.2   290  GLN290     -0.2864
     77  CB       104.6540 -112.7120  -26.4590 C.3   290  GLN290      0.0394
     78  CG       105.3460 -111.9560  -25.2850 C.3   290  GLN290      0.0908
     79  CD       104.3880 -111.2070  -24.3710 C.2   290  GLN290      0.2608
     80  OE1      103.2810 -111.6760  -24.0920 O.2   290  GLN290     -0.2717
     81  NE2      104.8150 -110.0460  -23.8890 N.am  290  GLN290     -0.0878
     82  N        106.4830 -117.4880  -29.1290 N.3   292  SER292     -0.1217
     83  CA       107.4160 -118.2870  -29.9170 C.3   292  SER292      0.1889
     84  C        107.7680 -119.5840  -29.2060 C.2   292  SER292      0.2288
     85  O        107.6630 -120.6670  -29.7900 O.2   292  SER292     -0.2866
     86  CB       108.6840 -117.4720  -30.2320 C.3   292  SER292      0.2089
     87  OG       109.4240 -117.1830  -29.0570 O.3   292  SER292     -0.2183
     88  N        108.3040 -108.6900  -32.5620 N.3   326  VAL326     -0.1245
     89  CA       107.3530 -108.6030  -33.6560 C.3   326  VAL326      0.1561
     90  C        106.0140 -108.8950  -33.0070 C.2   326  VAL326      0.2260
     91  O        105.5800 -110.0530  -32.9270 O.2   326  VAL326     -0.2867
     92  CB       107.6800 -109.5930  -34.7820 C.3   326  VAL326      0.0252
     93  CG1      107.2280 -109.0310  -36.0970 C.3   326  VAL326      0.0019
     94  CG2      109.1540 -109.8810  -34.8060 C.3   326  VAL326      0.0019
     95  N        102.8570 -110.6850  -34.5030 N.3   329  PHE329     -0.1227
     96  CA       103.1700 -111.3110  -35.7780 C.3   329  PHE329      0.1736
     97  C        102.4770 -112.6480  -35.9850 C.2   329  PHE329      0.2595
     98  O        102.2970 -113.0730  -37.1370 O.2   329  PHE329     -0.2718
     99  CB       104.6720 -111.5290  -35.8940 C.3   329  PHE329      0.0547
    100  CG       105.1210 -111.9350  -37.2720 C.ar  329  PHE329     -0.0202
    101  CD1      105.3480 -110.9830  -38.2450 C.ar  329  PHE329     -0.0042
    102  CD2      105.3330 -113.2660  -37.5810 C.ar  329  PHE329     -0.0042
    103  CE1      105.7750 -111.3380  -39.4860 C.ar  329  PHE329     -0.0003
    104  CE2      105.7490 -113.6300  -38.8370 C.ar  329  PHE329     -0.0003
    105  CZ       105.9730 -112.6600  -39.7900 C.ar  329  PHE329     -0.0000
    106  N        102.0990 -113.3380  -34.9180 N.am  330  ILE330     -0.1980
    107  CA       101.7540 -114.7460  -35.0930 C.3   330  ILE330      0.1595
    108  C        100.2540 -114.9510  -35.1990 C.2   330  ILE330      0.2287
    109  O         99.7610 -115.5140  -36.1850 O.2   330  ILE330     -0.2864
    110  CB       102.3330 -115.6080  -33.9680 C.3   330  ILE330      0.0276
    111  CG1      103.8460 -115.5260  -34.0160 C.3   330  ILE330      0.0022
    112  CG2      101.8930 -117.0280  -34.1450 C.3   330  ILE330      0.0022
    113  CD1      104.4940 -116.2800  -32.8840 C.3   330  ILE330      0.0001
    114  N        104.6860 -111.3740  -46.2730 N.3   402  LEU402     -0.1245
    115  CA       104.5390 -111.9460  -44.9410 C.3   402  LEU402      0.1561
    116  C        103.0920 -111.9810  -44.4690 C.2   402  LEU402      0.2260
    117  O        102.8170 -112.6060  -43.4410 O.2   402  LEU402     -0.2867
    118  CB       105.3870 -111.2000  -43.9210 C.3   402  LEU402      0.0270
    119  CG       106.9050 -111.3560  -44.0390 C.3   402  LEU402      0.0019
    120  CD1      107.6160 -110.4500  -43.0290 C.3   402  LEU402      0.0001
    121  CD2      107.3670 -112.7800  -43.8720 C.3   402  LEU402      0.0001
@<TRIPOS>BOND
     1     4     3    2
     2     3     2    1
     3   114   115    1
     4     1     2    1
     5     2     5    1
     6   115   116    1
     7   115   118    1
     8     5     6    1
     9   116   117    2
    10   119   118    1
    11   119   121    1
    12   119   120    1
    13     9    10    1
    14     6     7    2
    15     6     8   am
    16    11    10    1
    17    11    12    2
    18    10    13    1
    19    15    14    1
    20    13    14    1
    21    14    16    1
    22   105   103   ar
    23   105   104   ar
    24   103   101   ar
    25    21    22    1
    26    21    18    1
    27    24    22   ar
    28    24    26   ar
    29    17    18    1
    30   104   102   ar
    31    22    23   ar
    32    26    27   ar
    33    20    19    2
    34    18    19    1
    35   101   100   ar
    36    23    25   ar
    37    27    25   ar
    38   102   100   ar
    39    60    59   ar
    40   100    99    1
    41    98    97    2
    42    61    59   ar
    43    45    44    2
    44    59    58    1
    45   109   108    2
    46    93    92    1
    47    44    43    1
    48    97    96    1
    49    97   106   am
    50    28    29    1
    51    99    96    1
    52    32    33    1
    53    32    29    1
    54    96    95    1
    55    58    57    1
    56    43    46    1
    57    43    42    1
    58   108   107    1
    59    29    30    1
    60   107   106    1
    61   107   110    1
    62    57    54    1
    63    94    92    1
    64    92    89    1
    65    46    47    1
    66    48    47   ar
    67    48    50   ar
    68    47    49   ar
    69   112   110    1
    70    31    30    2
    71   111   110    1
    72   111   113    1
    73    50    52   ar
    74    30    34   am
    75    49    51   ar
    76    53    54    1
    77    89    90    1
    78    89    88    1
    79    54    55    1
    80    52    51   ar
    81    90    91    2
    82    34    35    1
    83    55    56    2
    84    55    62   am
    85    62    63    1
    86    65    64    2
    87    35    36    1
    88    35    38    1
    89    40    38    1
    90    64    63    1
    91    64    69   am
    92    37    36    2
    93    63    66    1
    94    38    39    1
    95    86    83    1
    96    86    87    1
    97    39    41    1
    98    69    70    1
    99    83    84    1
   100    83    82    1
   101    70    71    1
   102    85    84    2
   103    66    68    1
   104    66    67    1
   105    72    71    2
   106    71    73   am
   107    76    75    2
   108    73    74    1
   109    75    74    1
   110    74    77    1
   111    77    78    1
   112    78    79    1
   113    79    80    2
   114    79    81   am
