@<TRIPOS>MOLECULE
tmp/5ysoA00.pdb
 231 218 0 0 0
SMALL
GASTEIGER

@<TRIPOS>ATOM
      1  N         74.7890   -7.0910  144.0680 N.3    32  LEU32      -0.1245
      2  CA        74.5730   -6.9190  145.5070 C.3    32  LEU32       0.1561
      3  C         75.8870   -6.7870  146.2690 C.2    32  LEU32       0.2260
      4  O         75.9880   -5.9870  147.2080 O.2    32  LEU32      -0.2867
      5  CB        73.7560   -8.0770  146.0760 C.3    32  LEU32       0.0270
      6  CG        72.4180   -8.2700  145.3890 C.3    32  LEU32       0.0019
      7  CD1       71.6580   -9.3860  146.0610 C.3    32  LEU32       0.0001
      8  CD2       71.6370   -6.9500  145.4220 C.3    32  LEU32       0.0001
      9  N         77.1420   -3.1450  145.6040 N.3    35  LEU35      -0.1231
     10  CA        76.3060   -2.2210  146.3700 C.3    35  LEU35       0.1693
     11  C         76.4870   -2.4010  147.8720 C.2    35  LEU35       0.2592
     12  O         76.5230   -1.4150  148.6110 O.2    35  LEU35      -0.2718
     13  CB        74.8410   -2.4040  145.9900 C.3    35  LEU35       0.0284
     14  CG        74.5030   -1.9420  144.5720 C.3    35  LEU35       0.0019
     15  CD1       73.0200   -2.0980  144.2960 C.3    35  LEU35       0.0001
     16  CD2       74.9470   -0.4870  144.3460 C.3    35  LEU35       0.0001
     17  N         76.6020   -3.6460  148.3500 N.am   36  CYS36      -0.1970
     18  CA        76.8710   -3.8510  149.7700 C.3    36  CYS36       0.1712
     19  C         78.2080   -3.2200  150.1570 C.2    36  CYS36       0.2296
     20  O         78.2930   -2.4260  151.1020 O.2    36  CYS36      -0.2864
     21  CB        76.8550   -5.3540  150.1190 C.3    36  CYS36       0.0983
     22  SG        75.1990   -6.1530  150.2630 S.3    36  CYS36      -0.0798
     23  N         79.9450   -0.9320  148.7470 N.3    38  LEU38      -0.1231
     24  CA        79.9530    0.5220  148.6100 C.3    38  LEU38       0.1693
     25  C         79.1330    1.1990  149.7100 C.2    38  LEU38       0.2592
     26  O         79.5800    2.1850  150.3150 O.2    38  LEU38      -0.2718
     27  CB        79.4260    0.8890  147.2330 C.3    38  LEU38       0.0284
     28  CG        78.8390    2.2730  147.0930 C.3    38  LEU38       0.0019
     29  CD1       79.9690    3.2850  147.0830 C.3    38  LEU38       0.0001
     30  CD2       78.0010    2.3570  145.8260 C.3    38  LEU38       0.0001
     31  N         77.9410    0.6710  149.9960 N.am   39  ALA39      -0.1966
     32  CA        77.1130    1.2160  151.0660 C.3    39  ALA39       0.1728
     33  C         77.8540    1.2600  152.3960 C.2    39  ALA39       0.2616
     34  O         77.7700    2.2560  153.1220 O.2    39  ALA39      -0.2715
     35  CB        75.8450    0.3870  151.2020 C.3    39  ALA39       0.0334
     36  N         78.5670    0.1830  152.7510 N.am   40  ASP40      -0.1971
     37  CA        79.2760    0.1700  154.0330 C.3    40  ASP40       0.1709
     38  C         80.3270    1.2670  154.0920 C.2    40  ASP40       0.2293
     39  O         80.4920    1.9300  155.1200 O.2    40  ASP40      -0.2864
     40  CB        79.9290   -1.1910  154.2780 C.3    40  ASP40       0.1436
     41  CG        78.9150   -2.2870  154.5210 C.2    40  ASP40       0.3671
     42  OD1       77.8720   -1.9880  155.1360 O.co2  40  ASP40      -0.2456
     43  OD2       79.1550   -3.4460  154.0990 O.co2  40  ASP40      -0.2456
     44  N         80.1810    4.0730  152.3830 N.3    42  GLU42      -0.1231
     45  CA        79.4520    5.3340  152.4750 C.3    42  GLU42       0.1699
     46  C         78.9380    5.5760  153.8910 C.2    42  GLU42       0.2592
     47  O         79.0020    6.7080  154.3920 O.2    42  GLU42      -0.2718
     48  CB        78.2940    5.3590  151.4840 C.3    42  GLU42       0.0402
     49  CG        78.6880    5.5170  150.0260 C.3    42  GLU42       0.1161
     50  CD        77.4620    5.5890  149.1100 C.2    42  GLU42       0.3649
     51  OE1       76.8210    6.6610  149.0280 O.co2  42  GLU42      -0.2457
     52  OE2       77.1010    4.5520  148.5160 O.co2  42  GLU42      -0.2457
     53  N         78.4420    4.5230  154.5630 N.am   43  LEU43      -0.1980
     54  CA        77.8860    4.7050  155.9060 C.3    43  LEU43       0.1596
     55  C         78.9130    5.3050  156.8680 C.2    43  LEU43       0.2287
     56  O         78.5660    6.1560  157.6990 O.2    43  LEU43      -0.2864
     57  CB        77.3270    3.3850  156.4470 C.3    43  LEU43       0.0297
     58  CG        75.9710    3.0670  155.8170 C.3    43  LEU43       0.0022
     59  CD1       75.4630    1.7110  156.2210 C.3    43  LEU43       0.0001
     60  CD2       74.9450    4.1760  156.1400 C.3    43  LEU43       0.0001
     61  N         69.1570    6.4790  157.3400 N.3    72  TRP72      -0.1227
     62  CA        70.3610    6.1100  156.5920 C.3    72  TRP72       0.1737
     63  C         70.0570    5.7320  155.1340 C.2    72  TRP72       0.2595
     64  O         70.7820    6.1490  154.2220 O.2    72  TRP72      -0.2718
     65  CB        71.1150    4.9920  157.3170 C.3    72  TRP72       0.0564
     66  CG        70.4450    3.6540  157.4110 C.ar   72  TRP72       0.0003
     67  CD1       69.6500    3.2150  158.4220 C.ar   72  TRP72       0.0946
     68  CD2       70.5520    2.5590  156.4820 C.ar   72  TRP72       0.0152
     69  NE1       69.2360    1.9230  158.1760 N.ar   72  TRP72      -0.2442
     70  CE2       69.7720    1.5050  156.9870 C.ar   72  TRP72       0.0810
     71  CE3       71.2110    2.3800  155.2630 C.ar   72  TRP72       0.0012
     72  CZ2       69.6420    0.2850  156.3230 C.ar   72  TRP72       0.0191
     73  CZ3       71.0890    1.1630  154.6070 C.ar   72  TRP72       0.0001
     74  CH2       70.3130    0.1320  155.1370 C.ar   72  TRP72       0.0015
     75  N         68.9820    4.9760  154.8770 N.am   73  MET73      -0.1979
     76  CA        68.6820    4.6100  153.4870 C.3    73  MET73       0.1605
     77  C         68.2360    5.8180  152.6610 C.2    73  MET73       0.2287
     78  O         68.5540    5.9110  151.4690 O.2    73  MET73      -0.2864
     79  CB        67.6150    3.5190  153.4190 C.3    73  MET73       0.0413
     80  CG        67.4280    2.9380  151.9950 C.3    73  MET73       0.0598
     81  SD        68.8400    1.9790  151.4110 S.3    73  MET73      -0.1393
     82  CE        68.5680    0.4210  152.2420 C.3    73  MET73       0.0692
     83  N         71.4190    7.5760  151.6410 N.3    76  LEU76      -0.1231
     84  CA        72.0810    6.8770  150.5440 C.3    76  LEU76       0.1693
     85  C         71.3720    7.1400  149.2150 C.2    76  LEU76       0.2591
     86  O         72.0130    7.4610  148.2070 O.2    76  LEU76      -0.2718
     87  CB        72.1490    5.3800  150.8430 C.3    76  LEU76       0.0284
     88  CG        73.1420    4.9340  151.9270 C.3    76  LEU76       0.0019
     89  CD1       72.8900    3.4720  152.3130 C.3    76  LEU76       0.0001
     90  CD2       74.5730    5.1380  151.4760 C.3    76  LEU76       0.0001
     91  N         70.0420    7.0290  149.2000 N.am   77  ILE77      -0.1980
     92  CA        69.3110    7.1280  147.9440 C.3    77  ILE77       0.1595
     93  C         69.3710    8.5510  147.3940 C.2    77  ILE77       0.2287
     94  O         69.5550    8.7510  146.1880 O.2    77  ILE77      -0.2864
     95  CB        67.8620    6.6410  148.1370 C.3    77  ILE77       0.0276
     96  CG1       67.8270    5.1140  148.0880 C.3    77  ILE77       0.0022
     97  CG2       66.9380    7.2510  147.0680 C.3    77  ILE77       0.0022
     98  CD1       66.6220    4.5120  148.7960 C.3    77  ILE77       0.0001
     99  N         72.5240    8.9890  145.4640 N.3    80  VAL80      -0.1245
    100  CA        72.4340    8.3710  144.1410 C.3    80  VAL80       0.1561
    101  C         71.6240    9.2540  143.2000 C.2    80  VAL80       0.2260
    102  O         71.9750    9.4420  142.0290 O.2    80  VAL80      -0.2867
    103  CB        71.8140    6.9670  144.2480 C.3    80  VAL80       0.0252
    104  CG1       71.2900    6.5200  142.8800 C.3    80  VAL80       0.0019
    105  CG2       72.8090    5.9800  144.8070 C.3    80  VAL80       0.0019
    106  N         73.6460   12.3850  142.0400 N.3    83  ARG83      -0.1245
    107  CA        74.6710   12.0640  141.0520 C.3    83  ARG83       0.1563
    108  C         74.0870   11.6310  139.7150 C.2    83  ARG83       0.2260
    109  O         74.8300   11.5170  138.7400 O.2    83  ARG83      -0.2867
    110  CB        75.6040   10.9780  141.5890 C.3    83  ARG83       0.0307
    111  CG        76.1680   11.2980  142.9800 C.3    83  ARG83       0.0489
    112  CD        77.2510   10.3140  143.4520 C.3    83  ARG83       0.2205
    113  NE        76.7680    8.9980  143.8820 N.pl3  83  ARG83      -0.0865
    114  CZ        76.2100    8.7370  145.0580 C.cat  83  ARG83       0.5346
    115  NH1       76.0440    9.7100  145.9360 N.pl3  83  ARG83       0.1354
    116  NH2       75.8200    7.4970  145.3660 N.pl3  83  ARG83       0.1354
    117  N         75.5150    5.1720  141.0340 N.3    93  TYR93      -0.1241
    118  CA        75.8910    4.7750  142.3990 C.3    93  TYR93       0.1605
    119  C         77.2570    5.3270  142.7870 C.2    93  TYR93       0.2264
    120  O         77.4990    5.6480  143.9570 O.2    93  TYR93      -0.2867
    121  CB        75.9100    3.2450  142.5440 C.3    93  TYR93       0.0534
    122  CG        74.5440    2.5950  142.5430 C.ar   93  TYR93      -0.0201
    123  CD1       74.0650    1.9270  141.4050 C.ar   93  TYR93      -0.0009
    124  CD2       73.7110    2.6720  143.6710 C.ar   93  TYR93      -0.0009
    125  CE1       72.7900    1.3410  141.3940 C.ar   93  TYR93       0.0417
    126  CE2       72.4480    2.0990  143.6760 C.ar   93  TYR93       0.0417
    127  CZ        71.9920    1.4280  142.5340 C.ar   93  TYR93       0.1957
    128  OH        70.7480    0.8470  142.5440 O.3    93  TYR93      -0.2866
    129  N         66.3330   -5.1920  141.0620 N.3   109  LEU109     -0.1245
    130  CA        66.0490   -3.8800  141.6190 C.3   109  LEU109      0.1561
    131  C         65.2170   -3.0040  140.6950 C.2   109  LEU109      0.2260
    132  O         65.1490   -1.7840  140.9040 O.2   109  LEU109     -0.2867
    133  CB        67.3530   -3.1700  141.9610 C.3   109  LEU109      0.0270
    134  CG        68.2400   -3.8900  142.9650 C.3   109  LEU109      0.0019
    135  CD1       69.6840   -3.4170  142.8280 C.3   109  LEU109      0.0001
    136  CD2       67.7080   -3.6310  144.3720 C.3   109  LEU109      0.0001
    137  N         62.2890   -0.7760  142.4390 N.3   112  LEU112     -0.1231
    138  CA        62.9720    0.1990  143.2780 C.3   112  LEU112      0.1693
    139  C         63.5680    1.3360  142.4530 C.2   112  LEU112      0.2592
    140  O         63.2910    2.5230  142.6840 O.2   112  LEU112     -0.2718
    141  CB        64.0810   -0.5120  144.0460 C.3   112  LEU112      0.0284
    142  CG        63.9140   -0.5160  145.5430 C.3   112  LEU112      0.0019
    143  CD1       65.1270   -1.1490  146.1900 C.3   112  LEU112      0.0001
    144  CD2       63.7060    0.9120  146.0000 C.3   112  LEU112      0.0001
    145  N         64.4160    0.9670  141.4900 N.am  113  ASN113     -0.1974
    146  CA        65.1710    1.9400  140.7240 C.3   113  ASN113      0.1688
    147  C         64.2930    2.7270  139.7660 C.2   113  ASN113      0.2292
    148  O         64.6210    3.8690  139.4440 O.2   113  ASN113     -0.2864
    149  CB        66.3000    1.2320  139.9890 C.3   113  ASN113      0.1181
    150  CG        67.4140    0.8630  140.9270 C.2   113  ASN113      0.2629
    151  OD1       67.2970    1.1110  142.1270 O.2   113  ASN113     -0.2716
    152  ND2       68.4950    0.2750  140.4060 N.am  113  ASN113     -0.0877
    153  N         63.1860    5.3680  142.0410 N.3   116  ILE116     -0.1245
    154  CA        64.2940    6.2990  142.2110 C.3   116  ILE116      0.1561
    155  C         64.4770    7.1680  140.9680 C.2   116  ILE116      0.2260
    156  O         64.8290    8.3500  141.0760 O.2   116  ILE116     -0.2867
    157  CB        65.5710    5.5150  142.5540 C.3   116  ILE116      0.0252
    158  CG1       65.4480    4.9280  143.9610 C.3   116  ILE116      0.0019
    159  CG2       66.8230    6.4150  142.3900 C.3   116  ILE116      0.0019
    160  CD1       66.4620    3.8960  144.2460 C.3   116  ILE116      0.0001
    161  N         62.9710    0.2340  150.0040 N.3   198  ALA198     -0.1245
    162  CA        64.3180   -0.3150  149.8710 C.3   198  ALA198      0.1562
    163  C         64.7600   -1.0020  151.1510 C.2   198  ALA198      0.2260
    164  O         65.4440   -2.0260  151.1060 O.2   198  ALA198     -0.2867
    165  CB        65.3170    0.7720  149.4780 C.3   198  ALA198      0.0290
    166  N         63.1530   -4.3710  151.3480 N.3   201  HIS201     -0.1226
    167  CA        63.8970   -5.2830  150.4830 C.3   201  HIS201      0.1752
    168  C         65.2490   -5.6630  151.1020 C.2   201  HIS201      0.2596
    169  O         65.6800   -6.8250  151.0290 O.2   201  HIS201     -0.2718
    170  CB        64.0630   -4.6140  149.1180 C.3   201  HIS201      0.0759
    171  CG        64.6680   -5.4940  148.0760 C.ar  201  HIS201      0.0818
    172  ND1       64.0220   -6.6040  147.5710 N.ar  201  HIS201     -0.2268
    173  CD2       65.8630   -5.4330  147.4440 C.ar  201  HIS201      0.1154
    174  CE1       64.7990   -7.1960  146.6800 C.ar  201  HIS201      0.1986
    175  NE2       65.9250   -6.5080  146.5880 N.ar  201  HIS201     -0.2212
    176  N         65.9220   -4.6920  151.7240 N.am  202  PHE202     -0.1976
    177  CA        67.1200   -4.9680  152.5000 C.3   202  PHE202      0.1639
    178  C         66.9030   -6.1440  153.4500 C.2   202  PHE202      0.2290
    179  O         67.7820   -6.9970  153.6010 O.2   202  PHE202     -0.2864
    180  CB        67.5050   -3.7000  153.2640 C.3   202  PHE202      0.0560
    181  CG        68.6970   -3.8490  154.1730 C.ar  202  PHE202     -0.0200
    182  CD1       69.9810   -3.7050  153.6820 C.ar  202  PHE202     -0.0042
    183  CD2       68.5270   -4.0740  155.5300 C.ar  202  PHE202     -0.0042
    184  CE1       71.0740   -3.8120  154.5170 C.ar  202  PHE202     -0.0003
    185  CE2       69.6180   -4.1700  156.3800 C.ar  202  PHE202     -0.0003
    186  CZ        70.8890   -4.0470  155.8740 C.ar  202  PHE202     -0.0000
    187  N         65.6520   -9.9320  151.5440 N.3   205  ILE205     -0.1245
    188  CA        66.7680  -10.7330  151.0240 C.3   205  ILE205      0.1561
    189  C         67.9340  -10.7740  152.0100 C.2   205  ILE205      0.2260
    190  O         69.0630  -11.1110  151.6340 O.2   205  ILE205     -0.2867
    191  CB        67.2500  -10.2270  149.6490 C.3   205  ILE205      0.0252
    192  CG1       68.0230   -8.9070  149.7760 C.3   205  ILE205      0.0019
    193  CG2       66.0710  -10.0990  148.6820 C.3   205  ILE205      0.0019
    194  CD1       68.2570   -8.2100  148.4640 C.3   205  ILE205      0.0001
    195  N         70.0680   -8.8290  154.0300 N.3   207  LEU207     -0.1231
    196  CA        71.3640   -8.1800  153.8780 C.3   207  LEU207      0.1693
    197  C         71.9010   -7.5950  155.1820 C.2   207  LEU207      0.2592
    198  O         72.9910   -7.0110  155.1760 O.2   207  LEU207     -0.2718
    199  CB        71.2780   -7.0810  152.8170 C.3   207  LEU207      0.0284
    200  CG        71.0140   -7.5330  151.3840 C.3   207  LEU207      0.0019
    201  CD1       71.0110   -6.3280  150.4260 C.3   207  LEU207      0.0001
    202  CD2       72.0580   -8.5860  150.9570 C.3   207  LEU207      0.0001
    203  N         71.1720   -7.7420  156.3000 N.am  208  GLU208     -0.1966
    204  CA        71.5610   -7.0790  157.5480 C.3   208  GLU208      0.1733
    205  C         72.7980   -7.6940  158.1920 C.2   208  GLU208      0.2616
    206  O         73.5140   -6.9980  158.9210 O.2   208  GLU208     -0.2715
    207  CB        70.4140   -7.1060  158.5470 C.3   208  GLU208      0.0429
    208  CG        69.9900   -8.5140  158.9510 C.3   208  GLU208      0.1163
    209  CD        68.9080   -9.0600  158.0420 C.2   208  GLU208      0.3649
    210  OE1       69.0430   -8.9130  156.8070 O.co2 208  GLU208     -0.2457
    211  OE2       67.9210   -9.6230  158.5520 O.co2 208  GLU208     -0.2457
    212  N         73.0600   -8.9820  157.9730 N.am  209  GLY209     -0.1955
    213  CA        74.2080   -9.5890  158.6200 C.3   209  GLY209      0.1869
    214  C         73.9240  -10.0000  160.0590 C.2   209  GLY209      0.2309
    215  O         72.7830  -10.2510  160.4630 O.2   209  GLY209     -0.2863
    216  N         72.0040   -3.0960  163.0400 N.3   213  MET213     -0.1245
    217  CA        72.3750   -1.7460  162.6130 C.3   213  MET213      0.1570
    218  C         72.5870   -0.7990  163.7880 C.2   213  MET213      0.2261
    219  O         73.4790    0.0570  163.7290 O.2   213  MET213     -0.2867
    220  CB        71.3130   -1.1650  161.6730 C.3   213  MET213      0.0387
    221  CG        71.2380   -1.7790  160.2520 C.3   213  MET213      0.0595
    222  SD        72.7290   -1.5260  159.2350 S.3   213  MET213     -0.1393
    223  CE        72.4920    0.1320  158.5800 C.3   213  MET213      0.0692
    224  N         76.0960   -1.0920  165.1150 N.3   216  LEU216     -0.1245
    225  CA        77.0250   -0.5370  164.1310 C.3   216  LEU216      0.1561
    226  C         77.0740    0.9880  164.2210 C.2   216  LEU216      0.2260
    227  O         78.1550    1.5900  164.2230 O.2   216  LEU216     -0.2867
    228  CB        76.6430   -0.9860  162.7200 C.3   216  LEU216      0.0270
    229  CG        76.6720   -2.4920  162.4710 C.3   216  LEU216      0.0019
    230  CD1       76.1380   -2.8410  161.0780 C.3   216  LEU216      0.0001
    231  CD2       78.0970   -3.0190  162.6630 C.3   216  LEU216      0.0001
@<TRIPOS>BOND
     1   109   108    2
     2   148   147    2
     3   108   107    1
     4   147   146    1
     5   149   146    1
     6   149   150    1
     7   152   150   am
     8   131   132    2
     9   131   130    1
    10   146   145    1
    11   150   151    2
    12   155   156    2
    13   155   154    1
    14   117   118    1
    15   107   110    1
    16   107   106    1
    17   129   130    1
    18   125   123   ar
    19   125   127   ar
    20   123   122   ar
    21   145   139   am
    22   110   111    1
    23   130   133    1
    24   133   134    1
    25   102   101    2
    26   153   154    1
    27   154   157    1
    28   159   157    1
    29   118   121    1
    30   118   119    1
    31   137   138    1
    32   139   140    2
    33   139   138    1
    34   127   128    1
    35   127   126   ar
    36   122   121    1
    37   122   124   ar
    38   157   158    1
    39   119   120    2
    40   135   134    1
    41   104   103    1
    42   134   136    1
    43   111   112    1
    44   101   100    1
    45   138   141    1
    46   112   113    1
    47   124   126   ar
    48   113   114    2
    49   158   160    1
    50   141   142    1
    51     1     2    1
    52   100   103    1
    53   100    99    1
    54   103   105    1
    55    15    14    1
    56    16    14    1
    57    14    13    1
    58   114   116    1
    59   114   115    1
    60     6     8    1
    61     6     7    1
    62     6     5    1
    63     2     5    1
    64     2     3    1
    65   142   144    1
    66   142   143    1
    67     9    10    1
    68    30    28    1
    69    13    10    1
    70    94    93    2
    71     3     4    2
    72    10    11    1
    73   175   174   ar
    74   175   173   ar
    75   174   172   ar
    76    97    95    1
    77    29    28    1
    78    28    27    1
    79    27    24    1
    80    93    92    1
    81   173   171   ar
    82   172   171   ar
    83    11    17   am
    84    11    12    2
    85    92    95    1
    86    92    91    1
    87   171   170    1
    88    96    95    1
    89    96    98    1
    90    86    85    2
    91    17    18    1
    92   194   192    1
    93    52    50   ar
    94    24    23    1
    95    24    25    1
    96   193   191    1
    97    51    50   ar
    98    50    49    1
    99   170   167    1
   100    91    85   am
   101    85    84    1
   102   165   162    1
   103   191   192    1
   104   191   188    1
   105    25    31   am
   106    25    26    2
   107    18    21    1
   108    18    19    1
   109   162   161    1
   110   162   163    1
   111    31    32    1
   112    49    48    1
   113    21    22    1
   114    19    20    2
   115   201   200    1
   116   167   168    1
   117   167   166    1
   118    84    87    1
   119    84    83    1
   120    87    88    1
   121   202   200    1
   122   188   187    1
   123   188   189    1
   124   169   168    2
   125    32    35    1
   126    32    33    1
   127   168   176   am
   128   164   163    2
   129   200   199    1
   130    81    80    1
   131    81    82    1
   132    78    77    2
   133    90    88    1
   134    48    45    1
   135   190   189    2
   136   176   177    1
   137    88    89    1
   138    80    79    1
   139    44    45    1
   140    33    36   am
   141    33    34    2
   142    45    46    1
   143   177   180    1
   144   177   178    1
   145    77    76    1
   146    36    37    1
   147   199   196    1
   148   180   181    1
   149    79    76    1
   150   178   179    2
   151    76    75    1
   152   182   181   ar
   153   182   184   ar
   154   196   195    1
   155   196   197    1
   156    46    47    2
   157    46    53   am
   158    37    38    1
   159    37    40    1
   160    38    39    2
   161    43    41   ar
   162   181   183   ar
   163    64    63    2
   164    40    41    1
   165   184   186   ar
   166    41    42   ar
   167    53    54    1
   168    73    74   ar
   169    73    71   ar
   170    75    63   am
   171    63    62    1
   172    74    72   ar
   173   198   197    2
   174   197   203   am
   175    71    68   ar
   176   183   185   ar
   177    58    60    1
   178    58    59    1
   179    58    57    1
   180   186   185   ar
   181    54    57    1
   182    54    55    1
   183   203   204    1
   184    72    70   ar
   185    68    70   ar
   186    68    66   ar
   187    62    65    1
   188    62    61    1
   189   210   209   ar
   190    55    56    2
   191    70    69   ar
   192    65    66    1
   193    66    67   ar
   194   204   205    1
   195   204   207    1
   196   212   205   am
   197   212   213    1
   198   209   211   ar
   199   209   208    1
   200    69    67   ar
   201   205   206    2
   202   207   208    1
   203   223   222    1
   204   213   214    1
   205   222   221    1
   206   214   215    2
   207   221   220    1
   208   230   229    1
   209   220   217    1
   210   229   231    1
   211   229   228    1
   212   217   216    1
   213   217   218    1
   214   228   225    1
   215   219   218    2
   216   225   226    1
   217   225   224    1
   218   226   227    2
