@<TRIPOS>MOLECULE
tmp/5yspA01.pdb
 106 98 0 0 0
SMALL
GASTEIGER

@<TRIPOS>ATOM
      1  N          2.1180   16.9210   35.8790 N.3    81  ARG81      -0.1245
      2  CA         1.3950   15.6470   35.7270 C.3    81  ARG81       0.1563
      3  C          1.0630   14.9450   37.0670 C.2    81  ARG81       0.2260
      4  O          1.4480   13.7880   37.2520 O.2    81  ARG81      -0.2867
      5  CB         2.2360   14.7240   34.8290 C.3    81  ARG81       0.0307
      6  CG         2.1180   15.1630   33.3930 C.3    81  ARG81       0.0489
      7  CD         0.8260   14.6970   32.7610 C.3    81  ARG81       0.2205
      8  NE         0.5880   13.2670   32.8890 N.pl3  81  ARG81      -0.0865
      9  CZ        -0.4650   12.7350   33.5120 C.cat  81  ARG81       0.5346
     10  NH1       -1.3870   13.5050   34.1000 N.pl3  81  ARG81       0.1354
     11  NH2       -0.5550   11.3940   33.5660 N.pl3  81  ARG81       0.1354
     12  N         -1.2020   -3.0000   32.4590 N.3   133  ASP133     -0.1239
     13  CA        -0.6540   -1.6650   32.5340 C.3   133  ASP133      0.1674
     14  C         -0.0230   -1.4040   33.9090 C.2   133  ASP133      0.2266
     15  O         -0.6740   -1.5520   34.9290 O.2   133  ASP133     -0.2867
     16  CB        -1.7610   -0.6370   32.2820 C.3   133  ASP133      0.1410
     17  CG        -1.2140    0.7260   31.9420 C.2   133  ASP133      0.3668
     18  OD1       -0.4890    1.2810   32.7570 O.co2 133  ASP133     -0.2456
     19  OD2       -1.4910    1.2510   30.8410 O.co2 133  ASP133     -0.2456
     20  N          0.5780    1.2490   35.5140 N.3   135  GLN135     -0.1245
     21  CA        -0.1470    2.2350   36.3180 C.3   135  GLN135      0.1566
     22  C         -0.8870    1.5620   37.4830 C.2   135  GLN135      0.2260
     23  O         -0.8870    2.0520   38.6140 O.2   135  GLN135     -0.2867
     24  CB        -1.1330    2.9930   35.4660 C.3   135  GLN135      0.0367
     25  CG        -1.9150    3.9950   36.2820 C.3   135  GLN135      0.0905
     26  CD        -2.7290    4.8710   35.4050 C.2   135  GLN135      0.2608
     27  OE1       -2.2890    5.9550   35.0780 O.2   135  GLN135     -0.2717
     28  NE2       -3.8550    4.3850   34.9580 N.am  135  GLN135     -0.0878
     29  N          2.7840   -2.8510   29.8470 N.3   165  LYS165     -0.1245
     30  CA         2.7750   -1.4710   29.3920 C.3   165  LYS165      0.1561
     31  C          3.3230   -0.5090   30.4690 C.2   165  LYS165      0.2260
     32  O          2.8860   -0.5290   31.5970 O.2   165  LYS165     -0.2867
     33  CB         1.3400   -1.0690   29.0050 C.3   165  LYS165      0.0271
     34  CG         1.0870    0.4200   28.8770 C.3   165  LYS165      0.0035
     35  CD         1.7850    1.0250   27.6930 C.3   165  LYS165      0.0206
     36  CE         1.3940    2.4800   27.4770 C.3   165  LYS165      0.1093
     37  NZ         1.9210    3.4010   28.5170 N.3   165  LYS165     -0.1314
     38  N          4.9490    3.7250   31.0210 N.3   167  ASP167     -0.1239
     39  CA         5.4190    5.0070   30.5080 C.3   167  ASP167      0.1674
     40  C          6.7380    5.3550   31.2030 C.2   167  ASP167      0.2266
     41  O          7.2260    4.5630   32.0030 O.2   167  ASP167     -0.2867
     42  CB         4.3600    6.0800   30.6190 C.3   167  ASP167      0.1410
     43  CG         4.0470    6.5000   32.0380 C.2   167  ASP167      0.3668
     44  OD1        4.7100    6.0890   33.0280 O.co2 167  ASP167     -0.2456
     45  OD2        3.0660    7.2710   32.1410 O.co2 167  ASP167     -0.2456
     46  N          6.6300    5.3710   35.1430 N.3   170  GLU170     -0.1245
     47  CA         6.4310    4.0180   35.6930 C.3   170  GLU170      0.1567
     48  C          7.6940    3.1640   35.5370 C.2   170  GLU170      0.2260
     49  O          8.0670    2.4270   36.4560 O.2   170  GLU170     -0.2867
     50  CB         5.2720    3.2940   35.0150 C.3   170  GLU170      0.0388
     51  CG         3.9180    3.9200   35.3570 C.3   170  GLU170      0.1160
     52  CD         2.8470    3.8320   34.2760 C.2   170  GLU170      0.3649
     53  OE1        3.0560    3.2260   33.2030 O.co2 170  GLU170     -0.2457
     54  OE2        1.7510    4.3970   34.5190 O.co2 170  GLU170     -0.2457
     55  N          5.6710    3.9330   26.2710 N.3   198  THR198     -0.1218
     56  CA         5.3650    5.1880   25.6340 C.3   198  THR198      0.1862
     57  C          6.1510    6.2930   26.3290 C.2   198  THR198      0.2287
     58  O          6.4360    6.2330   27.5220 O.2   198  THR198     -0.2866
     59  CB         3.8380    5.4520   25.6090 C.3   198  THR198      0.1770
     60  OG1        3.2780    5.3390   26.9280 O.3   198  THR198     -0.2211
     61  CG2        3.1460    4.4650   24.7140 C.3   198  THR198      0.0375
     62  N         -3.1260   14.2760   25.0190 N.3   223  ARG223     -0.1231
     63  CA        -2.1270   13.3430   25.5610 C.3   223  ARG223      0.1694
     64  C         -2.7190   12.2930   26.5310 C.2   223  ARG223      0.2593
     65  O         -2.2710   11.1570   26.5330 O.2   223  ARG223     -0.2718
     66  CB        -0.9580   14.1220   26.1910 C.3   223  ARG223      0.0321
     67  CG         0.2720   13.2430   26.3990 C.3   223  ARG223      0.0489
     68  CD         1.5080   14.0920   26.7180 C.3   223  ARG223      0.2205
     69  NE         1.4180   14.5830   28.1090 N.pl3 223  ARG223     -0.0865
     70  CZ         2.4970   15.1530   28.6910 C.cat 223  ARG223      0.5346
     71  NH1        3.6310   15.2740   27.9910 N.pl3 223  ARG223      0.1354
     72  NH2        2.4170   15.6000   29.9300 N.pl3 223  ARG223      0.1354
     73  N         -3.7390   12.6550   27.3050 N.am  224  THR224     -0.1939
     74  CA        -4.3850   11.6940   28.2200 C.3   224  THR224      0.2028
     75  C         -4.9860   10.5530   27.4100 C.2   224  THR224      0.2643
     76  O         -5.6660   10.7790   26.4120 O.2   224  THR224     -0.2714
     77  CB        -5.4770   12.3220   29.1000 C.3   224  THR224      0.1808
     78  OG1       -4.9210   13.3380   29.9320 O.3   224  THR224     -0.2208
     79  CG2       -6.0830   11.2630   30.0080 C.3   224  THR224      0.0379
     80  N         -4.6730    9.3240   27.8010 N.am  225  GLY225     -0.1939
     81  CA        -5.0430    8.1610   27.0090 C.3   225  GLY225      0.2014
     82  C         -4.1720    7.7700   25.8300 C.2   225  GLY225      0.2639
     83  O         -4.4940    6.8000   25.1360 O.2   225  GLY225     -0.2714
     84  N         -3.0570    8.4820   25.6320 N.am  226  ARG226     -0.1963
     85  CA        -2.0000    8.1170   24.6920 C.3   226  ARG226      0.1729
     86  C         -1.5960    6.6660   24.8610 C.2   226  ARG226      0.2617
     87  O         -1.6240    5.8980   23.9060 O.2   226  ARG226     -0.2715
     88  CB        -0.7690    9.0340   24.9190 C.3   226  ARG226      0.0348
     89  CG         0.4900    8.6540   24.1700 C.3   226  ARG226      0.0492
     90  CD         1.6280    9.5770   24.5810 C.3   226  ARG226      0.2205
     91  NE         2.1660    9.2330   25.8880 N.pl3 226  ARG226     -0.0865
     92  CZ         3.1220    9.9230   26.5070 C.cat 226  ARG226      0.5346
     93  NH1        3.6400   11.0010   25.9460 N.pl3 226  ARG226      0.1354
     94  NH2        3.5700    9.5300   27.6920 N.pl3 226  ARG226      0.1354
     95  N         -1.2470    6.3070   26.0900 N.am  227  GLY227     -0.1940
     96  CA        -0.6790    4.9940   26.3650 C.3   227  GLY227      0.2014
     97  C         -1.7210    3.9010   26.1890 C.2   227  GLY227      0.2638
     98  O         -1.4470    2.8620   25.6000 O.2   227  GLY227     -0.2714
     99  N         -2.9210    4.1590   26.6920 N.am  228  ASP228     -0.1971
    100  CA        -4.0170    3.1810   26.5700 C.3   228  ASP228      0.1709
    101  C         -4.4250    2.9420   25.1480 C.2   228  ASP228      0.2293
    102  O         -4.6380    1.7900   24.7410 O.2   228  ASP228     -0.2864
    103  CB        -5.1850    3.6030   27.4520 C.3   228  ASP228      0.1436
    104  CG        -4.8230    3.4790   28.9140 C.2   228  ASP228      0.3671
    105  OD1       -4.2020    2.4670   29.3060 O.co2 228  ASP228     -0.2456
    106  OD2       -5.0430    4.4090   29.6600 O.co2 228  ASP228     -0.2456
@<TRIPOS>BOND
     1    87    86    2
     2    89    90    1
     3    89    88    1
     4    90    91    1
     5    85    86    1
     6    85    88    1
     7    85    84    1
     8    61    59    1
     9   102   101    2
    10    86    95   am
    11    62    63    1
    12    83    82    2
    13   101   100    1
    14    63    66    1
    15    63    64    1
    16    98    97    2
    17    59    56    1
    18    59    60    1
    19    84    82   am
    20    56    55    1
    21    56    57    1
    22    82    81    1
    23    91    92    2
    24    93    92    1
    25    95    96    1
    26    97    96    1
    27    97    99   am
    28    66    67    1
    29    57    58    2
    30    67    68    1
    31    76    75    2
    32    92    94    1
    33    64    65    2
    34    64    73   am
    35   100    99    1
    36   100   103    1
    37    68    69    1
    38    81    80    1
    39    73    74    1
    40    75    80   am
    41    75    74    1
    42   103   104    1
    43    36    35    1
    44    36    37    1
    45    35    34    1
    46    71    70    1
    47    69    70    2
    48    74    77    1
    49    70    72    1
    50    34    33    1
    51   104   105   ar
    52   104   106   ar
    53    33    30    1
    54    77    78    1
    55    77    79    1
    56    30    29    1
    57    30    31    1
    58    31    32    2
    59    39    42    1
    60    39    38    1
    61    39    40    1
    62    42    43    1
    63    19    17   ar
    64    40    41    2
    65    17    16    1
    66    17    18   ar
    67    43    45   ar
    68    43    44   ar
    69    16    13    1
    70    12    13    1
    71    13    14    1
    72     7     8    1
    73     7     6    1
    74     8     9    2
    75    53    52   ar
    76     6     5    1
    77     9    11    1
    78     9    10    1
    79    14    15    2
    80    52    54   ar
    81    52    51    1
    82     5     2    1
    83    28    26   am
    84    50    51    1
    85    50    47    1
    86    27    26    2
    87    46    47    1
    88    26    25    1
    89    24    25    1
    90    24    21    1
    91    20    21    1
    92    48    47    1
    93    48    49    2
    94     2     1    1
    95     2     3    1
    96    21    22    1
    97     3     4    2
    98    22    23    2
