@<TRIPOS>MOLECULE
tmp/5ysqB00.pdb
 99 87 0 0 0
SMALL
GASTEIGER

@<TRIPOS>ATOM
      1  N        -17.1750  -27.7640    1.4590 N.3     9  SER9       -0.1217
      2  CA       -17.3730  -26.3720    1.0400 C.3     9  SER9        0.1889
      3  C        -16.3000  -25.8910    0.0610 C.2     9  SER9        0.2288
      4  O        -15.1470  -26.1740    0.1880 O.2     9  SER9       -0.2866
      5  CB       -17.3820  -25.4610    2.2770 C.3     9  SER9        0.2089
      6  OG       -17.7030  -24.0880    1.9270 O.3     9  SER9       -0.2183
      7  N        -14.5430  -22.7660   -0.3210 N.3    11  ASP11      -0.1239
      8  CA       -14.2870  -21.4980    0.3980 C.3    11  ASP11       0.1674
      9  C        -13.5440  -20.5070   -0.4770 C.2    11  ASP11       0.2266
     10  O        -12.6390  -20.8570   -1.2240 O.2    11  ASP11      -0.2867
     11  CB       -13.4850  -21.8100    1.6720 C.3    11  ASP11       0.1410
     12  CG       -14.2690  -22.6330    2.6730 C.2    11  ASP11       0.3668
     13  OD1      -15.5300  -22.5220    2.6980 O.co2  11  ASP11      -0.2456
     14  OD2      -13.6360  -23.4160    3.4840 O.co2  11  ASP11      -0.2456
     15  N        -11.7230  -27.2580    4.0490 N.3    25  GLY25      -0.1210
     16  CA       -12.4390  -26.8770    5.2450 C.3    25  GLY25       0.1956
     17  C        -13.6860  -27.7260    5.3830 C.2    25  GLY25       0.2612
     18  O        -13.7900  -28.8330    4.8820 O.2    25  GLY25      -0.2717
     19  N        -14.6470  -27.1950    6.1050 N.am   26  GLY26      -0.1956
     20  CA       -15.8630  -27.9220    6.3580 C.3    26  GLY26       0.1869
     21  C        -15.5800  -29.2570    7.0420 C.2    26  GLY26       0.2309
     22  O        -14.7080  -29.3810    7.8920 O.2    26  GLY26      -0.2863
     23  N        -11.6260  -31.1460    7.4660 N.3    29  MET29      -0.1245
     24  CA       -10.6220  -30.9200    8.4980 C.3    29  MET29       0.1570
     25  C        -10.6100  -32.0350    9.5270 C.2    29  MET29       0.2261
     26  O         -9.5590  -32.5500    9.8510 O.2    29  MET29      -0.2867
     27  CB       -10.8870  -29.6210    9.2540 C.3    29  MET29       0.0387
     28  CG       -10.4620  -28.4070    8.4850 C.3    29  MET29       0.0595
     29  SD        -8.6700  -28.1360    8.5660 S.3    29  MET29      -0.1393
     30  CE        -8.6440  -26.7280    7.4410 C.3    29  MET29       0.0692
     31  N        -18.6020  -20.7170    0.7620 N.3    76  ILE76      -0.1245
     32  CA       -18.5360  -19.6760    1.7800 C.3    76  ILE76       0.1561
     33  C        -17.4450  -18.6990    1.4350 C.2    76  ILE76       0.2260
     34  O        -16.3530  -19.0880    1.0550 O.2    76  ILE76      -0.2867
     35  CB       -18.3390  -20.2620    3.1920 C.3    76  ILE76       0.0252
     36  CG1      -19.5580  -21.1120    3.5250 C.3    76  ILE76       0.0019
     37  CG2      -18.0850  -19.2020    4.2840 C.3    76  ILE76       0.0019
     38  CD1      -19.3630  -21.9950    4.7070 C.3    76  ILE76       0.0001
     39  N        -15.0880  -15.9800    3.2250 N.3    78  ASN78      -0.1240
     40  CA       -14.5970  -15.5930    4.5470 C.3    78  ASN78       0.1653
     41  C        -13.7890  -14.3510    4.3590 C.2    78  ASN78       0.2266
     42  O        -12.7460  -14.3730    3.7240 O.2    78  ASN78      -0.2867
     43  CB       -13.7460  -16.7120    5.1500 C.3    78  ASN78       0.1155
     44  CG       -14.5410  -17.9650    5.4200 C.2    78  ASN78       0.2627
     45  OD1      -15.4950  -17.9560    6.2420 O.2    78  ASN78      -0.2716
     46  ND2      -14.1990  -19.0390    4.7210 N.am   78  ASN78      -0.0877
     47  N        -18.4660  -13.8790    7.4560 N.3    89  SER89      -0.1217
     48  CA       -18.5700  -14.9900    6.5270 C.3    89  SER89       0.1889
     49  C        -19.9160  -14.9180    5.8420 C.2    89  SER89       0.2288
     50  O        -20.9040  -14.4800    6.4670 O.2    89  SER89      -0.2866
     51  CB       -18.4120  -16.2660    7.2640 C.3    89  SER89       0.2089
     52  OG       -17.0840  -16.4640    7.7270 O.3    89  SER89      -0.2183
     53  N        -21.8350  -26.5350    8.8440 N.3   116  LEU116     -0.1245
     54  CA       -21.3790  -25.1750    8.5780 C.3   116  LEU116      0.1561
     55  C        -22.4090  -24.1210    8.9200 C.2   116  LEU116      0.2260
     56  O        -22.0460  -22.9340    9.1740 O.2   116  LEU116     -0.2867
     57  CB       -20.9740  -25.0540    7.1100 C.3   116  LEU116      0.0270
     58  CG       -19.6120  -25.7220    6.8480 C.3   116  LEU116      0.0019
     59  CD1      -19.4480  -26.0100    5.3940 C.3   116  LEU116      0.0001
     60  CD2      -18.4070  -24.9210    7.3540 C.3   116  LEU116      0.0001
     61  N        -21.2680  -24.7030   15.8410 N.3   141  GLN141     -0.1245
     62  CA       -21.3680  -23.8790   14.6120 C.3   141  GLN141      0.1566
     63  C        -22.6390  -24.2050   13.8290 C.2   141  GLN141      0.2260
     64  O        -23.2890  -23.3010   13.2520 O.2   141  GLN141     -0.2867
     65  CB       -20.1740  -24.1090   13.7210 C.3   141  GLN141      0.0367
     66  CG       -20.1710  -23.2590   12.4460 C.3   141  GLN141      0.0905
     67  CD       -18.9180  -23.4770   11.7070 C.2   141  GLN141      0.2608
     68  OE1      -18.0760  -22.5780   11.7020 O.2   141  GLN141     -0.2717
     69  NE2      -18.7480  -24.6570   11.0740 N.am  141  GLN141     -0.0878
     70  N        -24.8200  -20.6870   13.9500 N.3   145  ARG145     -0.1245
     71  CA       -24.3410  -19.7920   12.8740 C.3   145  ARG145      0.1563
     72  C        -25.3950  -19.8960   11.7890 C.2   145  ARG145      0.2260
     73  O        -25.4970  -20.9180   11.1390 O.2   145  ARG145     -0.2867
     74  CB       -22.9520  -20.2020   12.3810 C.3   145  ARG145      0.0307
     75  CG       -22.3600  -19.0810   11.5340 C.3   145  ARG145      0.0489
     76  CD       -20.9280  -19.2330   11.1190 C.3   145  ARG145      0.2205
     77  NE       -20.7310  -20.3760   10.2500 N.pl3 145  ARG145     -0.0865
     78  CZ       -19.6480  -20.5800    9.5210 C.cat 145  ARG145      0.5346
     79  NH1      -18.6310  -19.7410    9.4900 N.pl3 145  ARG145      0.1354
     80  NH2      -19.5720  -21.6410    8.7550 N.pl3 145  ARG145      0.1354
     81  N         -7.9420  -21.5120   10.6190 N.3   230  THR230     -0.1203
     82  CA        -9.2120  -22.0620   10.2210 C.3   230  THR230      0.1994
     83  C         -9.1220  -23.5970   10.2280 C.2   230  THR230      0.2618
     84  O         -8.1220  -24.1710    9.8110 O.2   230  THR230     -0.2717
     85  CB        -9.7130  -21.4980    8.8830 C.3   230  THR230      0.1784
     86  OG1      -11.0180  -22.0050    8.6530 O.3   230  THR230     -0.2211
     87  CG2       -8.8510  -21.9010    7.7410 C.3   230  THR230      0.0376
     88  N        -10.1460  -24.2340   10.7610 N.am  231  GLY231     -0.1956
     89  CA       -10.1240  -25.6530   10.9910 C.3   231  GLY231      0.1869
     90  C         -9.5490  -26.0960   12.3390 C.2   231  GLY231      0.2309
     91  O         -9.5190  -27.2840   12.6290 O.2   231  GLY231     -0.2863
     92  N        -12.2450  -28.1110   14.4470 N.3   234  ASP234     -0.1239
     93  CA       -12.5840  -29.4130   13.8940 C.3   234  ASP234      0.1674
     94  C        -11.3930  -30.3450   13.9690 C.2   234  ASP234      0.2266
     95  O        -11.5720  -31.5100   14.3180 O.2   234  ASP234     -0.2867
     96  CB       -13.1610  -29.2750   12.4680 C.3   234  ASP234      0.1410
     97  CG       -14.6740  -28.8780   12.4910 C.2   234  ASP234      0.3668
     98  OD1      -15.4080  -29.2170   13.4730 O.co2 234  ASP234     -0.2456
     99  OD2      -15.1220  -28.2260   11.5820 O.co2 234  ASP234     -0.2456
@<TRIPOS>BOND
     1    10     9    2
     2     9     8    1
     3     7     8    1
     4     3     4    2
     5     3     2    1
     6     8    11    1
     7    31    32    1
     8     2     1    1
     9     2     5    1
    10    34    33    2
    11    33    32    1
    12    11    12    1
    13    32    35    1
    14     6     5    1
    15    12    13   ar
    16    12    14   ar
    17    35    36    1
    18    35    37    1
    19    39    40    1
    20    36    38    1
    21    42    41    2
    22    15    16    1
    23    41    40    1
    24    40    43    1
    25    46    44   am
    26    18    17    2
    27    43    44    1
    28    16    17    1
    29    17    19   am
    30    59    58    1
    31    44    45    2
    32    49    50    2
    33    49    48    1
    34    19    20    1
    35    20    21    1
    36    48    51    1
    37    48    47    1
    38    58    57    1
    39    58    60    1
    40    21    22    2
    41    57    54    1
    42    51    52    1
    43    30    29    1
    44    23    24    1
    45    87    85    1
    46    28    29    1
    47    28    27    1
    48    24    27    1
    49    24    25    1
    50    54    53    1
    51    54    55    1
    52    86    85    1
    53    80    78    1
    54    85    82    1
    55    55    56    2
    56    79    78    1
    57    78    77    2
    58    25    26    2
    59    84    83    2
    60    82    83    1
    61    82    81    1
    62    83    88   am
    63    77    76    1
    64    88    89    1
    65    89    90    1
    66    69    67   am
    67    76    75    1
    68    73    72    2
    69    75    74    1
    70    99    97   ar
    71    68    67    2
    72    67    66    1
    73    72    71    1
    74    90    91    2
    75    74    71    1
    76    66    65    1
    77    96    97    1
    78    96    93    1
    79    97    98   ar
    80    71    70    1
    81    64    63    2
    82    65    62    1
    83    63    62    1
    84    93    94    1
    85    93    92    1
    86    94    95    2
    87    62    61    1
