@<TRIPOS>MOLECULE
tmp/5yswA01.pdb
 155 148 0 0 0
SMALL
GASTEIGER

@<TRIPOS>ATOM
      1  N         87.4730   65.9350  277.4430 N.3    55  SER55      -0.1217
      2  CA        88.5320   66.0080  276.4480 C.3    55  SER55       0.1889
      3  C         89.7940   66.5680  277.0730 C.2    55  SER55       0.2288
      4  O         90.8010   66.7280  276.3980 O.2    55  SER55      -0.2866
      5  CB        88.1080   66.8600  275.2760 C.3    55  SER55       0.2089
      6  OG        87.7670   66.0350  274.1930 O.3    55  SER55      -0.2183
      7  N         92.7670   65.9550  279.2820 N.3    57  ARG57      -0.1245
      8  CA        93.5820   64.8960  279.8770 C.3    57  ARG57       0.1563
      9  C         94.0360   65.2700  281.2920 C.2    57  ARG57       0.2260
     10  O         94.0530   64.4280  282.1830 O.2    57  ARG57      -0.2867
     11  CB        94.7940   64.5710  279.0030 C.3    57  ARG57       0.0307
     12  CG        95.6660   63.5230  279.6790 C.3    57  ARG57       0.0489
     13  CD        96.7960   63.0800  278.7720 C.3    57  ARG57       0.2205
     14  NE        96.2440   62.6040  277.5060 N.pl3  57  ARG57      -0.0865
     15  CZ        97.0650   62.3230  276.5130 C.cat  57  ARG57       0.5346
     16  NH1       98.3740   62.4820  276.6770 N.pl3  57  ARG57       0.1354
     17  NH2       96.5930   61.9000  275.3490 N.pl3  57  ARG57       0.1354
     18  N         93.0060   76.4830  272.1910 N.3    64  SER64      -0.1217
     19  CA        93.1700   75.1750  271.5660 C.3    64  SER64       0.1889
     20  C         91.9970   74.3140  272.0120 C.2    64  SER64       0.2288
     21  O         92.0530   73.6350  273.0340 O.2    64  SER64      -0.2866
     22  CB        94.4920   74.5490  272.0160 C.3    64  SER64       0.2089
     23  OG        94.9690   73.5940  271.0870 O.3    64  SER64      -0.2183
     24  N         90.3200   71.7530  271.0880 N.3    66  ILE66      -0.1231
     25  CA        90.2000   70.3040  271.0140 C.3    66  ILE66       0.1692
     26  C         90.4290   69.5680  272.3400 C.2    66  ILE66       0.2592
     27  O         90.0780   68.4070  272.4480 O.2    66  ILE66      -0.2718
     28  CB        91.0960   69.7370  269.9280 C.3    66  ILE66       0.0266
     29  CG1       90.7700   68.2670  269.6690 C.3    66  ILE66       0.0019
     30  CG2       92.5870   69.8800  270.2830 C.3    66  ILE66       0.0020
     31  CD1       91.3560   67.7170  268.3740 C.3    66  ILE66       0.0001
     32  N         91.0030   70.2350  273.3360 N.am   67  ASN67      -0.1974
     33  CA        91.1420   69.6650  274.6790 C.3    67  ASN67       0.1688
     34  C         90.3750   70.4550  275.6780 C.2    67  ASN67       0.2292
     35  O         90.7810   70.5980  276.8240 O.2    67  ASN67      -0.2864
     36  CB        92.6020   69.5620  275.1630 C.3    67  ASN67       0.1181
     37  CG        93.5810   70.3330  274.2910 C.2    67  ASN67       0.2629
     38  OD1       93.1910   70.9450  273.2920 O.2    67  ASN67      -0.2716
     39  ND2       94.8550   70.3330  274.6820 N.am   67  ASN67      -0.0877
     40  N        104.2420   63.5370  266.2270 N.3   154  ASN154     -0.1225
     41  CA       103.2420   64.5060  266.6930 C.3   154  ASN154      0.1785
     42  C        103.5940   65.3400  267.9480 C.2   154  ASN154      0.2597
     43  O        104.1960   64.8420  268.9040 O.2   154  ASN154     -0.2718
     44  CB       101.9230   63.7620  266.9150 C.3   154  ASN154      0.1169
     45  CG       100.7230   64.4690  266.3670 C.2   154  ASN154      0.2627
     46  OD1      100.8680   65.4120  265.5820 O.2   154  ASN154     -0.2716
     47  ND2       99.5370   63.9630  266.7210 N.am  154  ASN154     -0.0877
     48  N        103.1690   66.6010  267.9710 N.am  155  ALA155     -0.1966
     49  CA       103.5970   67.4940  269.0460 C.3   155  ALA155      0.1713
     50  C        102.6390   68.6630  269.3900 C.2   155  ALA155      0.2458
     51  O        102.2330   69.4200  268.4850 O.2   155  ALA155     -0.2730
     52  CB       104.9750   68.0450  268.7000 C.3   155  ALA155      0.0333
     53  N        102.2810   68.8340  270.7050 N.am  156  PRO156     -0.2727
     54  CA       101.8690   70.1750  271.0590 C.3   156  PRO156      0.1402
     55  C        103.0350   70.8340  271.8330 C.2   156  PRO156      0.2269
     56  O        103.6680   70.1730  272.6450 O.2   156  PRO156     -0.2865
     57  CB       100.6780   69.9210  271.9800 C.3   156  PRO156      0.0296
     58  CG       101.1080   68.7190  272.7520 C.3   156  PRO156      0.0237
     59  CD       102.0960   67.9500  271.8810 C.3   156  PRO156      0.0939
     60  N         97.5230   71.3930  262.0890 N.3   211  ILE211     -0.1245
     61  CA        97.8100   70.1210  262.7180 C.3   211  ILE211      0.1561
     62  C         96.6910   69.1190  262.4940 C.2   211  ILE211      0.2260
     63  O         96.9360   68.0060  262.1370 O.2   211  ILE211     -0.2867
     64  CB        98.0590   70.3450  264.2460 C.3   211  ILE211      0.0252
     65  CG1       99.4610   70.9020  264.4620 C.3   211  ILE211      0.0019
     66  CG2       97.8880   69.0720  265.0740 C.3   211  ILE211      0.0019
     67  CD1       99.6700   71.5200  265.8250 C.3   211  ILE211      0.0001
     68  N         96.2800   63.9310  258.7740 N.3   216  THR216     -0.1218
     69  CA        95.1030   63.1190  258.5530 C.3   216  THR216      0.1862
     70  C         94.6760   63.1270  257.1000 C.2   216  THR216      0.2287
     71  O         94.3360   62.1070  256.5460 O.2   216  THR216     -0.2866
     72  CB        93.9480   63.6230  259.4160 C.3   216  THR216      0.1770
     73  OG1       93.8960   65.0590  259.3320 O.3   216  THR216     -0.2211
     74  CG2       94.1510   63.2330  260.8670 C.3   216  THR216      0.0375
     75  N         92.7820   57.8160  261.9030 N.3   259  VAL259     -0.1245
     76  CA        92.9640   58.2530  263.2640 C.3   259  VAL259      0.1561
     77  C         93.3970   57.0340  264.0580 C.2   259  VAL259      0.2260
     78  O         92.6330   56.1040  264.2400 O.2   259  VAL259     -0.2867
     79  CB        91.6550   58.8210  263.8390 C.3   259  VAL259      0.0252
     80  CG1       91.8400   59.2220  265.2870 C.3   259  VAL259      0.0019
     81  CG2       91.2030   60.0300  263.0450 C.3   259  VAL259      0.0019
     82  N         95.9830   56.0870  267.5000 N.3   261  PRO261     -0.2102
     83  CA        95.2410   54.9020  267.8960 C.3   261  PRO261      0.1504
     84  C         93.8110   55.1170  268.3310 C.2   261  PRO261      0.2576
     85  O         93.1850   54.1750  268.7930 O.2   261  PRO261     -0.2718
     86  CB        96.0450   54.3970  269.0750 C.3   261  PRO261      0.0282
     87  CG        96.5380   55.6660  269.7330 C.3   261  PRO261      0.0208
     88  CD        96.6690   56.7070  268.6470 C.3   261  PRO261      0.0893
     89  N         93.2880   56.3300  268.1930 N.am  262  GLY262     -0.1943
     90  CA        91.8580   56.5510  268.3690 C.3   262  GLY262      0.2014
     91  C         91.5340   57.8660  269.0150 C.2   262  GLY262      0.2639
     92  O         92.4280   58.6800  269.2810 O.2   262  GLY262     -0.2714
     93  N         90.2500   58.0760  269.2690 N.am  263  ILE263     -0.1963
     94  CA        89.7790   59.2910  269.9150 C.3   263  ILE263      0.1727
     95  C         89.8340   59.0950  271.4210 C.2   263  ILE263      0.2616
     96  O         89.4970   58.0190  271.9170 O.2   263  ILE263     -0.2715
     97  CB        88.3450   59.6140  269.4730 C.3   263  ILE263      0.0290
     98  CG1       88.2670   59.7640  267.9600 C.3   263  ILE263      0.0022
     99  CG2       87.8860   60.9160  270.0860 C.3   263  ILE263      0.0023
    100  CD1       86.8570   59.7110  267.4470 C.3   263  ILE263      0.0001
    101  N         90.2680   60.1110  272.1490 N.am  264  PHE264     -0.1960
    102  CA        90.5520   59.9390  273.5620 C.3   264  PHE264      0.1771
    103  C         89.5790   60.6900  274.4370 C.2   264  PHE264      0.2619
    104  O         89.3400   61.8680  274.2390 O.2   264  PHE264     -0.2715
    105  CB        91.9490   60.4500  273.8770 C.3   264  PHE264      0.0574
    106  CG        93.0450   59.4710  273.6010 C.ar  264  PHE264     -0.0200
    107  CD1       93.5280   58.6990  274.5970 C.ar  264  PHE264     -0.0042
    108  CD2       93.6290   59.3790  272.3500 C.ar  264  PHE264     -0.0042
    109  CE1       94.5380   57.7960  274.3840 C.ar  264  PHE264     -0.0003
    110  CE2       94.6790   58.5130  272.1220 C.ar  264  PHE264     -0.0003
    111  CZ        95.1270   57.6920  273.1430 C.ar  264  PHE264     -0.0000
    112  N         89.0470   60.0090  275.4380 N.am  265  ARG265     -0.1963
    113  CA        88.2040   60.6430  276.4540 C.3   265  ARG265      0.1729
    114  C         88.6440   60.2560  277.8690 C.2   265  ARG265      0.2616
    115  O         89.3370   59.2600  278.0800 O.2   265  ARG265     -0.2715
    116  CB        86.7500   60.2520  276.2360 C.3   265  ARG265      0.0348
    117  CG        86.1300   60.8780  274.9930 C.3   265  ARG265      0.0492
    118  CD        86.2550   62.3940  275.0090 C.3   265  ARG265      0.2205
    119  NE        85.5580   63.0120  273.8760 N.pl3 265  ARG265     -0.0865
    120  CZ        86.1050   63.2810  272.6820 C.cat 265  ARG265      0.5346
    121  NH1       87.3680   62.9960  272.4230 N.pl3 265  ARG265      0.1354
    122  NH2       85.3810   63.8450  271.7260 N.pl3 265  ARG265      0.1354
    123  N         88.2350   61.0460  278.8450 N.am  266  PHE266     -0.1974
    124  CA        88.5840   60.7770  280.2430 C.3   266  PHE266      0.1639
    125  C         87.3290   60.9270  281.0230 C.2   266  PHE266      0.2290
    126  O         86.4330   61.6700  280.6320 O.2   266  PHE266     -0.2864
    127  CB        89.6550   61.7430  280.7280 C.3   266  PHE266      0.0560
    128  CG        90.7300   61.9680  279.7060 C.ar  266  PHE266     -0.0200
    129  CD1       91.9100   61.2430  279.7440 C.ar  266  PHE266     -0.0042
    130  CD2       90.5170   62.8570  278.6560 C.ar  266  PHE266     -0.0042
    131  CE1       92.8770   61.4170  278.7490 C.ar  266  PHE266     -0.0003
    132  CE2       91.4700   63.0440  277.6730 C.ar  266  PHE266     -0.0003
    133  CZ        92.6610   62.3180  277.7200 C.ar  266  PHE266     -0.0000
    134  N         91.4390   56.9760  281.3000 N.3   283  THR283     -0.1218
    135  CA        91.4440   57.1670  279.8620 C.3   283  THR283      0.1862
    136  C         90.3570   56.3220  279.2230 C.2   283  THR283      0.2287
    137  O         90.2470   55.1390  279.5030 O.2   283  THR283     -0.2866
    138  CB        92.7940   56.7030  279.2540 C.3   283  THR283      0.1770
    139  OG1       93.8700   57.5410  279.7140 O.3   283  THR283     -0.2211
    140  CG2       92.7490   56.7280  277.7330 C.3   283  THR283      0.0375
    141  N        101.2200   58.8730  265.3950 N.3   362  LEU362     -0.1231
    142  CA        99.8700   58.7620  265.9140 C.3   362  LEU362      0.1693
    143  C         98.8350   58.5170  264.8210 C.2   362  LEU362      0.2592
    144  O         97.8900   57.7900  265.0400 O.2   362  LEU362     -0.2718
    145  CB        99.5120   59.9810  266.7720 C.3   362  LEU362      0.0284
    146  CG       100.1320   59.8180  268.1580 C.3   362  LEU362      0.0019
    147  CD1       99.6800   60.9500  269.0520 C.3   362  LEU362      0.0001
    148  CD2       99.7660   58.4620  268.7580 C.3   362  LEU362      0.0001
    149  N         99.0140   59.1120  263.6540 N.am  363  THR363     -0.1953
    150  CA        98.0170   59.0700  262.6080 C.3   363  THR363      0.1897
    151  C         98.4690   58.0190  261.5990 C.2   363  THR363      0.2313
    152  O         99.5510   58.1150  261.0340 O.2   363  THR363     -0.2863
    153  CB        97.9210   60.4320  261.8910 C.3   363  THR363      0.1794
    154  OG1       97.7290   61.4640  262.8570 O.3   363  THR363     -0.2208
    155  CG2       96.7640   60.4640  260.9420 C.3   363  THR363      0.0378
@<TRIPOS>BOND
     1    71    70    2
     2    70    69    1
     3    69    68    1
     4    69    72    1
     5    73    72    1
     6    72    74    1
     7   155   153    1
     8   152   151    2
     9   151   150    1
    10   153   150    1
    11   153   154    1
    12    75    76    1
    13    60    61    1
    14    63    62    2
    15    62    61    1
    16   150   149    1
    17    61    64    1
    18    81    79    1
    19    76    79    1
    20    76    77    1
    21   149   143   am
    22    79    80    1
    23    77    78    2
    24    64    65    1
    25    64    66    1
    26    65    67    1
    27   143   144    2
    28   143   142    1
    29   141   142    1
    30    46    45    2
    31   142   145    1
    32    40    41    1
    33    45    47   am
    34    45    44    1
    35    41    44    1
    36    41    42    1
    37   145   146    1
    38   100    98    1
    39    82    83    1
    40    82    88    1
    41    83    84    1
    42    83    86    1
    43    42    48   am
    44    42    43    2
    45    98    97    1
    46    48    49    1
    47   146   148    1
    48   146   147    1
    49    89    84   am
    50    89    90    1
    51    84    85    2
    52    90    91    1
    53    31    29    1
    54    51    50    2
    55    88    87    1
    56    52    49    1
    57    91    93   am
    58    91    92    2
    59    49    50    1
    60    86    87    1
    61    93    94    1
    62    50    53   am
    63    97    94    1
    64    97    99    1
    65    29    28    1
    66    94    95    1
    67    28    30    1
    68    28    25    1
    69    53    54    1
    70    53    59    1
    71    25    24    1
    72    25    26    1
    73    54    55    1
    74    54    57    1
    75    23    22    1
    76    95    96    2
    77    95   101   am
    78    19    20    1
    79    19    22    1
    80    19    18    1
    81   122   120    1
    82    55    56    2
    83    59    58    1
    84    57    58    1
    85    20    21    2
    86   110   108   ar
    87   110   111   ar
    88   101   102    1
    89    26    27    2
    90    26    32   am
    91   108   106   ar
    92   121   120    1
    93   120   119    2
    94   111   109   ar
    95    38    37    2
    96    32    33    1
    97   102   105    1
    98   102   103    1
    99   106   105    1
   100   106   107   ar
   101   119   118    1
   102     6     5    1
   103   104   103    2
   104    37    39   am
   105    37    36    1
   106   109   107   ar
   107   103   112   am
   108    33    36    1
   109    33    34    1
   110   117   118    1
   111   117   116    1
   112     5     2    1
   113    17    15    1
   114   112   113    1
   115    34    35    2
   116   116   113    1
   117     4     3    2
   118     2     3    1
   119     2     1    1
   120   113   114    1
   121    15    16    1
   122    15    14    2
   123    14    13    1
   124   132   133   ar
   125   132   130   ar
   126   133   131   ar
   127   140   138    1
   128   114   115    2
   129   114   123   am
   130   130   128   ar
   131   131   129   ar
   132    13    12    1
   133   123   124    1
   134    11    12    1
   135    11     8    1
   136   136   137    2
   137   136   135    1
   138   138   139    1
   139   138   135    1
   140     7     8    1
   141   128   129   ar
   142   128   127    1
   143   135   134    1
   144     8     9    1
   145   124   127    1
   146   124   125    1
   147   126   125    2
   148     9    10    2
