@<TRIPOS>MOLECULE
tmp/5yszA00.pdb
 177 165 0 0 0
SMALL
GASTEIGER

@<TRIPOS>ATOM
      1  N         -3.4360 -118.6050   10.7560 N.3    60  GLU60      -0.1245
      2  CA        -4.2750 -117.4220   10.6320 C.3    60  GLU60       0.1567
      3  C         -5.1960 -117.6260    9.4450 C.2    60  GLU60       0.2260
      4  O         -4.9320 -118.4600    8.5740 O.2    60  GLU60      -0.2867
      5  CB        -3.4520 -116.1530   10.3990 C.3    60  GLU60       0.0388
      6  CG        -2.3870 -115.8890   11.4260 C.3    60  GLU60       0.1160
      7  CD        -2.9170 -115.3970   12.7610 C.2    60  GLU60       0.3649
      8  OE1       -4.1310 -115.1670   12.9300 O.co2  60  GLU60      -0.2457
      9  OE2       -2.0830 -115.2340   13.6690 O.co2  60  GLU60      -0.2457
     10  N         -4.9050 -112.6900    6.3350 N.3    64  LYS64      -0.1245
     11  CA        -3.8090 -112.0850    7.0850 C.3    64  LYS64       0.1561
     12  C         -2.5130 -112.1360    6.2890 C.2    64  LYS64       0.2260
     13  O         -1.6620 -111.2440    6.4220 O.2    64  LYS64      -0.2867
     14  CB        -3.6500 -112.7940    8.4310 C.3    64  LYS64       0.0271
     15  CG        -4.8170 -112.6300    9.3530 C.3    64  LYS64       0.0035
     16  CD        -4.6230 -111.5200   10.3820 C.3    64  LYS64       0.0206
     17  CE        -3.6840 -111.9630   11.4970 C.3    64  LYS64       0.1093
     18  NZ        -3.4450 -110.9320   12.5410 N.3    64  LYS64      -0.1314
     19  N         -0.7750 -108.2290    6.1940 N.3    68  GLU68      -0.1245
     20  CA         0.2910 -107.9260    7.1380 C.3    68  GLU68       0.1567
     21  C          1.6400 -108.1960    6.4910 C.2    68  GLU68       0.2260
     22  O          1.8700 -109.2970    5.9730 O.2    68  GLU68      -0.2867
     23  CB         0.1180 -108.7640    8.4120 C.3    68  GLU68       0.0388
     24  CG        -1.2240 -108.4540    9.0740 C.3    68  GLU68       0.1160
     25  CD        -1.4620 -109.1210   10.4090 C.2    68  GLU68       0.3649
     26  OE1       -0.5800 -109.8550   10.9070 O.co2  68  GLU68      -0.2457
     27  OE2       -2.5870 -108.9270   10.9290 O.co2  68  GLU68      -0.2457
     28  N          4.6880 -108.8840    7.3050 N.3    70  PHE70      -0.1227
     29  CA         5.6000 -109.9230    7.7740 C.3    70  PHE70       0.1736
     30  C          5.6220 -111.1250    6.8470 C.2    70  PHE70       0.2595
     31  O          6.6920 -111.6650    6.5260 O.2    70  PHE70      -0.2718
     32  CB         5.1490 -110.3500    9.1740 C.3    70  PHE70       0.0547
     33  CG         5.8850 -111.5560    9.7220 C.ar   70  PHE70      -0.0202
     34  CD1        7.2140 -111.4750   10.1120 C.ar   70  PHE70      -0.0042
     35  CD2        5.2210 -112.7600    9.8720 C.ar   70  PHE70      -0.0042
     36  CE1        7.8640 -112.5680   10.6280 C.ar   70  PHE70      -0.0003
     37  CE2        5.8660 -113.8800   10.3910 C.ar   70  PHE70      -0.0003
     38  CZ         7.1880 -113.7940   10.7710 C.ar   70  PHE70      -0.0000
     39  N          4.4440 -111.5860    6.4290 N.am   71  TYR71      -0.1976
     40  CA         4.3530 -112.9090    5.8230 C.3    71  TYR71       0.1639
     41  C          5.1100 -112.9750    4.5040 C.2    71  TYR71       0.2290
     42  O          5.7910 -113.9660    4.2300 O.2    71  TYR71      -0.2864
     43  CB         2.8980 -113.2920    5.6330 C.3    71  TYR71       0.0560
     44  CG         2.1750 -113.4070    6.9440 C.ar   71  TYR71      -0.0198
     45  CD1        2.4480 -114.4540    7.8210 C.ar   71  TYR71      -0.0009
     46  CD2        1.2350 -112.4770    7.3160 C.ar   71  TYR71      -0.0009
     47  CE1        1.7880 -114.5690    9.0220 C.ar   71  TYR71       0.0417
     48  CE2        0.5510 -112.5910    8.5100 C.ar   71  TYR71       0.0417
     49  CZ         0.8460 -113.6230    9.3680 C.ar   71  TYR71       0.1957
     50  OH         0.1580 -113.7300   10.5510 O.3    71  TYR71      -0.2866
     51  N          4.2170 -121.1750   11.5680 N.3   118  LEU118     -0.1231
     52  CA         4.3220 -119.7250   11.6100 C.3   118  LEU118      0.1693
     53  C          3.0550 -119.0880   12.1650 C.2   118  LEU118      0.2593
     54  O          1.9400 -119.4700   11.8190 O.2   118  LEU118     -0.2718
     55  CB         4.5970 -119.1910   10.2090 C.3   118  LEU118      0.0284
     56  CG         5.0840 -117.7560   10.1150 C.3   118  LEU118      0.0019
     57  CD1        6.5220 -117.6670   10.6300 C.3   118  LEU118      0.0001
     58  CD2        4.9720 -117.2900    8.6680 C.3   118  LEU118      0.0001
     59  N          3.2280 -118.0790   13.0060 N.am  119  SER119     -0.1938
     60  CA         2.0990 -117.3070   13.5200 C.3   119  SER119      0.2055
     61  C          1.1780 -118.1610   14.3770 C.2   119  SER119      0.2642
     62  O         -0.0240 -117.9050   14.4500 O.2   119  SER119     -0.2714
     63  CB         1.3000 -116.6360   12.3810 C.3   119  SER119      0.2130
     64  OG         0.5810 -115.4670   12.8530 O.3   119  SER119     -0.2179
     65  N          1.7360 -119.1480   15.0630 N.am  120  LEU120     -0.1977
     66  CA         0.8930 -119.9380   15.9330 C.3   120  LEU120      0.1596
     67  C          0.5300 -119.1530   17.1810 C.2   120  LEU120      0.2287
     68  O          1.2010 -118.1900   17.5830 O.2   120  LEU120     -0.2864
     69  CB         1.5620 -121.2610   16.3020 C.3   120  LEU120      0.0297
     70  CG         1.2010 -122.4030   15.3520 C.3   120  LEU120      0.0022
     71  CD1        1.7450 -122.1420   13.9680 C.3   120  LEU120      0.0001
     72  CD2        1.7270 -123.7270   15.8780 C.3   120  LEU120      0.0001
     73  N          8.7020 -120.9490   13.3820 N.3   140  GLY140     -0.1210
     74  CA         9.1190 -119.5620   13.2520 C.3   140  GLY140      0.1956
     75  C          8.3890 -118.7850   14.3300 C.2   140  GLY140      0.2612
     76  O          7.1790 -118.5680   14.2280 O.2   140  GLY140     -0.2717
     77  N          9.1050 -118.4160   15.4020 N.am  141  GLY141     -0.1956
     78  CA         8.5150 -117.9300   16.6350 C.3   141  GLY141      0.1869
     79  C          8.5050 -118.9950   17.7180 C.2   141  GLY141      0.2309
     80  O          7.8730 -120.0470   17.5560 O.2   141  GLY141     -0.2863
     81  N         13.6810 -117.5600   15.8540 N.3   155  ASP155     -0.1225
     82  CA        12.8870 -116.4460   16.3450 C.3   155  ASP155      0.1805
     83  C         13.7030 -115.1740   16.2380 C.2   155  ASP155      0.2597
     84  O         14.9050 -115.1910   15.9640 O.2   155  ASP155     -0.2718
     85  CB        12.4270 -116.6630   17.7960 C.3   155  ASP155      0.1424
     86  CG        11.1450 -115.9190   18.1460 C.2   155  ASP155      0.3668
     87  OD1       10.6510 -115.1010   17.3380 O.co2 155  ASP155     -0.2456
     88  OD2       10.6050 -116.1720   19.2430 O.co2 155  ASP155     -0.2456
     89  N         13.0130 -114.0720   16.4180 N.am  156  ILE156     -0.1980
     90  CA        13.6240 -112.7510   16.4800 C.3   156  ILE156      0.1595
     91  C         13.8260 -112.3930   17.9400 C.2   156  ILE156      0.2287
     92  O         13.0480 -112.8010   18.8090 O.2   156  ILE156     -0.2864
     93  CB        12.7190 -111.7280   15.7700 C.3   156  ILE156      0.0276
     94  CG1       12.4920 -112.1350   14.3070 C.3   156  ILE156      0.0022
     95  CG2       13.3050 -110.3060   15.8710 C.3   156  ILE156      0.0022
     96  CD1       13.7700 -112.4270   13.5270 C.3   156  ILE156      0.0001
     97  N         12.8170 -110.3300   20.0570 N.3   158  ASN158     -0.1240
     98  CA        11.7370 -109.3650   20.1910 C.3   158  ASN158      0.1653
     99  C         11.7440 -108.6530   21.5350 C.2   158  ASN158      0.2266
    100  O         11.2140 -107.5500   21.6240 O.2   158  ASN158     -0.2867
    101  CB        10.3960 -110.0640   19.9730 C.3   158  ASN158      0.1155
    102  CG        10.0850 -110.2730   18.5060 C.2   158  ASN158      0.2627
    103  OD1       10.1610 -109.3510   17.7060 O.2   158  ASN158     -0.2716
    104  ND2        9.7360 -111.4920   18.1470 N.am  158  ASN158     -0.0877
    105  N          0.6000 -114.7730   21.6490 N.3   186  MET186     -0.1230
    106  CA         1.6250 -114.9180   20.6270 C.3   186  MET186      0.1702
    107  C          2.9620 -114.4470   21.1740 C.2   186  MET186      0.2592
    108  O          3.0270 -113.4220   21.8560 O.2   186  MET186     -0.2718
    109  CB         1.2660 -114.1300   19.3740 C.3   186  MET186      0.0401
    110  CG        -0.0440 -114.5810   18.7160 C.3   186  MET186      0.0596
    111  SD        -0.4290 -113.7080   17.1600 S.3   186  MET186     -0.1393
    112  CE         0.6660 -114.5400   16.0200 C.3   186  MET186      0.0692
    113  N          4.0320 -115.1830   20.8510 N.am  187  VAL187     -0.1966
    114  CA         5.3280 -114.9440   21.4880 C.3   187  VAL187      0.1727
    115  C          5.8080 -113.5170   21.2310 C.2   187  VAL187      0.2616
    116  O          6.3440 -112.8590   22.1290 O.2   187  VAL187     -0.2715
    117  CB         6.3680 -115.9910   21.0330 C.3   187  VAL187      0.0290
    118  CG1        6.7120 -115.9010   19.5380 C.3   187  VAL187      0.0023
    119  CG2        7.6140 -115.8770   21.8890 C.3   187  VAL187      0.0023
    120  N          5.6030 -113.0010   20.0240 N.am  188  ALA188     -0.1977
    121  CA         6.1160 -111.6630   19.7490 C.3   188  ALA188      0.1597
    122  C          5.3400 -110.6130   20.5280 C.2   188  ALA188      0.2287
    123  O          5.9060 -109.5850   20.9200 O.2   188  ALA188     -0.2864
    124  CB         6.0640 -111.3520   18.2520 C.3   188  ALA188      0.0319
    125  N          7.6160 -108.3100   22.9500 N.3   192  ARG192     -0.1245
    126  CA         7.7630 -106.8810   22.6970 C.3   192  ARG192      0.1563
    127  C          7.2300 -106.0610   23.8590 C.2   192  ARG192      0.2260
    128  O          7.7310 -104.9540   24.1100 O.2   192  ARG192     -0.2867
    129  CB         7.0700 -106.5080   21.3780 C.3   192  ARG192      0.0307
    130  CG         7.8400 -107.0450   20.1650 C.3   192  ARG192      0.0489
    131  CD         7.0530 -106.9040   18.8640 C.3   192  ARG192      0.2205
    132  NE         7.6690 -107.7710   17.8730 N.pl3 192  ARG192     -0.0865
    133  CZ         7.1750 -108.0550   16.6710 C.cat 192  ARG192      0.5346
    134  NH1        6.0470 -107.5130   16.2590 N.pl3 192  ARG192      0.1354
    135  NH2        7.8370 -108.8980   15.8810 N.pl3 192  ARG192      0.1354
    136  N         -2.4420 -107.3820   16.2010 N.3   217  PHE217     -0.1241
    137  CA        -1.5860 -107.0770   15.0670 C.3   217  PHE217      0.1605
    138  C         -2.3750 -106.5560   13.8580 C.2   217  PHE217      0.2264
    139  O         -1.7380 -106.1220   12.8740 O.2   217  PHE217     -0.2867
    140  CB        -0.7140 -108.2620   14.6380 C.3   217  PHE217      0.0534
    141  CG         0.3780 -108.6410   15.6320 C.ar  217  PHE217     -0.0203
    142  CD1        1.2580 -107.6880   16.1240 C.ar  217  PHE217     -0.0042
    143  CD2        0.5440 -109.9630   16.0360 C.ar  217  PHE217     -0.0042
    144  CE1        2.2780 -108.0400   17.0040 C.ar  217  PHE217     -0.0003
    145  CE2        1.5690 -110.3260   16.9160 C.ar  217  PHE217     -0.0003
    146  CZ         2.4330 -109.3770   17.3990 C.ar  217  PHE217     -0.0000
    147  N          3.3140 -103.4460   16.0150 N.3   243  SER243     -0.1217
    148  CA         3.4770 -103.7020   14.5870 C.3   243  SER243      0.1889
    149  C          3.1880 -102.4270   13.8100 C.2   243  SER243      0.2288
    150  O          2.4810 -101.5340   14.2840 O.2   243  SER243     -0.2866
    151  CB         2.5730 -104.8140   14.0460 C.3   243  SER243      0.2089
    152  OG         1.2290 -104.4180   14.0480 O.3   243  SER243     -0.2183
    153  N          8.4080 -103.7810   12.2020 N.3   271  ASP271     -0.1239
    154  CA         8.3200 -104.4830   10.9140 C.3   271  ASP271      0.1674
    155  C          9.1650 -103.7650    9.8630 C.2   271  ASP271      0.2266
    156  O          9.5880 -104.3870    8.8850 O.2   271  ASP271     -0.2867
    157  CB         6.8890 -104.6200   10.3600 C.3   271  ASP271      0.1410
    158  CG         6.0930 -105.7430   11.0140 C.2   271  ASP271      0.3668
    159  OD1        6.6860 -106.6540   11.6130 O.co2 271  ASP271     -0.2456
    160  OD2        4.8520 -105.6800   10.9230 O.co2 271  ASP271     -0.2456
    161  N         13.1500 -106.1570   11.6220 N.3   288  GLN288     -0.1245
    162  CA        13.5670 -107.5210   11.9030 C.3   288  GLN288      0.1566
    163  C         13.8720 -108.2530   10.5940 C.2   288  GLN288      0.2260
    164  O         13.2420 -107.9890    9.5590 O.2   288  GLN288     -0.2867
    165  CB        12.5000 -108.2950   12.6940 C.3   288  GLN288      0.0367
    166  CG        11.1100 -108.2080   12.0820 C.3   288  GLN288      0.0905
    167  CD        10.0980 -109.0830   12.8200 C.2   288  GLN288      0.2608
    168  OE1       10.3390 -109.5610   13.9370 O.2   288  GLN288     -0.2717
    169  NE2        8.9590 -109.3040   12.1820 N.am  288  GLN288     -0.0878
    170  N         15.0740 -114.9710    8.5110 N.3   293  MET293     -0.1245
    171  CA        14.3340 -115.8780    9.3710 C.3   293  MET293      0.1570
    172  C         13.7260 -117.0150    8.5580 C.2   293  MET293      0.2261
    173  O         13.8090 -118.1790    8.9490 O.2   293  MET293     -0.2867
    174  CB        13.2600 -115.1130   10.1320 C.3   293  MET293      0.0387
    175  CG        12.3510 -115.9830   10.9570 C.3   293  MET293      0.0595
    176  SD        11.2860 -115.0220   12.0460 S.3   293  MET293     -0.1393
    177  CE        10.1300 -116.2900   12.5230 C.3   293  MET293      0.0692
@<TRIPOS>BOND
     1    42    41    2
     2    41    40    1
     3    43    40    1
     4    43    44    1
     5    40    39    1
     6    22    21    2
     7    19    20    1
     8    12    13    2
     9    12    11    1
    10    10    11    1
    11    39    30   am
    12    21    20    1
    13    31    30    2
    14    30    29    1
    15    44    46   ar
    16    44    45   ar
    17    11    14    1
    18    20    23    1
    19    28    29    1
    20    46    48   ar
    21    29    32    1
    22    45    47   ar
    23    23    24    1
    24    14    15    1
    25    48    49   ar
    26   170   171    1
    27   172   173    2
    28   172   171    1
    29     4     3    2
    30    58    56    1
    31   156   155    2
    32    47    49   ar
    33    24    25    1
    34    32    33    1
    35    15    16    1
    36    49    50    1
    37   171   174    1
    38     3     2    1
    39   164   163    2
    40    33    35   ar
    41    33    34   ar
    42   155   154    1
    43    35    37   ar
    44    34    36   ar
    45    56    55    1
    46    56    57    1
    47   174   175    1
    48    55    52    1
    49   157   154    1
    50   157   158    1
    51    16    17    1
    52    37    38   ar
    53     5     2    1
    54     5     6    1
    55    25    26   ar
    56    25    27   ar
    57   163   162    1
    58    36    38   ar
    59     2     1    1
    60   154   153    1
    61   160   158   ar
    62   175   176    1
    63   158   159   ar
    64     6     7    1
    65    17    18    1
    66    51    52    1
    67    52    53    1
    68   161   162    1
    69    54    53    2
    70   162   165    1
    71   176   177    1
    72   166   165    1
    73   166   167    1
    74    53    59   am
    75   169   167   am
    76    63    64    1
    77    63    60    1
    78     7     8   ar
    79     7     9   ar
    80   167   168    2
    81   139   138    2
    82    59    60    1
    83    74    73    1
    84    74    75    1
    85    60    61    1
    86    96    94    1
    87   149   150    2
    88   149   148    1
    89   138   137    1
    90    71    70    1
    91   151   152    1
    92   151   148    1
    93    76    75    2
    94    94    93    1
    95    75    77   am
    96    61    62    2
    97    61    65   am
    98   148   147    1
    99   140   137    1
   100   140   141    1
   101    65    66    1
   102   137   136    1
   103    70    72    1
   104    70    69    1
   105    77    78    1
   106   141   143   ar
   107   141   142   ar
   108    93    95    1
   109    93    90    1
   110    81    82    1
   111   135   133    1
   112    66    69    1
   113    66    67    1
   114    84    83    2
   115   112   111    1
   116   143   145   ar
   117   142   144   ar
   118    83    82    1
   119    83    89   am
   120   134   133    1
   121    82    85    1
   122    89    90    1
   123    90    91    1
   124    78    79    1
   125   133   132    2
   126   145   146   ar
   127   144   146   ar
   128   111   110    1
   129    67    68    2
   130    87    86   ar
   131    80    79    2
   132   103   102    2
   133    85    86    1
   134   132   131    1
   135    91    92    2
   136    86    88   ar
   137   104   102   am
   138   124   121    1
   139   102   101    1
   140   110   109    1
   141   131   130    1
   142   109   106    1
   143   118   117    1
   144   121   120    1
   145   121   122    1
   146   101    98    1
   147   120   115   am
   148    97    98    1
   149   130   129    1
   150    98    99    1
   151   122   123    2
   152   106   107    1
   153   106   105    1
   154   113   107   am
   155   113   114    1
   156   117   114    1
   157   117   119    1
   158   107   108    2
   159   115   114    1
   160   115   116    2
   161   129   126    1
   162    99   100    2
   163   126   125    1
   164   126   127    1
   165   127   128    2
