@<TRIPOS>MOLECULE
tmp/5yt3A00.pdb
 166 151 0 0 0
SMALL
GASTEIGER

@<TRIPOS>ATOM
      1  N        -15.4530   21.4670  -27.2290 N.3    36  LEU36      -0.1231
      2  CA       -15.2800   22.0840  -28.5380 C.3    36  LEU36       0.1693
      3  C        -16.4660   21.7870  -29.4790 C.2    36  LEU36       0.2593
      4  O        -16.5790   22.3620  -30.5730 O.2    36  LEU36      -0.2718
      5  CB       -13.9640   21.6170  -29.1630 C.3    36  LEU36       0.0284
      6  CG       -12.6130   22.1720  -28.7160 C.3    36  LEU36       0.0019
      7  CD1      -11.4830   21.3160  -29.2590 C.3    36  LEU36       0.0001
      8  CD2      -12.4240   23.5810  -29.2120 C.3    36  LEU36       0.0001
      9  N        -17.3450   20.8920  -29.0290 N.am   37  GLY37      -0.1942
     10  CA       -18.5100   20.4360  -29.7910 C.3    37  GLY37       0.2014
     11  C        -18.6060   18.9320  -29.6940 C.2    37  GLY37       0.2639
     12  O        -17.7020   18.3030  -29.1400 O.2    37  GLY37      -0.2714
     13  N        -19.7110   18.3660  -30.1910 N.am   38  ALA38      -0.1963
     14  CA       -19.8740   16.9010  -30.3380 C.3    38  ALA38       0.1728
     15  C        -20.6920   16.5390  -31.5930 C.2    38  ALA38       0.2617
     16  O        -21.0510   17.4090  -32.4040 O.2    38  ALA38      -0.2715
     17  CB       -20.4790   16.2640  -29.0770 C.3    38  ALA38       0.0334
     18  N        -20.9590   15.2470  -31.7530 N.am   39  GLY39      -0.1940
     19  CA       -21.8380   14.7410  -32.7980 C.3    39  GLY39       0.2014
     20  C        -22.2810   13.3610  -32.3810 C.2    39  GLY39       0.2638
     21  O        -22.1690   12.9950  -31.2070 O.2    39  GLY39      -0.2714
     22  N        -22.7700   12.5890  -33.3410 N.am   40  ASN40      -0.1972
     23  CA       -23.2030   11.2290  -33.0650 C.3    40  ASN40       0.1688
     24  C        -21.9990   10.3420  -32.7200 C.2    40  ASN40       0.2292
     25  O        -21.1730    9.9880  -33.5850 O.2    40  ASN40      -0.2864
     26  CB       -24.0450   10.6880  -34.2290 C.3    40  ASN40       0.1181
     27  CG       -25.2760   11.5340  -34.4990 C.2    40  ASN40       0.2629
     28  OD1      -25.6760   11.7000  -35.6390 O.2    40  ASN40      -0.2716
     29  ND2      -25.8800   12.0800  -33.4430 N.am   40  ASN40      -0.0877
     30  N        -18.5900   10.1940  -30.1720 N.3    42  GLY42      -0.1225
     31  CA       -17.6360   11.0040  -29.3950 C.3    42  GLY42       0.1811
     32  C        -17.9100   12.4930  -29.1780 C.2    42  GLY42       0.2280
     33  O        -18.2440   13.2150  -30.1200 O.2    42  GLY42      -0.2866
     34  N        -16.0200   16.1380  -28.0900 N.3    44  VAL44      -0.1245
     35  CA       -14.6670   16.6300  -28.3590 C.3    44  VAL44       0.1561
     36  C        -14.2910   17.7690  -27.4350 C.2    44  VAL44       0.2260
     37  O        -14.9050   18.8490  -27.4840 O.2    44  VAL44      -0.2867
     38  CB       -14.4450   17.0640  -29.8220 C.3    44  VAL44       0.0252
     39  CG1      -12.9860   17.3980  -30.0450 C.3    44  VAL44       0.0019
     40  CG2      -14.8520   15.9820  -30.8080 C.3    44  VAL44       0.0019
     41  N         -6.8770   18.6960  -28.9430 N.3    57  ALA57      -0.1245
     42  CA        -8.2880   18.3260  -28.9890 C.3    57  ALA57       0.1562
     43  C         -8.3470   16.8440  -28.6990 C.2    57  ALA57       0.2260
     44  O         -7.5230   16.0790  -29.2140 O.2    57  ALA57      -0.2867
     45  CB        -8.8770   18.6360  -30.3360 C.3    57  ALA57       0.0290
     46  N        -10.9750   13.6860  -28.9250 N.3    59  LYS59      -0.1245
     47  CA       -12.2260   13.0070  -29.2340 C.3    59  LYS59       0.1561
     48  C        -12.3950   11.7850  -28.3210 C.2    59  LYS59       0.2260
     49  O        -11.5200   10.9100  -28.3020 O.2    59  LYS59      -0.2867
     50  CB       -12.2120   12.5720  -30.6770 C.3    59  LYS59       0.0271
     51  CG       -13.5560   12.0590  -31.1700 C.3    59  LYS59       0.0035
     52  CD       -13.5300   11.8440  -32.6690 C.3    59  LYS59       0.0206
     53  CE       -14.8540   12.2680  -33.2400 C.3    59  LYS59       0.1093
     54  NZ       -15.3490   11.4270  -34.3620 N.3    59  LYS59      -0.1314
     55  N         -5.3670   16.9950  -40.1360 N.3    89  VAL89      -0.1245
     56  CA        -5.1370   17.5150  -38.8160 C.3    89  VAL89       0.1561
     57  C         -3.9780   16.7350  -38.2240 C.2    89  VAL89       0.2260
     58  O         -3.9160   15.5100  -38.3610 O.2    89  VAL89      -0.2867
     59  CB        -6.3990   17.4990  -37.9150 C.3    89  VAL89       0.0252
     60  CG1       -6.8860   16.0950  -37.6040 C.3    89  VAL89       0.0019
     61  CG2       -6.1360   18.2420  -36.6060 C.3    89  VAL89       0.0019
     62  N         -5.4220   14.9320  -31.0630 N.3   105  MET105     -0.1230
     63  CA        -5.0180   15.5830  -32.3140 C.3   105  MET105      0.1702
     64  C         -4.7910   17.0710  -32.0910 C.2   105  MET105      0.2592
     65  O         -5.2020   17.6450  -31.0600 O.2   105  MET105     -0.2718
     66  CB        -6.0660   15.3410  -33.4090 C.3   105  MET105      0.0401
     67  CG        -7.3840   16.0160  -33.0990 C.3   105  MET105      0.0596
     68  SD        -8.7730   15.1280  -33.7780 S.3   105  MET105     -0.1393
     69  CE        -9.9260   15.2910  -32.4150 C.3   105  MET105      0.0692
     70  N         -4.1210   17.6800  -33.0590 N.am  106  GLU106     -0.1979
     71  CA        -3.8510   19.1070  -33.0290 C.3   106  GLU106      0.1602
     72  C         -5.1780   19.8330  -32.8450 C.2   106  GLU106      0.2287
     73  O         -6.1240   19.5630  -33.5900 O.2   106  GLU106     -0.2864
     74  CB        -3.1480   19.5140  -34.3280 C.3   106  GLU106      0.0415
     75  CG        -3.2320   20.9900  -34.6900 C.3   106  GLU106      0.1163
     76  CD        -2.7610   21.2510  -36.1070 C.2   106  GLU106      0.3649
     77  OE1       -2.6930   20.3240  -36.9370 O.co2 106  GLU106     -0.2457
     78  OE2       -2.4610   22.4050  -36.4170 O.co2 106  GLU106     -0.2457
     79  N         -7.5960   22.8940  -33.3070 N.3   108  MET108     -0.1245
     80  CA        -7.7420   23.9050  -34.3530 C.3   108  MET108      0.1570
     81  C         -8.6320   25.0540  -33.8410 C.2   108  MET108      0.2261
     82  O         -9.7890   24.8370  -33.4460 O.2   108  MET108     -0.2867
     83  CB        -8.3180   23.2600  -35.5880 C.3   108  MET108      0.0387
     84  CG        -7.4140   22.2050  -36.1750 C.3   108  MET108      0.0595
     85  SD        -6.2290   22.9260  -37.3180 S.3   108  MET108     -0.1393
     86  CE        -7.0700   22.7610  -38.8840 C.3   108  MET108      0.0692
     87  N        -12.2230   25.6560  -35.4650 N.3   111  GLY111     -0.1210
     88  CA       -13.2400   24.6090  -35.3990 C.3   111  GLY111      0.1956
     89  C        -13.5850   24.1370  -36.7980 C.2   111  GLY111      0.2612
     90  O        -12.8200   24.3910  -37.7490 O.2   111  GLY111     -0.2717
     91  N        -14.7300   23.4720  -36.9470 N.am  112  SER112     -0.1952
     92  CA       -15.1650   22.9640  -38.2540 C.3   112  SER112      0.1924
     93  C        -15.8860   24.0070  -39.0820 C.2   112  SER112      0.2314
     94  O        -16.5720   24.8720  -38.5300 O.2   112  SER112     -0.2863
     95  CB       -16.1090   21.7740  -38.0610 C.3   112  SER112      0.2116
     96  OG       -17.3910   22.1310  -37.5370 O.3   112  SER112     -0.2180
     97  N        -18.4290   23.5820  -40.3670 N.3   114  ASP114     -0.1225
     98  CA       -19.8300   23.4940  -40.0330 C.3   114  ASP114      0.1805
     99  C        -20.2550   24.6220  -39.0940 C.2   114  ASP114      0.2597
    100  O        -21.3740   25.1640  -39.1860 O.2   114  ASP114     -0.2718
    101  CB       -20.1360   22.1700  -39.3990 C.3   114  ASP114      0.1424
    102  CG       -21.5710   21.9990  -39.2000 C.2   114  ASP114      0.3668
    103  OD1      -21.9380   21.4600  -38.1250 O.co2 114  ASP114     -0.2456
    104  OD2      -22.3460   22.4480  -40.1040 O.co2 114  ASP114     -0.2456
    105  N        -19.3350   24.9570  -38.1910 N.am  115  GLN115     -0.1979
    106  CA       -19.5390   25.9650  -37.1670 C.3   115  GLN115      0.1601
    107  C        -19.2840   27.3090  -37.8040 C.2   115  GLN115      0.2287
    108  O        -20.0600   28.2300  -37.5900 O.2   115  GLN115     -0.2864
    109  CB       -18.6130   25.7250  -35.9790 C.3   115  GLN115      0.0394
    110  CG       -18.6900   24.3540  -35.3240 C.3   115  GLN115      0.0908
    111  CD       -17.6050   24.1860  -34.2640 C.2   115  GLN115      0.2608
    112  OE1      -16.4030   24.2110  -34.5450 O.2   115  GLN115     -0.2717
    113  NE2      -18.0260   24.0090  -33.0400 N.am  115  GLN115     -0.0878
    114  N        -15.7420    9.8150  -44.7760 N.3   152  ASP152     -0.1239
    115  CA       -16.5290   10.6950  -43.9240 C.3   152  ASP152      0.1674
    116  C        -16.2080   12.1840  -44.1680 C.2   152  ASP152      0.2266
    117  O        -15.9520   12.9410  -43.2190 O.2   152  ASP152     -0.2867
    118  CB       -16.3510   10.2980  -42.4530 C.3   152  ASP152      0.1410
    119  CG       -17.4170   10.8880  -41.5540 C.2   152  ASP152      0.3668
    120  OD1      -18.5080   11.2460  -42.0570 O.co2 152  ASP152     -0.2456
    121  OD2      -17.1610   11.0000  -40.3350 O.co2 152  ASP152     -0.2456
    122  N        -17.3250   15.8690  -44.9330 N.3   154  LYS154     -0.1245
    123  CA       -18.4660   16.7580  -44.6750 C.3   154  LYS154      0.1561
    124  C        -17.9730   18.0130  -43.9780 C.2   154  LYS154      0.2260
    125  O        -16.8230   18.0410  -43.5040 O.2   154  LYS154     -0.2867
    126  CB       -19.5420   16.0700  -43.8320 C.3   154  LYS154      0.0271
    127  CG       -19.0990   15.6270  -42.4700 C.3   154  LYS154      0.0035
    128  CD       -20.0610   14.5770  -41.9740 C.3   154  LYS154      0.0206
    129  CE       -19.4610   13.8550  -40.7800 C.3   154  LYS154      0.1093
    130  NZ       -20.3890   12.7810  -40.2950 N.3   154  LYS154     -0.1314
    131  N        -18.4420   19.2610  -40.9960 N.3   156  SER156     -0.1202
    132  CA       -17.9240   19.0630  -39.6370 C.3   156  SER156      0.2020
    133  C        -16.5460   18.4250  -39.5540 C.2   156  SER156      0.2618
    134  O        -15.9180   18.5040  -38.5080 O.2   156  SER156     -0.2717
    135  CB       -18.8860   18.3310  -38.7190 C.3   156  SER156      0.2103
    136  OG       -19.2830   17.0900  -39.2440 O.3   156  SER156     -0.2182
    137  N        -16.0780   17.8120  -40.6370 N.am  157  ASN157     -0.1974
    138  CA       -14.7660   17.1870  -40.6460 C.3   157  ASN157      0.1688
    139  C        -13.7700   17.9380  -41.4920 C.2   157  ASN157      0.2292
    140  O        -12.7170   17.3820  -41.8580 O.2   157  ASN157     -0.2864
    141  CB       -14.8540   15.7370  -41.0930 C.3   157  ASN157      0.1181
    142  CG       -15.4940   14.8510  -40.0400 C.2   157  ASN157      0.2629
    143  OD1      -15.4510   15.1550  -38.8430 O.2   157  ASN157     -0.2716
    144  ND2      -16.1040   13.7550  -40.4770 N.am  157  ASN157     -0.0877
    145  N        -11.5650   21.0860  -40.7790 N.3   159  LEU159     -0.1245
    146  CA       -11.2210   21.9980  -39.6910 C.3   159  LEU159      0.1561
    147  C        -10.3780   23.1370  -40.2410 C.2   159  LEU159      0.2260
    148  O         -9.7140   22.9730  -41.2720 O.2   159  LEU159     -0.2867
    149  CB       -10.5220   21.2970  -38.5250 C.3   159  LEU159      0.0270
    150  CG       -11.1990   20.1660  -37.7260 C.3   159  LEU159      0.0019
    151  CD1      -10.1070   19.4290  -36.9610 C.3   159  LEU159      0.0001
    152  CD2      -12.2750   20.6010  -36.7390 C.3   159  LEU159      0.0001
    153  N        -10.0790   16.0850  -40.6900 N.3   169  CYS169     -0.1221
    154  CA       -10.0070   15.1920  -39.5500 C.3   169  CYS169      0.1808
    155  C        -11.0440   14.0790  -39.7020 C.2   169  CYS169      0.2601
    156  O        -11.8710   14.1280  -40.6050 O.2   169  CYS169     -0.2717
    157  CB       -10.2480   15.9590  -38.2670 C.3   169  CYS169      0.0970
    158  SG       -11.9340   16.5710  -38.1180 S.3   169  CYS169     -0.0800
    159  N        -11.0040   13.1020  -38.7990 N.am  170  ASP170     -0.1973
    160  CA       -11.9260   11.9550  -38.7820 C.3   170  ASP170      0.1709
    161  C        -11.8410   11.0200  -40.0030 C.2   170  ASP170      0.2293
    162  O        -12.8380   10.5270  -40.5500 O.2   170  ASP170     -0.2864
    163  CB       -13.3440   12.3990  -38.4150 C.3   170  ASP170      0.1436
    164  CG       -13.4470   12.8400  -36.9720 C.2   170  ASP170      0.3671
    165  OD1      -13.1440   12.0280  -36.0710 O.co2 170  ASP170     -0.2456
    166  OD2      -13.8400   13.9970  -36.7400 O.co2 170  ASP170     -0.2456
@<TRIPOS>BOND
     1   122   123    1
     2   114   115    1
     3   123   124    1
     4   123   126    1
     5   116   115    1
     6   116   117    2
     7   124   125    2
     8   115   118    1
     9   126   127    1
    10   127   128    1
    11   118   119    1
    12   120   119   ar
    13   128   129    1
    14   140   139    2
    15   119   121   ar
    16   139   138    1
    17   148   147    2
    18   141   138    1
    19   141   142    1
    20   131   132    1
    21   129   130    1
    22   145   146    1
    23   153   154    1
    24   138   137    1
    25   137   133   am
    26   156   155    2
    27   162   161    2
    28   144   142   am
    29    97    98    1
    30   147   146    1
    31    55    56    1
    32   104   102   ar
    33   142   143    2
    34    98   101    1
    35    98    99    1
    36   161   160    1
    37   155   154    1
    38   155   159   am
    39   146   149    1
    40   132   133    1
    41   132   135    1
    42   133   134    2
    43   154   157    1
    44   101   102    1
    45   136   135    1
    46   102   103   ar
    47   100    99    2
    48    99   105   am
    49    93    94    2
    50    93    92    1
    51    86    85    1
    52    56    57    1
    53    56    59    1
    54   159   160    1
    55   160   163    1
    56   149   150    1
    57   163   164    1
    58    58    57    2
    59   157   158    1
    60    92    95    1
    61    92    91    1
    62   105   106    1
    63    95    96    1
    64    59    60    1
    65    59    61    1
    66   107   108    2
    67   107   106    1
    68    90    89    2
    69   150   151    1
    70   150   152    1
    71    85    84    1
    72   106   109    1
    73   164   166   ar
    74   164   165   ar
    75    91    89   am
    76    77    76   ar
    77    89    88    1
    78    78    76   ar
    79    84    83    1
    80    76    75    1
    81   109   110    1
    82    28    27    2
    83    83    80    1
    84    87    88    1
    85   110   111    1
    86    75    74    1
    87   112   111    2
    88    27    26    1
    89    27    29   am
    90    54    53    1
    91    80    81    1
    92    80    79    1
    93    74    71    1
    94   111   113   am
    95    26    23    1
    96    81    82    2
    97    68    67    1
    98    68    69    1
    99    73    72    2
   100    25    24    2
   101    66    67    1
   102    66    63    1
   103    22    23    1
   104    22    20   am
   105    53    52    1
   106    23    24    1
   107    70    71    1
   108    70    64   am
   109    71    72    1
   110    19    20    1
   111    19    18    1
   112    52    51    1
   113    16    15    2
   114    20    21    2
   115    63    64    1
   116    63    62    1
   117    64    65    2
   118    18    15   am
   119    15    14    1
   120    51    50    1
   121    40    38    1
   122    50    47    1
   123     4     3    2
   124    14    13    1
   125    14    17    1
   126    45    42    1
   127    13    11   am
   128    30    31    1
   129    33    32    2
   130    39    38    1
   131    38    35    1
   132    10    11    1
   133    10     9    1
   134    11    12    2
   135     3     9   am
   136     3     2    1
   137    31    32    1
   138     7     6    1
   139    47    46    1
   140    47    48    1
   141    44    43    2
   142     8     6    1
   143     5     6    1
   144     5     2    1
   145    42    41    1
   146    42    43    1
   147     2     1    1
   148    35    34    1
   149    35    36    1
   150    48    49    2
   151    37    36    2
