@<TRIPOS>MOLECULE
tmp/5ytfA00.pdb
 182 176 0 0 0
SMALL
GASTEIGER

@<TRIPOS>ATOM
      1  N        -38.1310   -5.7560    4.0510 N.3   280  ARG280     -0.1245
      2  CA       -37.4890   -7.0140    3.6620 C.3   280  ARG280      0.1563
      3  C        -38.4990   -8.1260    3.4710 C.2   280  ARG280      0.2260
      4  O        -39.5850   -8.1280    4.0740 O.2   280  ARG280     -0.2867
      5  CB       -36.5540   -7.4760    4.7410 C.3   280  ARG280      0.0307
      6  CG       -35.2140   -6.8410    4.6580 C.3   280  ARG280      0.0489
      7  CD       -34.2660   -7.5530    5.5500 C.3   280  ARG280      0.2205
      8  NE       -32.9260   -7.0580    5.3970 N.pl3 280  ARG280     -0.0865
      9  CZ       -31.8700   -7.5410    6.0230 C.cat 280  ARG280      0.5346
     10  NH1      -32.0040   -8.5280    6.9080 N.pl3 280  ARG280      0.1354
     11  NH2      -30.6690   -7.0240    5.7910 N.pl3 280  ARG280      0.1354
     12  N        -24.3260  -10.8610   -5.0020 N.3   317  ASP317     -0.1225
     13  CA       -24.4690  -10.2480   -3.6860 C.3   317  ASP317      0.1805
     14  C        -24.0100   -8.7660   -3.7260 C.2   317  ASP317      0.2598
     15  O        -22.8870   -8.4730   -4.1250 O.2   317  ASP317     -0.2718
     16  CB       -23.6260  -11.0380   -2.6840 C.3   317  ASP317      0.1424
     17  CG       -23.7940  -10.5330   -1.2410 C.2   317  ASP317      0.3668
     18  OD1      -23.8870   -9.2960   -1.0180 O.co2 317  ASP317     -0.2456
     19  OD2      -23.9050  -11.3850   -0.3430 O.co2 317  ASP317     -0.2456
     20  N        -24.8780   -7.8350   -3.3160 N.am  318  TYR318     -0.1962
     21  CA       -24.4950   -6.4200   -3.3640 C.3   318  TYR318      0.1771
     22  C        -23.3760   -6.1440   -2.3780 C.2   318  TYR318      0.2620
     23  O        -23.4510   -6.5820   -1.2300 O.2   318  TYR318     -0.2715
     24  CB       -25.6490   -5.5080   -3.0260 C.3   318  TYR318      0.0574
     25  CG       -26.6650   -5.2890   -4.1180 C.ar  318  TYR318     -0.0198
     26  CD1      -26.3840   -4.4470   -5.1950 C.ar  318  TYR318     -0.0009
     27  CD2      -27.9510   -5.8460   -4.0410 C.ar  318  TYR318     -0.0009
     28  CE1      -27.3430   -4.1910   -6.1920 C.ar  318  TYR318      0.0417
     29  CE2      -28.9190   -5.6030   -5.0470 C.ar  318  TYR318      0.0417
     30  CZ       -28.5970   -4.7870   -6.1110 C.ar  318  TYR318      0.1957
     31  OH       -29.5230   -4.4750   -7.0770 O.3   318  TYR318     -0.2866
     32  N        -22.3490   -5.4350   -2.8370 N.am  319  SER319     -0.1936
     33  CA       -21.2480   -4.9930   -1.9950 C.3   319  SER319      0.2055
     34  C        -21.6400   -3.8660   -1.0390 C.2   319  SER319      0.2643
     35  O        -22.1370   -2.8080   -1.4630 O.2   319  SER319     -0.2714
     36  CB       -20.0490   -4.5350   -2.8400 C.3   319  SER319      0.2130
     37  OG       -19.3620   -3.4630   -2.2290 O.3   319  SER319     -0.2179
     38  N        -21.3810   -4.0690    0.2420 N.am  320  GLN320     -0.1963
     39  CA       -21.4760   -3.0080    1.2700 C.3   320  GLN320      0.1733
     40  C        -22.7940   -2.2350    1.1970 C.2   320  GLN320      0.2616
     41  O        -22.8400   -0.9940    1.2920 O.2   320  GLN320     -0.2715
     42  CB       -20.3170   -2.0330    1.1090 C.3   320  GLN320      0.0408
     43  CG       -18.9410   -2.6330    1.2390 C.3   320  GLN320      0.0908
     44  CD       -17.9040   -1.5950    0.9130 C.2   320  GLN320      0.2608
     45  OE1      -17.4930   -0.8030    1.7940 O.2   320  GLN320     -0.2717
     46  NE2      -17.5310   -1.5040   -0.3810 N.am  320  GLN320     -0.0878
     47  N        -23.8600   -2.9670    0.9720 N.am  321  ILE321     -0.1963
     48  CA       -25.0640   -2.3590    0.4410 C.3   321  ILE321      0.1727
     49  C        -25.6860   -1.2890    1.3110 C.2   321  ILE321      0.2616
     50  O        -25.9450   -0.2030    0.8080 O.2   321  ILE321     -0.2715
     51  CB       -26.1170   -3.3790   -0.0330 C.3   321  ILE321      0.0290
     52  CG1      -27.2860   -2.6750   -0.7440 C.3   321  ILE321      0.0022
     53  CG2      -26.6870   -4.2030    1.0980 C.3   321  ILE321      0.0023
     54  CD1      -26.9210   -2.0150   -2.0460 C.3   321  ILE321      0.0001
     55  N        -25.8840   -1.5480    2.6040 N.am  322  GLU322     -0.1977
     56  CA       -26.4150   -0.4880    3.4740 C.3   322  GLU322      0.1602
     57  C        -25.4990    0.7170    3.6250 C.2   322  GLU322      0.2287
     58  O        -26.0000    1.8330    3.7950 O.2   322  GLU322     -0.2864
     59  CB       -26.9330   -1.0530    4.8010 C.3   322  GLU322      0.0415
     60  CG       -28.2690   -1.7490    4.5460 C.3   322  GLU322      0.1163
     61  CD       -28.8960   -2.3980    5.7560 C.2   322  GLU322      0.3649
     62  OE1      -28.6670   -1.9260    6.8710 O.co2 322  GLU322     -0.2457
     63  OE2      -29.6020   -3.3920    5.5630 O.co2 322  GLU322     -0.2457
     64  N        -15.6270   -2.4920    5.0630 N.3   346  HIS346     -0.1241
     65  CA       -15.5010   -3.7380    5.8200 C.3   346  HIS346      0.1621
     66  C        -14.0620   -4.2480    5.9060 C.2   346  HIS346      0.2264
     67  O        -13.5830   -4.5330    6.9940 O.2   346  HIS346     -0.2867
     68  CB       -16.4350   -4.8190    5.2900 C.3   346  HIS346      0.0745
     69  CG       -17.8810   -4.4490    5.3760 C.ar  346  HIS346      0.0817
     70  ND1      -18.3920   -3.6560    6.3790 N.ar  346  HIS346     -0.2268
     71  CD2      -18.9250   -4.7400    4.5630 C.ar  346  HIS346      0.1154
     72  CE1      -19.6850   -3.4910    6.1960 C.ar  346  HIS346      0.1986
     73  NE2      -20.0360   -4.1360    5.1030 N.ar  346  HIS346     -0.2212
     74  N        -13.8470  -10.4910    8.0220 N.3   366  ARG366     -0.1231
     75  CA       -14.7550   -9.5870    7.3320 C.3   366  ARG366      0.1694
     76  C        -16.1160   -9.5720    8.0410 C.2   366  ARG366      0.2591
     77  O        -16.6710   -8.5080    8.2420 O.2   366  ARG366     -0.2718
     78  CB       -14.8920   -9.9330    5.8300 C.3   366  ARG366      0.0321
     79  CG       -15.7140   -8.9110    5.0370 C.3   366  ARG366      0.0489
     80  CD       -16.1950   -9.4190    3.6520 C.3   366  ARG366      0.2205
     81  NE       -16.9440   -8.4190    2.8900 N.pl3 366  ARG366     -0.0865
     82  CZ       -16.4230   -7.3040    2.3870 C.cat 366  ARG366      0.5346
     83  NH1      -15.1330   -7.0000    2.5580 N.pl3 366  ARG366      0.1354
     84  NH2      -17.1910   -6.4610    1.7180 N.pl3 366  ARG366      0.1354
     85  N        -16.6290  -10.7260    8.4500 N.am  367  ARG367     -0.1980
     86  CA       -17.9140  -10.7500    9.1620 C.3   367  ARG367      0.1597
     87  C        -17.8260   -9.9820   10.4910 C.2   367  ARG367      0.2287
     88  O        -18.7290   -9.2220   10.8410 O.2   367  ARG367     -0.2864
     89  CB       -18.4200  -12.1960    9.3380 C.3   367  ARG367      0.0334
     90  CG       -19.7390  -12.3580   10.1040 C.3   367  ARG367      0.0492
     91  CD       -20.9120  -11.5760    9.5030 C.3   367  ARG367      0.2205
     92  NE       -21.2260  -10.3700   10.2690 N.pl3 367  ARG367     -0.0865
     93  CZ       -22.3310   -9.6390   10.1500 C.cat 367  ARG367      0.5346
     94  NH1      -23.2800   -9.9350    9.2570 N.pl3 367  ARG367      0.1354
     95  NH2      -22.5060   -8.6000   10.9490 N.pl3 367  ARG367      0.1354
     96  N        -18.1160   -6.3120    9.9560 N.3   370  LYS370     -0.1231
     97  CA       -19.4730   -5.8750    9.6240 C.3   370  LYS370      0.1693
     98  C        -20.2530   -5.5450   10.8900 C.2   370  LYS370      0.2592
     99  O        -20.9210   -4.4920   10.9860 O.2   370  LYS370     -0.2718
    100  CB       -20.2260   -6.9520    8.8460 C.3   370  LYS370      0.0285
    101  CG       -19.7550   -7.1140    7.4190 C.3   370  LYS370      0.0035
    102  CD       -20.5640   -8.2120    6.7100 C.3   370  LYS370      0.0206
    103  CE       -20.1320   -8.3030    5.2610 C.3   370  LYS370      0.1093
    104  NZ       -20.7060   -9.4790    4.5860 N.3   370  LYS370     -0.1314
    105  N        -20.1450   -6.4520   11.8550 N.am  371  THR371     -0.1953
    106  CA       -20.6940   -6.2510   13.2040 C.3   371  THR371      0.1897
    107  C        -20.2550   -4.9130   13.7250 C.2   371  THR371      0.2313
    108  O        -21.0780   -4.1090   14.1990 O.2   371  THR371     -0.2863
    109  CB       -20.3010   -7.3830   14.1520 C.3   371  THR371      0.1794
    110  OG1      -20.8670   -8.5890   13.6630 O.3   371  THR371     -0.2208
    111  CG2      -20.8450   -7.1430   15.5660 C.3   371  THR371      0.0378
    112  N        -21.7190   -1.9230   11.0880 N.3   374  PHE374     -0.1227
    113  CA       -23.1580   -1.7230   11.2300 C.3   374  PHE374      0.1736
    114  C        -23.5460   -1.4110   12.6890 C.2   374  PHE374      0.2596
    115  O        -24.3390   -0.5080   12.9080 O.2   374  PHE374     -0.2718
    116  CB       -23.9480   -2.8600   10.6010 C.3   374  PHE374      0.0547
    117  CG       -23.7310   -2.9590    9.1150 C.ar  374  PHE374     -0.0202
    118  CD1      -24.0600   -1.8800    8.2800 C.ar  374  PHE374     -0.0042
    119  CD2      -23.1690   -4.0880    8.5410 C.ar  374  PHE374     -0.0042
    120  CE1      -23.7980   -1.9320    6.9120 C.ar  374  PHE374     -0.0003
    121  CE2      -22.9320   -4.1480    7.1760 C.ar  374  PHE374     -0.0003
    122  CZ       -23.2440   -3.0720    6.3600 C.ar  374  PHE374     -0.0000
    123  N        -22.9390   -2.0770   13.6640 N.am  375  GLY375     -0.1957
    124  CA       -23.1420   -1.7750   15.0950 C.3   375  GLY375      0.1869
    125  C        -23.0010   -0.3170   15.4460 C.2   375  GLY375      0.2309
    126  O        -23.9480    0.3210   15.9670 O.2   375  GLY375     -0.2863
    127  N        -25.6770    1.9180   13.7000 N.3   378  TYR378     -0.1241
    128  CA       -27.0490    1.8000   14.2010 C.3   378  TYR378      0.1605
    129  C        -27.1790    1.9310   15.7280 C.2   378  TYR378      0.2264
    130  O        -28.2000    1.5730   16.2980 O.2   378  TYR378     -0.2867
    131  CB       -27.6680    0.5150   13.6890 C.3   378  TYR378      0.0534
    132  CG       -27.7910    0.5110   12.1880 C.ar  378  TYR378     -0.0201
    133  CD1      -28.4650    1.5420   11.5200 C.ar  378  TYR378     -0.0009
    134  CD2      -27.2100   -0.4980   11.4200 C.ar  378  TYR378     -0.0009
    135  CE1      -28.5660    1.5680   10.1430 C.ar  378  TYR378      0.0417
    136  CE2      -27.3340   -0.4940   10.0430 C.ar  378  TYR378      0.0417
    137  CZ       -28.0050    0.5460    9.4060 C.ar  378  TYR378      0.1957
    138  OH       -28.1490    0.5740    8.0260 O.3   378  TYR378     -0.2866
    139  N        -32.7870    2.9620   11.5350 N.3   457  ASN457     -0.1240
    140  CA       -32.3240    1.8400   10.7630 C.3   457  ASN457      0.1653
    141  C        -33.2040    1.6000    9.5340 C.2   457  ASN457      0.2266
    142  O        -32.7380    1.2000    8.4820 O.2   457  ASN457     -0.2867
    143  CB       -32.2840    0.5850   11.6260 C.3   457  ASN457      0.1155
    144  CG       -32.0660   -0.6770   10.8050 C.2   457  ASN457      0.2627
    145  OD1      -33.0110   -1.3150   10.3630 O.2   457  ASN457     -0.2716
    146  ND2      -30.8160   -1.0160   10.5710 N.am  457  ASN457     -0.0877
    147  N        -32.1290   -0.0640    5.7710 N.3   461  GLN461     -0.1245
    148  CA       -32.4250   -1.4410    5.4790 C.3   461  GLN461      0.1566
    149  C        -33.5790   -1.5250    4.4890 C.2   461  GLN461      0.2260
    150  O        -33.5520   -2.3350    3.5620 O.2   461  GLN461     -0.2867
    151  CB       -32.7080   -2.2220    6.7750 C.3   461  GLN461      0.0367
    152  CG       -32.8350   -3.7310    6.5830 C.3   461  GLN461      0.0905
    153  CD       -33.3370   -4.4190    7.8310 C.2   461  GLN461      0.2608
    154  OE1      -34.4340   -4.9700    7.8470 O.2   461  GLN461     -0.2717
    155  NE2      -32.5430   -4.3680    8.8990 N.am  461  GLN461     -0.0878
    156  N        -31.9070  -11.2790    1.0590 N.3   491  HIS491     -0.1226
    157  CA       -31.8590   -9.8860    1.3790 C.3   491  HIS491      0.1752
    158  C        -31.1530   -8.9900    0.3870 C.2   491  HIS491      0.2596
    159  O        -31.7600   -8.1280   -0.1360 O.2   491  HIS491     -0.2718
    160  CB       -31.3820   -9.6960    2.8050 C.3   491  HIS491      0.0759
    161  CG       -32.0730  -10.5930    3.7610 C.ar  491  HIS491      0.0818
    162  ND1      -33.4320  -10.5870    3.9150 N.ar  491  HIS491     -0.2268
    163  CD2      -31.6090  -11.5790    4.5500 C.ar  491  HIS491      0.1154
    164  CE1      -33.7700  -11.4880    4.8070 C.ar  491  HIS491      0.1986
    165  NE2      -32.6840  -12.1010    5.2060 N.ar  491  HIS491     -0.2212
    166  N        -29.8880   -9.2240    0.1430 N.am  492  ASP492     -0.1974
    167  CA       -29.1340   -8.4610   -0.8210 C.3   492  ASP492      0.1709
    168  C        -28.4220   -9.3850   -1.7910 C.2   492  ASP492      0.2293
    169  O        -27.5060   -8.9670   -2.4380 O.2   492  ASP492     -0.2864
    170  CB       -28.1680   -7.5030   -0.1330 C.3   492  ASP492      0.1436
    171  CG       -26.8540   -8.1280    0.2350 C.2   492  ASP492      0.3671
    172  OD1      -26.8270   -9.2630    0.6220 O.co2 492  ASP492     -0.2456
    173  OD2      -25.8570   -7.4650    0.1420 O.co2 492  ASP492     -0.2456
    174  N        -21.0350   -8.4730   -6.3650 N.3   527  GLU527     -0.1245
    175  CA       -20.0480   -9.5630   -6.5170 C.3   527  GLU527      0.1567
    176  C        -20.8240  -10.7470   -7.0390 C.2   527  GLU527      0.2260
    177  O        -21.8680  -11.0760   -6.5120 O.2   527  GLU527     -0.2867
    178  CB       -19.3780   -9.9760   -5.2000 C.3   527  GLU527      0.0388
    179  CG       -18.3870   -8.9740   -4.6530 C.3   527  GLU527      0.1160
    180  CD       -17.2160   -8.7120   -5.5960 C.2   527  GLU527      0.3649
    181  OE1      -16.5810   -9.6850   -6.0780 O.co2 527  GLU527     -0.2457
    182  OE2      -16.9350   -7.5220   -5.8590 O.co2 527  GLU527     -0.2457
@<TRIPOS>BOND
     1    31    30    1
     2   176   175    1
     3   176   177    2
     4   175   174    1
     5   175   178    1
     6    28    30   ar
     7    28    26   ar
     8    30    29   ar
     9   181   180   ar
    10   182   180   ar
    11   180   179    1
    12   178   179    1
    13    26    25   ar
    14    29    27   ar
    15    12    13    1
    16    15    14    2
    17    25    27   ar
    18    25    24    1
    19    14    13    1
    20    14    20   am
    21    13    16    1
    22    21    20    1
    23    21    24    1
    24    21    22    1
    25    36    37    1
    26    36    33    1
    27    32    22   am
    28    32    33    1
    29    16    17    1
    30   169   168    2
    31    22    23    2
    32    54    52    1
    33    33    34    1
    34   168   167    1
    35    35    34    2
    36    17    18   ar
    37    17    19   ar
    38    34    38   am
    39   167   170    1
    40   167   166    1
    41    52    51    1
    42    46    44   am
    43   159   158    2
    44   170   171    1
    45    51    48    1
    46    51    53    1
    47   173   171   ar
    48   166   158   am
    49   171   172   ar
    50    38    39    1
    51   158   157    1
    52    48    47    1
    53    48    49    1
    54    50    49    2
    55    44    43    1
    56    44    45    2
    57    47    40   am
    58   156   157    1
    59    42    43    1
    60    42    39    1
    61    40    39    1
    62    40    41    2
    63    49    55   am
    64   157   160    1
    65    84    82    1
    66    82    83    1
    67    82    81    2
    68    55    56    1
    69   160   161    1
    70    81    80    1
    71     3     2    1
    72     3     4    2
    73    56    57    1
    74    56    59    1
    75   150   149    2
    76    57    58    2
    77    80    79    1
    78     2     1    1
    79     2     5    1
    80   161   162   ar
    81   161   163   ar
    82   162   164   ar
    83   149   148    1
    84    60    59    1
    85    60    61    1
    86   163   165   ar
    87    71    73   ar
    88    71    69   ar
    89   104   103    1
    90     6     5    1
    91     6     7    1
    92   164   165   ar
    93    79    78    1
    94    64    65    1
    95    73    72   ar
    96   103   102    1
    97    68    69    1
    98    68    65    1
    99    69    70   ar
   100     8     7    1
   101     8     9    2
   102   148   147    1
   103   148   151    1
   104    63    61   ar
   105    61    62   ar
   106    11     9    1
   107    65    66    1
   108    78    75    1
   109    66    67    2
   110     9    10    1
   111    72    70   ar
   112   122   120   ar
   113   122   121   ar
   114   152   151    1
   115   152   153    1
   116   102   101    1
   117   120   118   ar
   118   121   119   ar
   119    75    74    1
   120    75    76    1
   121   101   100    1
   122   153   154    2
   123   153   155   am
   124   138   137    1
   125    76    77    2
   126    76    85   am
   127   118   117   ar
   128    85    86    1
   129   142   141    2
   130   119   117   ar
   131   100    97    1
   132   117   116    1
   133    86    89    1
   134    86    87    1
   135    94    93    1
   136    89    90    1
   137   137   136   ar
   138   137   135   ar
   139    91    90    1
   140    91    92    1
   141   141   140    1
   142    97    96    1
   143    97    98    1
   144   136   134   ar
   145   135   133   ar
   146    93    92    2
   147    93    95    1
   148   145   144    2
   149    87    88    2
   150   146   144   am
   151   116   113    1
   152   140   139    1
   153   140   143    1
   154   144   143    1
   155    98    99    2
   156    98   105   am
   157   112   113    1
   158   113   114    1
   159   134   132   ar
   160   133   132   ar
   161   105   106    1
   162   132   131    1
   163   114   115    2
   164   114   123   am
   165   106   107    1
   166   106   109    1
   167   110   109    1
   168   123   124    1
   169   131   128    1
   170   127   128    1
   171   107   108    2
   172   109   111    1
   173   128   129    1
   174   124   125    1
   175   125   126    2
   176   129   130    2
