@<TRIPOS>MOLECULE
tmp/5ytkB01.pdb
 102 104 0 0 0
SMALL
GASTEIGER

@<TRIPOS>ATOM
      1  N        114.8200   38.0920   17.9280 N.3    60  PHE60      -0.1241
      2  CA       114.3380   39.1490   18.8160 C.3    60  PHE60       0.1605
      3  C        112.9830   38.8280   19.4160 C.2    60  PHE60       0.2264
      4  O        112.2470   39.7330   19.7900 O.2    60  PHE60      -0.2867
      5  CB       114.2460   40.4910   18.0900 C.3    60  PHE60       0.0534
      6  CG       115.5560   41.0150   17.6100 C.ar   60  PHE60      -0.0203
      7  CD1      116.5510   41.3470   18.5070 C.ar   60  PHE60      -0.0042
      8  CD2      115.7980   41.1790   16.2680 C.ar   60  PHE60      -0.0042
      9  CE1      117.7650   41.8340   18.0640 C.ar   60  PHE60      -0.0003
     10  CE2      117.0070   41.6630   15.8270 C.ar   60  PHE60      -0.0003
     11  CZ       117.9870   41.9940   16.7230 C.ar   60  PHE60      -0.0000
     12  N        115.8040   51.1090   20.5300 N.3   128  HIS128     -0.1241
     13  CA       115.7160   49.6660   20.3600 C.3   128  HIS128      0.1621
     14  C        116.6380   48.9460   21.3350 C.2   128  HIS128      0.2264
     15  O        116.8690   47.7500   21.2200 O.2   128  HIS128     -0.2867
     16  CB       116.0510   49.2760   18.9220 C.3   128  HIS128      0.0745
     17  CG       114.9570   49.5720   17.9460 C.ar  128  HIS128      0.0817
     18  ND1      113.7450   50.1040   18.3260 N.ar  128  HIS128     -0.2268
     19  CD2      114.8860   49.4040   16.6060 C.ar  128  HIS128      0.1154
     20  CE1      112.9770   50.2510   17.2630 C.ar  128  HIS128      0.1986
     21  NE2      113.6470   49.8330   16.2060 N.ar  128  HIS128     -0.2212
     22  N        118.6980   44.8060   24.8180 N.3   171  ILE171     -0.1231
     23  CA       118.0870   44.9710   23.5090 C.3   171  ILE171      0.1692
     24  C        116.5730   44.7880   23.6220 C.2   171  ILE171      0.2592
     25  O        116.1060   43.8740   24.2870 O.2   171  ILE171     -0.2718
     26  CB       118.6680   43.9590   22.4960 C.3   171  ILE171      0.0266
     27  CG1      120.1860   44.1140   22.4050 C.3   171  ILE171      0.0019
     28  CG2      118.0270   44.1110   21.1280 C.3   171  ILE171      0.0020
     29  CD1      120.6350   45.4530   21.8550 C.3   171  ILE171      0.0001
     30  N        115.8100   45.6770   23.0020 N.am  172  VAL172     -0.1966
     31  CA       114.3590   45.5900   23.0460 C.3   172  VAL172      0.1727
     32  C        113.8350   44.5080   22.1080 C.2   172  VAL172      0.2616
     33  O        114.1010   44.5290   20.9110 O.2   172  VAL172     -0.2715
     34  CB       113.7070   46.9250   22.6840 C.3   172  VAL172      0.0290
     35  CG1      112.1950   46.7810   22.6650 C.3   172  VAL172      0.0023
     36  CG2      114.1390   48.0010   23.6700 C.3   172  VAL172      0.0023
     37  N        113.1070   43.5480   22.6620 N.am  173  PHE173     -0.1960
     38  CA       112.5480   42.4650   21.8650 C.3   173  PHE173      0.1771
     39  C        111.1430   42.8010   21.3730 C.2   173  PHE173      0.2620
     40  O        110.5260   43.7490   21.8340 O.2   173  PHE173     -0.2715
     41  CB       112.5330   41.1620   22.6660 C.3   173  PHE173      0.0574
     42  CG       113.8450   40.4300   22.6590 C.ar  173  PHE173     -0.0200
     43  CD1      115.0360   41.1080   22.4990 C.ar  173  PHE173     -0.0042
     44  CD2      113.8810   39.0530   22.7410 C.ar  173  PHE173     -0.0042
     45  CE1      116.2350   40.4290   22.4750 C.ar  173  PHE173     -0.0003
     46  CE2      115.0770   38.3750   22.7080 C.ar  173  PHE173     -0.0003
     47  CZ       116.2520   39.0610   22.5770 C.ar  173  PHE173     -0.0000
     48  N        110.6500   42.0440   20.4060 N.am  174  PHE174     -0.1960
     49  CA       109.3060   42.2690   19.8940 C.3   174  PHE174      0.1771
     50  C        108.2470   42.0260   20.9540 C.2   174  PHE174      0.2620
     51  O        108.2990   41.0460   21.6850 O.2   174  PHE174     -0.2715
     52  CB       109.0650   41.4050   18.6580 C.3   174  PHE174      0.0574
     53  CG       109.8550   41.8540   17.4630 C.ar  174  PHE174     -0.0200
     54  CD1      109.5520   43.0580   16.8540 C.ar  174  PHE174     -0.0042
     55  CD2      110.9140   41.1070   16.9710 C.ar  174  PHE174     -0.0042
     56  CE1      110.2680   43.5040   15.7640 C.ar  174  PHE174     -0.0003
     57  CE2      111.6380   41.5490   15.8730 C.ar  174  PHE174     -0.0003
     58  CZ       111.3130   42.7500   15.2710 C.ar  174  PHE174     -0.0000
     59  N        107.3070   42.9560   21.0590 N.am  175  GLY175     -0.1940
     60  CA       106.2590   42.8630   22.0530 C.3   175  GLY175      0.2014
     61  C        106.5810   43.6710   23.2890 C.2   175  GLY175      0.2639
     62  O        105.6850   44.1300   23.9960 O.2   175  GLY175     -0.2714
     63  N        107.8710   43.8320   23.5550 N.am  176  GLU176     -0.1963
     64  CA       108.3300   44.5730   24.7210 C.3   176  GLU176      0.1718
     65  C        108.1330   46.0710   24.5830 C.2   176  GLU176      0.2458
     66  O        108.1690   46.6210   23.4840 O.2   176  GLU176     -0.2730
     67  CB       109.8040   44.2860   24.9820 C.3   176  GLU176      0.0428
     68  CG       110.0740   42.9410   25.5960 C.3   176  GLU176      0.1163
     69  CD       111.5200   42.7830   25.9890 C.2   176  GLU176      0.3649
     70  OE1      112.3800   43.4260   25.3540 O.co2 176  GLU176     -0.2457
     71  OE2      111.8000   42.0310   26.9450 O.co2 176  GLU176     -0.2457
     72  N        107.9260   46.7470   25.7110 N.am  177  PRO177     -0.2716
     73  CA       107.8260   48.2040   25.6590 C.3   177  PRO177      0.1536
     74  C        109.1430   48.8620   25.2610 C.2   177  PRO177      0.2598
     75  O        110.2170   48.3300   25.5310 O.2   177  PRO177     -0.2715
     76  CB       107.4310   48.5790   27.0920 C.3   177  PRO177      0.0310
     77  CG       107.8710   47.4360   27.9190 C.3   177  PRO177      0.0237
     78  CD       107.6910   46.2260   27.0680 C.3   177  PRO177      0.0939
     79  N        109.0480   49.9960   24.5790 N.am  178  LEU178     -0.1978
     80  CA       110.2170   50.8070   24.2900 C.3   178  LEU178      0.1596
     81  C        110.8250   51.2830   25.5990 C.2   178  LEU178      0.2287
     82  O        110.1360   51.3390   26.6100 O.2   178  LEU178     -0.2864
     83  CB       109.8530   51.9890   23.3950 C.3   178  LEU178      0.0297
     84  CG       109.4290   51.6430   21.9680 C.3   178  LEU178      0.0022
     85  CD1      109.3030   52.9030   21.1520 C.3   178  LEU178      0.0001
     86  CD2      110.4060   50.6780   21.3220 C.3   178  LEU178      0.0001
     87  N        105.9890   53.0400   13.2940 N.3   205  GLU205     -0.1231
     88  CA       105.6330   53.7780   14.4930 C.3   205  GLU205      0.1684
     89  C        106.3240   53.1610   15.7010 C.2   205  GLU205      0.2434
     90  O        106.6520   51.9790   15.6800 O.2   205  GLU205     -0.2733
     91  CB       104.1110   53.8070   14.6710 C.3   205  GLU205      0.0402
     92  CG       103.3840   54.5510   13.5620 C.3   205  GLU205      0.1161
     93  CD       103.4890   56.0700   13.6780 C.2   205  GLU205      0.3649
     94  OE1      104.3080   56.5680   14.4770 O.co2 205  GLU205     -0.2457
     95  OE2      102.7500   56.7750   12.9620 O.co2 205  GLU205     -0.2457
     96  N        106.5370   53.9510   16.7680 N.am  206  PRO206     -0.2729
     97  CA       106.1230   55.3490   16.9520 C.3   206  PRO206      0.1401
     98  C        107.0600   56.4120   16.3750 C.2   206  PRO206      0.2269
     99  O        106.8050   57.5930   16.5860 O.2   206  PRO206     -0.2865
    100  CB       106.0420   55.4750   18.4720 C.3   206  PRO206      0.0296
    101  CG       107.0610   54.5450   18.9620 C.3   206  PRO206      0.0237
    102  CD       107.1010   53.3870   18.0060 C.3   206  PRO206      0.0939
@<TRIPOS>BOND
     1    95    93   ar
     2    87    88    1
     3    92    93    1
     4    92    91    1
     5    93    94   ar
     6    88    91    1
     7    88    89    1
     8    58    56   ar
     9    58    57   ar
    10    90    89    2
    11    89    96   am
    12    56    54   ar
    13    10     8   ar
    14    10    11   ar
    15    57    55   ar
    16    21    19   ar
    17    21    20   ar
    18     8     6   ar
    19    98    99    2
    20    98    97    1
    21    19    17   ar
    22    11     9   ar
    23    96    97    1
    24    96   102    1
    25    54    53   ar
    26    97   100    1
    27    55    53   ar
    28    20    18   ar
    29    53    52    1
    30     6     5    1
    31     6     7   ar
    32     1     2    1
    33    17    18   ar
    34    17    16    1
    35   102   101    1
    36     9     7   ar
    37     5     2    1
    38   100   101    1
    39    52    49    1
    40     2     3    1
    41    16    13    1
    42     3     4    2
    43    49    48    1
    44    49    50    1
    45    13    12    1
    46    13    14    1
    47    48    39   am
    48    33    32    2
    49    50    59   am
    50    50    51    2
    51    59    60    1
    52    28    26    1
    53    85    84    1
    54    15    14    2
    55    86    84    1
    56    39    40    2
    57    39    38    1
    58    29    27    1
    59    38    37    1
    60    38    41    1
    61    84    83    1
    62    60    61    1
    63    32    37   am
    64    32    31    1
    65    27    26    1
    66    45    43   ar
    67    45    47   ar
    68    26    23    1
    69    43    42   ar
    70    47    46   ar
    71    42    41    1
    72    42    44   ar
    73    35    34    1
    74    34    31    1
    75    34    36    1
    76    46    44   ar
    77    30    31    1
    78    30    24   am
    79    61    63   am
    80    61    62    2
    81    83    80    1
    82    66    65    2
    83    23    24    1
    84    23    22    1
    85    63    64    1
    86    24    25    2
    87    80    79    1
    88    80    81    1
    89    79    74   am
    90    65    64    1
    91    65    72   am
    92    64    67    1
    93    67    68    1
    94    74    75    2
    95    74    73    1
    96    70    69   ar
    97    68    69    1
    98    81    82    2
    99    73    72    1
   100    73    76    1
   101    72    78    1
   102    69    71   ar
   103    78    77    1
   104    76    77    1
