@<TRIPOS>MOLECULE
tmp/5ytkA00.pdb
 110 109 0 0 0
SMALL
GASTEIGER

@<TRIPOS>ATOM
      1  N         81.8870   62.9730   43.0340 N.3    26  ALA26      -0.1245
      2  CA        81.9650   64.3860   42.6610 C.3    26  ALA26       0.1562
      3  C         80.8930   65.2500   43.3270 C.2    26  ALA26       0.2260
      4  O         81.0790   66.4520   43.5100 O.2    26  ALA26      -0.2867
      5  CB        81.8730   64.5270   41.1530 C.3    26  ALA26       0.0290
      6  N         84.7120   69.5110   34.4880 N.3    37  PHE37      -0.1227
      7  CA        85.4550   69.7570   33.2540 C.3    37  PHE37       0.1736
      8  C         84.7480   69.1960   32.0210 C.2    37  PHE37       0.2595
      9  O         85.0880   69.5460   30.8910 O.2    37  PHE37      -0.2718
     10  CB        86.8630   69.1650   33.3540 C.3    37  PHE37       0.0547
     11  CG        86.9000   67.6680   33.2510 C.ar   37  PHE37      -0.0202
     12  CD1       86.5490   66.8750   34.3300 C.ar   37  PHE37      -0.0042
     13  CD2       87.2930   67.0530   32.0750 C.ar   37  PHE37      -0.0042
     14  CE1       86.5820   65.4950   34.2340 C.ar   37  PHE37      -0.0003
     15  CE2       87.3280   65.6760   31.9730 C.ar   37  PHE37      -0.0003
     16  CZ        86.9720   64.8950   33.0540 C.ar   37  PHE37      -0.0000
     17  N         83.7700   68.3230   32.2460 N.am   38  ARG38      -0.1980
     18  CA        83.0200   67.7010   31.1620 C.3    38  ARG38       0.1597
     19  C         81.8630   68.5860   30.7260 C.2    38  ARG38       0.2287
     20  O         81.3890   68.4930   29.5950 O.2    38  ARG38      -0.2864
     21  CB        82.4850   66.3340   31.5940 C.3    38  ARG38       0.0334
     22  CG        83.5430   65.3540   32.0640 C.3    38  ARG38       0.0492
     23  CD        82.9290   64.0260   32.4950 C.3    38  ARG38       0.2205
     24  NE        82.0880   64.1690   33.6840 N.pl3  38  ARG38      -0.0865
     25  CZ        80.7570   64.2050   33.6720 C.cat  38  ARG38       0.5346
     26  NH1       80.0850   64.3440   34.8080 N.pl3  38  ARG38       0.1354
     27  NH2       80.0940   64.0950   32.5280 N.pl3  38  ARG38       0.1354
     28  N         92.7060   62.5820   30.6220 N.3    60  PHE60      -0.1241
     29  CA        93.1740   61.5180   31.5020 C.3    60  PHE60       0.1605
     30  C         93.6110   60.3000   30.7100 C.2    60  PHE60       0.2264
     31  O         93.5380   59.1800   31.2020 O.2    60  PHE60      -0.2867
     32  CB        92.0960   61.1120   32.5070 C.3    60  PHE60       0.0534
     33  CG        91.6900   62.2120   33.4360 C.ar   60  PHE60      -0.0203
     34  CD1       92.6040   62.7650   34.3150 C.ar   60  PHE60      -0.0042
     35  CD2       90.3950   62.6880   33.4380 C.ar   60  PHE60      -0.0042
     36  CE1       92.2360   63.7750   35.1640 C.ar   60  PHE60      -0.0003
     37  CE2       90.0230   63.6970   34.2930 C.ar   60  PHE60      -0.0003
     38  CZ        90.9420   64.2390   35.1560 C.ar   60  PHE60      -0.0000
     39  N         86.4580   59.0890   44.9910 N.3   108  GLN108     -0.1231
     40  CA        86.6750   59.0830   43.5540 C.3   108  GLN108      0.1698
     41  C         87.1940   60.4300   43.1120 C.2   108  GLN108      0.2592
     42  O         87.6390   60.5910   41.9800 O.2   108  GLN108     -0.2718
     43  CB        85.3860   58.7630   42.8060 C.3   108  GLN108      0.0381
     44  CG        84.9620   57.3230   42.8880 C.3   108  GLN108      0.0905
     45  CD        83.6820   57.0610   42.1340 C.2   108  GLN108      0.2608
     46  OE1       82.7010   57.7870   42.2860 O.2   108  GLN108     -0.2717
     47  NE2       83.6840   56.0250   41.3060 N.am  108  GLN108     -0.0878
     48  N         87.1350   61.3950   44.0230 N.am  109  ASN109     -0.1960
     49  CA        87.5360   62.7600   43.7270 C.3   109  ASN109      0.1819
     50  C         89.0400   62.9190   43.7480 C.2   109  ASN109      0.2621
     51  O         89.7420   62.1310   44.3710 O.2   109  ASN109     -0.2715
     52  CB        86.9020   63.7370   44.7150 C.3   109  ASN109      0.1195
     53  CG        85.3980   63.7270   44.6500 C.2   109  ASN109      0.2630
     54  OD1       84.8160   63.1750   43.7260 O.2   109  ASN109     -0.2716
     55  ND2       84.7600   64.3670   45.6120 N.am  109  ASN109     -0.0877
     56  N         89.5300   63.9350   43.0460 N.am  110  ILE110     -0.1977
     57  CA        90.9540   64.2330   43.0380 C.3   110  ILE110      0.1596
     58  C         91.2410   65.6490   43.5390 C.2   110  ILE110      0.2287
     59  O         92.3600   66.1400   43.4150 O.2   110  ILE110     -0.2864
     60  CB        91.5520   64.0580   41.6330 C.3   110  ILE110      0.0276
     61  CG1       90.8820   64.9950   40.6300 C.3   110  ILE110      0.0022
     62  CG2       91.4150   62.6160   41.1730 C.3   110  ILE110      0.0022
     63  CD1       91.4670   64.8940   39.2430 C.3   110  ILE110      0.0001
     64  N         91.3730   57.4900   42.6540 N.3   128  HIS128     -0.1241
     65  CA        91.7030   58.0550   41.3560 C.3   128  HIS128      0.1621
     66  C         92.9810   58.8740   41.4230 C.2   128  HIS128      0.2264
     67  O         93.2630   59.6700   40.5330 O.2   128  HIS128     -0.2867
     68  CB        90.5470   58.8940   40.8170 C.3   128  HIS128      0.0745
     69  CG        89.4000   58.0800   40.3090 C.ar  128  HIS128      0.0817
     70  ND1       89.4080   56.6970   40.3060 N.ar  128  HIS128     -0.2268
     71  CD2       88.2110   58.4400   39.7740 C.ar  128  HIS128      0.1154
     72  CE1       88.2780   56.2520   39.8020 C.ar  128  HIS128      0.1986
     73  NE2       87.5300   57.2900   39.4670 N.ar  128  HIS128     -0.2212
     74  N         97.9600   61.1940   39.5620 N.3   171  ILE171     -0.1231
     75  CA        96.5730   61.0040   39.1740 C.3   171  ILE171      0.1692
     76  C         96.4540   59.7560   38.3110 C.2   171  ILE171      0.2592
     77  O         97.2300   59.5650   37.3900 O.2   171  ILE171     -0.2718
     78  CB        96.0420   62.2220   38.3990 C.3   171  ILE171      0.0266
     79  CG1       96.1460   63.4780   39.2600 C.3   171  ILE171      0.0019
     80  CG2       94.6090   62.0050   37.9580 C.3   171  ILE171      0.0020
     81  CD1       95.2780   63.4370   40.4980 C.3   171  ILE171      0.0001
     82  N         95.4850   58.9040   38.6180 N.am  172  VAL172     -0.1966
     83  CA        95.2890   57.6740   37.8670 C.3   172  VAL172      0.1727
     84  C         94.6140   57.9490   36.5310 C.2   172  VAL172      0.2616
     85  O         93.5120   58.4870   36.4810 O.2   172  VAL172     -0.2715
     86  CB        94.4560   56.6590   38.6650 C.3   172  VAL172      0.0290
     87  CG1       94.2060   55.4220   37.8360 C.3   172  VAL172      0.0023
     88  CG2       95.1680   56.2980   39.9490 C.3   172  VAL172      0.0023
     89  N         95.2900   57.5790   35.4490 N.am  173  PHE173     -0.1960
     90  CA        94.7670   57.7740   34.1040 C.3   173  PHE173      0.1771
     91  C         93.9830   56.5550   33.6450 C.2   173  PHE173      0.2619
     92  O         94.0940   55.4860   34.2400 O.2   173  PHE173     -0.2715
     93  CB        95.9010   58.0620   33.1180 C.3   173  PHE173      0.0574
     94  CG        96.3230   59.4980   33.0830 C.ar  173  PHE173     -0.0200
     95  CD1       96.1300   60.3200   34.1770 C.ar  173  PHE173     -0.0042
     96  CD2       96.8830   60.0370   31.9430 C.ar  173  PHE173     -0.0042
     97  CE1       96.5080   61.6400   34.1390 C.ar  173  PHE173     -0.0003
     98  CE2       97.2590   61.3650   31.9040 C.ar  173  PHE173     -0.0003
     99  CZ        97.0710   62.1620   33.0030 C.ar  173  PHE173     -0.0000
    100  N         93.1910   56.7130   32.5890 N.am  174  PHE174     -0.1974
    101  CA        92.4210   55.5920   32.0640 C.3   174  PHE174      0.1639
    102  C         93.3670   54.5210   31.5580 C.2   174  PHE174      0.2290
    103  O         94.3100   54.8140   30.8320 O.2   174  PHE174     -0.2864
    104  CB        91.4730   56.0340   30.9510 C.3   174  PHE174      0.0560
    105  CG        90.3670   56.9400   31.4170 C.ar  174  PHE174     -0.0200
    106  CD1       89.3920   56.4780   32.2870 C.ar  174  PHE174     -0.0042
    107  CD2       90.2860   58.2450   30.9630 C.ar  174  PHE174     -0.0042
    108  CE1       88.3720   57.3020   32.7070 C.ar  174  PHE174     -0.0003
    109  CE2       89.2670   59.0740   31.3800 C.ar  174  PHE174     -0.0003
    110  CZ        88.3100   58.6020   32.2540 C.ar  174  PHE174     -0.0000
@<TRIPOS>BOND
     1    20    19    2
     2    28    29    1
     3    30    31    2
     4    30    29    1
     5    19    18    1
     6   103   102    2
     7     9     8    2
     8   104   105    1
     9   104   101    1
    10   107   109   ar
    11   107   105   ar
    12    18    21    1
    13    18    17    1
    14   109   110   ar
    15   105   106   ar
    16    29    32    1
    17   102   101    1
    18    21    22    1
    19    98    96   ar
    20    98    99   ar
    21    96    94   ar
    22    15    13   ar
    23    15    16   ar
    24     8    17   am
    25     8     7    1
    26   101   100    1
    27    22    23    1
    28    13    11   ar
    29   110   108   ar
    30   106   108   ar
    31    23    24    1
    32    32    33    1
    33    27    25    1
    34   100    91   am
    35    99    97   ar
    36    16    14   ar
    37    94    93    1
    38    94    95   ar
    39    93    90    1
    40    11    10    1
    41    11    12   ar
    42     7    10    1
    43     7     6    1
    44    33    35   ar
    45    33    34   ar
    46    35    37   ar
    47    91    90    1
    48    91    92    2
    49    25    24    2
    50    25    26    1
    51    90    89    1
    52    97    95   ar
    53    14    12   ar
    54    37    38   ar
    55    34    36   ar
    56    38    36   ar
    57    89    84   am
    58    85    84    2
    59    84    83    1
    60    77    76    2
    61    87    86    1
    62    83    82    1
    63    83    86    1
    64    80    78    1
    65    76    82   am
    66    76    75    1
    67    78    75    1
    68    78    79    1
    69    86    88    1
    70    75    74    1
    71    63    61    1
    72    79    81    1
    73    73    71   ar
    74    73    72   ar
    75    71    69   ar
    76    72    70   ar
    77    70    69   ar
    78    69    68    1
    79    67    66    2
    80    61    60    1
    81    68    65    1
    82     5     2    1
    83    62    60    1
    84    47    45   am
    85    65    66    1
    86    65    64    1
    87    60    57    1
    88    42    41    2
    89    45    46    2
    90    45    44    1
    91     2     1    1
    92     2     3    1
    93    43    44    1
    94    43    40    1
    95    57    56    1
    96    57    58    1
    97    56    50   am
    98    41    40    1
    99    41    48   am
   100     3     4    2
   101    59    58    2
   102    40    39    1
   103    54    53    2
   104    49    50    1
   105    49    48    1
   106    49    52    1
   107    50    51    2
   108    53    52    1
   109    53    55   am
