@<TRIPOS>MOLECULE
tmp/5ytuA00.pdb
 81 78 0 0 0
SMALL
GASTEIGER

@<TRIPOS>ATOM
      1  N        -83.0110    6.5600   19.0220 N.3    49  HIS49      -0.1241
      2  CA       -84.3710    6.0840   18.9350 C.3    49  HIS49       0.1621
      3  C        -84.4860    4.8150   19.8200 C.2    49  HIS49       0.2264
      4  O        -83.4980    4.2510   20.2320 O.2    49  HIS49      -0.2867
      5  CB       -84.7550    5.7790   17.4510 C.3    49  HIS49       0.0745
      6  CG       -84.9890    7.0050   16.6120 C.ar   49  HIS49       0.0817
      7  ND1      -86.2120    7.3100   16.0340 N.ar   49  HIS49      -0.2268
      8  CD2      -84.1340    7.9840   16.2180 C.ar   49  HIS49       0.1154
      9  CE1      -86.1010    8.4260   15.3310 C.ar   49  HIS49       0.1986
     10  NE2      -84.8470    8.8550   15.4290 N.ar   49  HIS49      -0.2212
     11  N        -86.9030    2.4750    9.9360 N.3    59  THR59      -0.1218
     12  CA       -88.2990    2.6140   10.3830 C.3    59  THR59       0.1862
     13  C        -88.5570    1.7820   11.6380 C.2    59  THR59       0.2287
     14  O        -89.2280    2.2240   12.5740 O.2    59  THR59      -0.2866
     15  CB       -89.2540    2.1460    9.2690 C.3    59  THR59       0.1770
     16  OG1      -88.8790    2.7970    8.0610 O.3    59  THR59      -0.2211
     17  CG2      -90.6790    2.4920    9.5800 C.3    59  THR59       0.0375
     18  N        -89.7480    5.3930   17.8820 N.3    63  PRO63      -0.2102
     19  CA       -89.6660    6.8290   18.0990 C.3    63  PRO63       0.1504
     20  C        -88.3910    7.2040   18.8440 C.2    63  PRO63       0.2575
     21  O        -87.5520    6.3330   19.1570 O.2    63  PRO63      -0.2718
     22  CB       -90.8900    7.1050   18.9740 C.3    63  PRO63       0.0282
     23  CG       -91.0100    5.8460   19.8550 C.3    63  PRO63       0.0208
     24  CD       -90.6260    4.7320   18.8960 C.3    63  PRO63       0.0893
     25  N        -88.2280    8.4940   19.1590 N.am   64  HIS64      -0.1976
     26  CA       -87.0570    8.8910   19.9930 C.3    64  HIS64       0.1656
     27  C        -87.1180    8.1640   21.3070 C.2    64  HIS64       0.2291
     28  O        -88.1900    7.9940   21.8700 O.2    64  HIS64      -0.2864
     29  CB       -87.1050   10.4370   20.2410 C.3    64  HIS64       0.0771
     30  CG       -86.9340   11.2410   19.0020 C.ar   64  HIS64       0.0820
     31  ND1      -86.8530   12.6220   19.0160 N.ar   64  HIS64      -0.2267
     32  CD2      -86.8070   10.8670   17.7010 C.ar   64  HIS64       0.1154
     33  CE1      -86.6670   13.0550   17.7820 C.ar   64  HIS64       0.1986
     34  NE2      -86.6640   12.0150   16.9630 N.ar   64  HIS64      -0.2212
     35  N        -80.9710   12.4100   10.6500 N.3   121  HIS121     -0.1241
     36  CA       -82.1470   12.7940    9.8990 C.3   121  HIS121      0.1621
     37  C        -81.9180   13.7280    8.6890 C.2   121  HIS121      0.2264
     38  O        -80.9050   14.3610    8.5440 O.2   121  HIS121     -0.2867
     39  CB       -83.2000   13.3820   10.8580 C.3   121  HIS121      0.0745
     40  CG       -83.8040   12.3640   11.7760 C.ar  121  HIS121      0.0817
     41  ND1      -85.0730   11.8460   11.5870 N.ar  121  HIS121     -0.2268
     42  CD2      -83.3460   11.8330   12.9350 C.ar  121  HIS121      0.1154
     43  CE1      -85.3640   11.0170   12.5840 C.ar  121  HIS121      0.1986
     44  NE2      -84.3230   10.9820   13.4070 N.ar  121  HIS121     -0.2212
     45  N        -95.8930   18.3520   15.3440 N.3   134  GLU134     -0.1245
     46  CA       -94.7450   17.5030   14.9920 C.3   134  GLU134      0.1567
     47  C        -93.4840   17.9790   15.6990 C.2   134  GLU134      0.2260
     48  O        -92.5870   17.1850   15.9950 O.2   134  GLU134     -0.2867
     49  CB       -94.5010   17.5440   13.4830 C.3   134  GLU134      0.0388
     50  CG       -93.5930   16.4610   12.9570 C.3   134  GLU134      0.1160
     51  CD       -94.2150   15.0810   13.1910 C.2   134  GLU134      0.3649
     52  OE1      -95.3540   14.8690   12.7580 O.co2 134  GLU134     -0.2457
     53  OE2      -93.5840   14.2310   13.8400 O.co2 134  GLU134     -0.2457
     54  N        -90.9460   15.0590   16.9830 N.3   138  THR138     -0.1218
     55  CA       -89.7380   14.7430   16.2400 C.3   138  THR138      0.1862
     56  C        -88.8520   15.9690   15.9830 C.2   138  THR138      0.2287
     57  O        -87.7950   15.8470   15.3700 O.2   138  THR138     -0.2866
     58  CB       -90.0790   14.1490   14.8520 C.3   138  THR138      0.1770
     59  OG1      -90.8340   15.1080   14.1120 O.3   138  THR138     -0.2211
     60  CG2      -90.9470   12.8500   14.9680 C.3   138  THR138      0.0375
     61  N        -87.7300   15.2080    9.9760 N.3   142  GLY142     -0.1210
     62  CA       -88.0430   14.5180    8.7130 C.3   142  GLY142      0.1956
     63  C        -87.4570   13.0980    8.6360 C.2   142  GLY142      0.2613
     64  O        -87.3130   12.4130    9.6560 O.2   142  GLY142     -0.2717
     65  N        -87.1340   12.6390    7.4270 N.am  143  SER143     -0.1938
     66  CA       -86.8740   11.1940    7.2650 C.3   143  SER143      0.2055
     67  C        -85.5240   10.7390    7.8300 C.2   143  SER143      0.2642
     68  O        -84.6380   11.5440    8.2100 O.2   143  SER143     -0.2714
     69  CB       -87.0500   10.7740    5.7910 C.3   143  SER143      0.2130
     70  OG       -86.0010   11.3160    5.0380 O.3   143  SER143     -0.2179
     71  N        -85.3560    9.4230    7.8840 N.am  144  ARG144     -0.1977
     72  CA       -84.2160    8.8380    8.5080 C.3   144  ARG144      0.1597
     73  C        -83.2120    8.5080    7.4270 C.2   144  ARG144      0.2287
     74  O        -83.4640    7.6260    6.5930 O.2   144  ARG144     -0.2864
     75  CB       -84.6920    7.5780    9.2740 C.3   144  ARG144      0.0334
     76  CG       -85.7560    7.9330   10.2990 C.3   144  ARG144      0.0492
     77  CD       -86.3650    6.7400   11.0350 C.3   144  ARG144      0.2205
     78  NE       -87.4580    7.2090   11.8880 N.pl3 144  ARG144     -0.0865
     79  CZ       -87.9800    6.5630   12.9380 C.cat 144  ARG144      0.5346
     80  NH1      -87.4860    5.3890   13.3290 N.pl3 144  ARG144      0.1354
     81  NH2      -88.9810    7.1110   13.6280 N.pl3 144  ARG144      0.1354
@<TRIPOS>BOND
     1    70    69    1
     2    69    66    1
     3    74    73    2
     4    66    65    1
     5    66    67    1
     6    65    63   am
     7    73    72    1
     8    67    71   am
     9    67    68    2
    10    71    72    1
    11    16    15    1
    12    72    75    1
    13    38    37    2
    14    63    62    1
    15    63    64    2
    16    37    36    1
    17    62    61    1
    18    15    17    1
    19    15    12    1
    20    75    76    1
    21    36    35    1
    22    36    39    1
    23    11    12    1
    24    76    77    1
    25    12    13    1
    26    39    40    1
    27    77    78    1
    28    41    40   ar
    29    41    43   ar
    30    13    14    2
    31    40    42   ar
    32    78    79    2
    33    43    44   ar
    34    52    51   ar
    35    42    44   ar
    36    79    80    1
    37    79    81    1
    38    50    51    1
    39    50    49    1
    40    51    53   ar
    41    49    46    1
    42    59    58    1
    43    58    60    1
    44    58    55    1
    45    46    45    1
    46    46    47    1
    47     9    10   ar
    48     9     7   ar
    49    57    56    2
    50    10     8   ar
    51    47    48    2
    52    56    55    1
    53     7     6   ar
    54     8     6   ar
    55    55    54    1
    56     6     5    1
    57    34    32   ar
    58    34    33   ar
    59     5     2    1
    60    32    30   ar
    61    33    31   ar
    62    18    19    1
    63    18    24    1
    64    19    20    1
    65    19    22    1
    66    20    21    2
    67    20    25   am
    68    24    23    1
    69     2     1    1
    70     2     3    1
    71    22    23    1
    72    30    31   ar
    73    30    29    1
    74    25    26    1
    75     3     4    2
    76    26    29    1
    77    26    27    1
    78    27    28    2
