@<TRIPOS>MOLECULE
tmp/5yu1B01.pdb
 121 110 0 0 0
SMALL
GASTEIGER

@<TRIPOS>ATOM
      1  N        283.1410  -47.1790   -0.2720 N.3    49  ARG49      -0.1245
      2  CA       284.3190  -46.4660    0.1880 C.3    49  ARG49       0.1563
      3  C        284.3490  -45.0510   -0.3930 C.2    49  ARG49       0.2260
      4  O        283.6490  -44.7250   -1.3570 O.2    49  ARG49      -0.2867
      5  CB       285.5890  -47.2310   -0.1830 C.3    49  ARG49       0.0307
      6  CG       285.8050  -47.4050   -1.6680 C.3    49  ARG49       0.0489
      7  CD       287.2220  -47.8520   -1.9390 C.3    49  ARG49       0.2205
      8  NE       287.3620  -48.4080   -3.2800 N.pl3  49  ARG49      -0.0865
      9  CZ       287.7500  -49.6530   -3.5390 C.cat  49  ARG49       0.5346
     10  NH1      288.0520  -50.4780   -2.5450 N.pl3  49  ARG49       0.1354
     11  NH2      287.8560  -50.0670   -4.7930 N.pl3  49  ARG49       0.1354
     12  N        295.2810  -42.5650   -6.2400 N.3    61  ILE61      -0.1245
     13  CA       294.1140  -42.3160   -5.4040 C.3    61  ILE61       0.1561
     14  C        294.4660  -42.6390   -3.9590 C.2    61  ILE61       0.2260
     15  O        295.4220  -43.3630   -3.6660 O.2    61  ILE61      -0.2867
     16  CB       292.8640  -43.1050   -5.8760 C.3    61  ILE61       0.0252
     17  CG1      291.5910  -42.5070   -5.2470 C.3    61  ILE61       0.0019
     18  CG2      292.9980  -44.5860   -5.5550 C.3    61  ILE61       0.0019
     19  CD1      290.2980  -42.7930   -6.0050 C.3    61  ILE61       0.0001
     20  N        292.1720  -43.6960   -0.4190 N.3    63  GLU63      -0.1245
     21  CA       290.8150  -44.1210   -0.0980 C.3    63  GLU63       0.1567
     22  C        290.6570  -44.4690    1.3750 C.2    63  GLU63       0.2260
     23  O        291.6150  -44.8450    2.0570 O.2    63  GLU63      -0.2867
     24  CB       290.4000  -45.3350   -0.9490 C.3    63  GLU63       0.0388
     25  CG       290.2500  -44.9690   -2.4110 C.3    63  GLU63       0.1160
     26  CD       290.2560  -46.1720   -3.3230 C.2    63  GLU63       0.3649
     27  OE1      290.6690  -47.2670   -2.8800 O.co2  63  GLU63      -0.2457
     28  OE2      289.8430  -46.0140   -4.4860 O.co2  63  GLU63      -0.2457
     29  N        287.9750  -46.7720    3.9220 N.3    65  MET65      -0.1245
     30  CA       287.1260  -47.9510    3.7640 C.3    65  MET65       0.1570
     31  C        286.6690  -48.4030    5.1390 C.2    65  MET65       0.2261
     32  O        287.3780  -49.1470    5.8300 O.2    65  MET65      -0.2867
     33  CB       287.8760  -49.0840    3.0510 C.3    65  MET65       0.0387
     34  CG       288.5960  -48.6440    1.7730 C.3    65  MET65       0.0595
     35  SD       289.6710  -49.9100    1.0430 S.3    65  MET65      -0.1393
     36  CE       288.5400  -51.2920    0.9260 C.3    65  MET65       0.0692
     37  N        290.1150  -48.9610    7.0300 N.3    77  LYS77      -0.1245
     38  CA       291.3730  -49.0420    6.3010 C.3    77  LYS77       0.1561
     39  C        291.5480  -47.7670    5.5010 C.2    77  LYS77       0.2260
     40  O        290.6290  -47.3450    4.7910 O.2    77  LYS77      -0.2867
     41  CB       291.4380  -50.2540    5.3660 C.3    77  LYS77       0.0271
     42  CG       292.8370  -50.3780    4.7240 C.3    77  LYS77       0.0035
     43  CD       293.0910  -51.7320    4.0710 C.3    77  LYS77       0.0206
     44  CE       292.5920  -51.7360    2.6230 C.3    77  LYS77       0.1093
     45  NZ       292.8990  -53.0540    1.9830 N.3    77  LYS77      -0.1314
     46  N        294.1000  -46.3200    2.6250 N.3    79  VAL79      -0.1231
     47  CA       295.0250  -46.9510    1.6820 C.3    79  VAL79       0.1692
     48  C        295.2710  -46.0230    0.4980 C.2    79  VAL79       0.2593
     49  O        294.3440  -45.4080   -0.0430 O.2    79  VAL79      -0.2718
     50  CB       294.5010  -48.3380    1.2290 C.3    79  VAL79       0.0266
     51  CG1      293.1570  -48.2250    0.5000 C.3    79  VAL79       0.0020
     52  CG2      295.5350  -49.0320    0.3430 C.3    79  VAL79       0.0020
     53  N        296.5330  -45.9360    0.0870 N.am   80  GLY80      -0.1942
     54  CA       296.9150  -45.1690   -1.0810 C.3    80  GLY80       0.2014
     55  C        297.2950  -46.0870   -2.2270 C.2    80  GLY80       0.2638
     56  O        297.8150  -47.1890   -2.0170 O.2    80  GLY80      -0.2714
     57  N        297.0180  -45.6270   -3.4370 N.am   81  TYR81      -0.1973
     58  CA       297.5040  -46.2280   -4.6750 C.3    81  TYR81       0.1639
     59  C        298.3930  -45.1900   -5.3390 C.2    81  TYR81       0.2290
     60  O        297.9090  -44.1400   -5.7890 O.2    81  TYR81      -0.2864
     61  CB       296.3440  -46.6280   -5.5820 C.3    81  TYR81       0.0560
     62  CG       296.7130  -46.8900   -7.0370 C.ar   81  TYR81      -0.0198
     63  CD1      297.3570  -48.0740   -7.4130 C.ar   81  TYR81      -0.0009
     64  CD2      296.4000  -45.9680   -8.0320 C.ar   81  TYR81      -0.0009
     65  CE1      297.6830  -48.3200   -8.7370 C.ar   81  TYR81       0.0417
     66  CE2      296.7140  -46.2090   -9.3620 C.ar   81  TYR81       0.0417
     67  CZ       297.3510  -47.3930   -9.7080 C.ar   81  TYR81       0.1957
     68  OH       297.6660  -47.6470  -11.0240 O.3    81  TYR81      -0.2866
     69  N        300.8700  -49.8200   -3.1520 N.3    94  ILE94      -0.1245
     70  CA       299.7490  -49.8320   -2.2200 C.3    94  ILE94       0.1561
     71  C        300.3210  -49.6660   -0.8190 C.2    94  ILE94       0.2260
     72  O        301.0990  -50.5070   -0.3500 O.2    94  ILE94      -0.2867
     73  CB       298.9340  -51.1310   -2.3480 C.3    94  ILE94       0.0252
     74  CG1      298.2440  -51.1920   -3.7170 C.3    94  ILE94       0.0019
     75  CG2      297.9370  -51.2880   -1.1720 C.3    94  ILE94       0.0019
     76  CD1      297.1610  -50.1070   -3.9360 C.3    94  ILE94       0.0001
     77  N        296.5470  -56.2410    3.0810 N.3   118  THR118     -0.1218
     78  CA       295.8380  -56.0040    1.8190 C.3   118  THR118      0.1862
     79  C        296.2020  -57.0580    0.7740 C.2   118  THR118      0.2287
     80  O        295.3200  -57.6300    0.1220 O.2   118  THR118     -0.2866
     81  CB       296.1370  -54.5960    1.2870 C.3   118  THR118      0.1770
     82  OG1      295.5830  -53.6120    2.1760 O.3   118  THR118     -0.2211
     83  CG2      295.5360  -54.3890   -0.0980 C.3   118  THR118      0.0375
     84  N        294.4930  -60.4990    1.8120 N.3   121  ARG121     -0.1245
     85  CA       293.0610  -60.7140    1.6260 C.3   121  ARG121      0.1563
     86  C        292.6590  -60.5610    0.1640 C.2   121  ARG121      0.2260
     87  O        291.6520  -61.1350   -0.2480 O.2   121  ARG121     -0.2867
     88  CB       292.2160  -59.8000    2.5410 C.3   121  ARG121      0.0307
     89  CG       292.4410  -58.2850    2.4350 C.3   121  ARG121      0.0489
     90  CD       291.8240  -57.7060    1.1740 C.3   121  ARG121      0.2205
     91  NE       291.2300  -56.3950    1.3720 N.pl3 121  ARG121     -0.0865
     92  CZ       291.0150  -55.5270    0.3900 C.cat 121  ARG121      0.5346
     93  NH1      291.3750  -55.8300   -0.8460 N.pl3 121  ARG121      0.1354
     94  NH2      290.4420  -54.3540    0.6440 N.pl3 121  ARG121      0.1354
     95  N        291.4670  -57.7560  -10.8530 N.3   233  VAL233     -0.1245
     96  CA       291.8710  -57.3250   -9.5160 C.3   233  VAL233      0.1561
     97  C        292.2940  -55.8580   -9.5400 C.2   233  VAL233      0.2260
     98  O        292.0940  -55.1290   -8.5610 O.2   233  VAL233     -0.2867
     99  CB       292.9960  -58.2410   -8.9810 C.3   233  VAL233      0.0252
    100  CG1      293.6240  -57.6740   -7.7060 C.3   233  VAL233      0.0019
    101  CG2      292.4390  -59.6310   -8.7160 C.3   233  VAL233      0.0019
    102  N        292.2460  -52.0640   -9.7890 N.3   235  ALA235     -0.1231
    103  CA       291.1900  -51.1010   -9.4980 C.3   235  ALA235      0.1694
    104  C        291.8020  -49.9300   -8.7510 C.2   235  ALA235      0.2592
    105  O        292.5710  -50.1270   -7.8020 O.2   235  ALA235     -0.2718
    106  CB       290.0630  -51.7320   -8.6620 C.3   235  ALA235      0.0304
    107  N        291.4720  -48.7140   -9.1740 N.am  236  ASP236     -0.1974
    108  CA       291.9520  -47.5180   -8.5000 C.3   236  ASP236      0.1709
    109  C        291.1110  -46.3170   -8.9200 C.2   236  ASP236      0.2293
    110  O        290.1080  -46.0040   -8.2670 O.2   236  ASP236     -0.2864
    111  CB       293.4550  -47.3130   -8.7660 C.3   236  ASP236      0.1436
    112  CG       293.8470  -47.5070  -10.2480 C.2   236  ASP236      0.3671
    113  OD1      293.4790  -46.6570  -11.0870 O.co2 236  ASP236     -0.2456
    114  OD2      294.5220  -48.5140  -10.5680 O.co2 236  ASP236     -0.2456
    115  N        287.1630  -55.2720   -6.4500 N.3   302  THR302     -0.1218
    116  CA       287.5290  -53.9180   -6.0640 C.3   302  THR302      0.1862
    117  C        288.1150  -53.8320   -4.6620 C.2   302  THR302      0.2287
    118  O        288.7690  -52.8340   -4.3430 O.2   302  THR302     -0.2866
    119  CB       286.3010  -52.9930   -6.1300 C.3   302  THR302      0.1770
    120  OG1      285.3250  -53.4200   -5.1600 O.3   302  THR302     -0.2211
    121  CG2      285.6810  -53.0430   -7.5220 C.3   302  THR302      0.0375
@<TRIPOS>BOND
     1   113   112   ar
     2    68    67    1
     3    95    96    1
     4   114   112   ar
     5   112   111    1
     6   102   103    1
     7    67    66   ar
     8    67    65   ar
     9    97    96    1
    10    97    98    2
    11    96    99    1
    12   103   104    1
    13   103   106    1
    14    66    64   ar
    15   107   104   am
    16   107   108    1
    17    99   101    1
    18    99   100    1
    19   109   108    1
    20   109   110    2
    21   111   108    1
    22   104   105    2
    23    65    63   ar
    24    64    62   ar
    25   121   119    1
    26    63    62   ar
    27    62    61    1
    28   115   116    1
    29    12    13    1
    30   119   116    1
    31   119   120    1
    32   116   117    1
    33    19    17    1
    34    16    18    1
    35    16    13    1
    36    16    17    1
    37    60    59    2
    38    61    58    1
    39    13    14    1
    40    59    58    1
    41    11     9    1
    42    58    57    1
    43   117   118    2
    44    28    26   ar
    45    14    15    2
    46    76    74    1
    47    74    73    1
    48     9     8    2
    49     9    10    1
    50    57    55   am
    51    26    27   ar
    52    26    25    1
    53     8     7    1
    54    69    70    1
    55    25    24    1
    56    73    70    1
    57    73    75    1
    58    55    56    2
    59    55    54    1
    60    70    71    1
    61     7     6    1
    62     6     5    1
    63     4     3    2
    64    54    53    1
    65    24    21    1
    66    93    92    1
    67    71    72    2
    68    20    21    1
    69     3     2    1
    70     1     2    1
    71    87    86    2
    72     5     2    1
    73    21    22    1
    74    83    81    1
    75    49    48    2
    76    53    48   am
    77    80    79    2
    78    86    85    1
    79    52    50    1
    80    92    94    1
    81    92    91    2
    82    48    47    1
    83    51    50    1
    84    79    78    1
    85    36    35    1
    86    35    34    1
    87    90    91    1
    88    90    89    1
    89    50    47    1
    90    81    78    1
    91    81    82    1
    92    22    23    2
    93    85    84    1
    94    85    88    1
    95    47    46    1
    96    34    33    1
    97    78    77    1
    98    45    44    1
    99    89    88    1
   100    44    43    1
   101    33    30    1
   102    30    29    1
   103    30    31    1
   104    43    42    1
   105    42    41    1
   106    40    39    2
   107    31    32    2
   108    41    38    1
   109    39    38    1
   110    38    37    1
