@<TRIPOS>MOLECULE
tmp/5yu3A01.pdb
 118 108 0 0 0
SMALL
GASTEIGER

@<TRIPOS>ATOM
      1  N        -23.4630  -12.2210   46.5700 N.3    49  ARG49      -0.1245
      2  CA       -23.9090  -13.3840   45.8280 C.3    49  ARG49       0.1563
      3  C        -22.9160  -14.5330   46.0000 C.2    49  ARG49       0.2260
      4  O        -21.8240  -14.3760   46.5580 O.2    49  ARG49      -0.2867
      5  CB       -24.0870  -13.0380   44.3480 C.3    49  ARG49       0.0307
      6  CG       -22.8220  -12.5700   43.6650 C.3    49  ARG49       0.0489
      7  CD       -23.0320  -12.4010   42.1610 C.3    49  ARG49       0.2205
      8  NE       -21.9040  -11.7180   41.5280 N.pl3  49  ARG49      -0.0865
      9  CZ       -21.9980  -10.5630   40.8740 C.cat  49  ARG49       0.5346
     10  NH1      -23.1730   -9.9700   40.7510 N.pl3  49  ARG49       0.1354
     11  NH2      -20.9150  -10.0070   40.3320 N.pl3  49  ARG49       0.1354
     12  N        -18.8650  -19.0030   35.1420 N.3    61  ILE61      -0.1245
     13  CA       -19.3620  -19.1060   36.5090 C.3    61  ILE61       0.1561
     14  C        -20.8810  -19.0880   36.4650 C.2    61  ILE61       0.2260
     15  O        -21.4870  -18.5270   35.5520 O.2    61  ILE61      -0.2867
     16  CB       -18.7870  -17.9800   37.4140 C.3    61  ILE61       0.0252
     17  CG1      -19.0420  -18.2860   38.8980 C.3    61  ILE61       0.0019
     18  CG2      -19.3290  -16.6000   37.0270 C.3    61  ILE61       0.0019
     19  CD1      -18.2790  -17.3700   39.8610 C.3    61  ILE61       0.0001
     20  N        -24.1500  -18.3450   39.1000 N.3    63  GLU63      -0.1245
     21  CA       -24.3200  -17.6470   40.3660 C.3    63  GLU63       0.1567
     22  C        -25.7770  -17.5980   40.8010 C.2    63  GLU63       0.2260
     23  O        -26.7040  -17.6650   39.9890 O.2    63  GLU63      -0.2867
     24  CB       -23.7630  -16.2180   40.2840 C.3    63  GLU63       0.0388
     25  CG       -22.2630  -16.1900   40.0290 C.3    63  GLU63       0.1160
     26  CD       -21.7270  -14.7910   39.7790 C.2    63  GLU63       0.3649
     27  OE1      -22.2600  -14.0860   38.9020 O.co2  63  GLU63      -0.2457
     28  OE2      -20.7720  -14.3890   40.4680 O.co2  63  GLU63      -0.2457
     29  N        -28.2500  -15.0800   43.2990 N.3    65  MET65      -0.1245
     30  CA       -28.3070  -13.6990   43.7750 C.3    65  MET65       0.1570
     31  C        -29.6430  -13.4610   44.4710 C.2    65  MET65       0.2261
     32  O        -30.6490  -13.1340   43.8210 O.2    65  MET65      -0.2867
     33  CB       -28.1060  -12.7170   42.6170 C.3    65  MET65       0.0387
     34  CG       -26.8540  -13.0090   41.8050 C.3    65  MET65       0.0595
     35  SD       -26.6370  -12.0000   40.3230 S.3    65  MET65      -0.1393
     36  CE       -26.7930  -10.3350   40.9780 C.3    65  MET65       0.0692
     37  N        -32.2130  -14.4030   41.5930 N.3    77  LYS77      -0.1245
     38  CA       -31.7780  -14.5790   40.2190 C.3    77  LYS77       0.1561
     39  C        -30.7110  -15.6590   40.1580 C.2    77  LYS77       0.2260
     40  O        -29.7680  -15.6700   40.9630 O.2    77  LYS77      -0.2867
     41  CB       -31.2580  -13.2850   39.5850 C.3    77  LYS77       0.0271
     42  CG       -30.8580  -13.5360   38.1190 C.3    77  LYS77       0.0035
     43  CD       -30.6510  -12.2530   37.3110 C.3    77  LYS77       0.0206
     44  CE       -29.2030  -11.7860   37.3890 C.3    77  LYS77       0.1093
     45  NZ       -29.0280  -10.4630   36.7370 N.3    77  LYS77      -0.1314
     46  N        -28.0880  -17.1940   37.3610 N.3    79  VAL79      -0.1231
     47  CA       -27.5570  -16.6660   36.1110 C.3    79  VAL79       0.1692
     48  C        -26.1800  -17.2570   35.8510 C.2    79  VAL79       0.2593
     49  O        -25.3290  -17.3160   36.7470 O.2    79  VAL79      -0.2718
     50  CB       -27.5250  -15.1240   36.1390 C.3    79  VAL79       0.0266
     51  CG1      -26.7680  -14.6150   37.3790 C.3    79  VAL79       0.0020
     52  CG2      -26.9130  -14.5850   34.8530 C.3    79  VAL79       0.0020
     53  N        -25.9640  -17.7020   34.6170 N.am   80  GLY80      -0.1942
     54  CA       -24.6680  -18.1930   34.1960 C.3    80  GLY80       0.2014
     55  C        -23.9160  -17.1710   33.3610 C.2    80  GLY80       0.2638
     56  O        -24.5100  -16.3740   32.6370 O.2    80  GLY80      -0.2714
     57  N        -22.5920  -17.2020   33.4870 N.am   81  TYR81      -0.1973
     58  CA       -21.6700  -16.5080   32.5900 C.3    81  TYR81       0.1639
     59  C        -20.8840  -17.6020   31.8840 C.2    81  TYR81       0.2290
     60  O        -20.1260  -18.3360   32.5280 O.2    81  TYR81      -0.2864
     61  CB       -20.7500  -15.5640   33.3630 C.3    81  TYR81       0.0560
     62  CG       -19.5080  -15.1320   32.6090 C.ar   81  TYR81      -0.0198
     63  CD1      -19.5740  -14.1490   31.6270 C.ar   81  TYR81      -0.0009
     64  CD2      -18.2680  -15.6930   32.8980 C.ar   81  TYR81      -0.0009
     65  CE1      -18.4240  -13.7360   30.9370 C.ar   81  TYR81       0.0417
     66  CE2      -17.1110  -15.2800   32.2220 C.ar   81  TYR81       0.0417
     67  CZ       -17.2010  -14.3030   31.2390 C.ar   81  TYR81       0.1957
     68  OH       -16.0640  -13.8820   30.5610 O.3    81  TYR81      -0.2866
     69  N        -24.6470  -14.5580   28.8910 N.3    94  ILE94      -0.1245
     70  CA       -25.4070  -14.3910   30.1270 C.3    94  ILE94       0.1561
     71  C        -26.7630  -15.0620   29.9280 C.2    94  ILE94       0.2260
     72  O        -27.5760  -14.6230   29.1060 O.2    94  ILE94      -0.2867
     73  CB       -25.5630  -12.9110   30.5030 C.3    94  ILE94       0.0252
     74  CG1      -24.1900  -12.2740   30.7980 C.3    94  ILE94       0.0019
     75  CG2      -26.5180  -12.7470   31.6980 C.3    94  ILE94       0.0019
     76  CD1      -23.4380  -12.9190   31.9650 C.3    94  ILE94       0.0001
     77  N        -31.6650   -8.7410   32.7340 N.3   118  THR118     -0.1218
     78  CA       -30.2880   -8.4630   33.1570 C.3   118  THR118      0.1862
     79  C        -29.6750   -7.3760   32.2790 C.2   118  THR118      0.2287
     80  O        -29.0710   -6.4160   32.7770 O.2   118  THR118     -0.2866
     81  CB       -29.4270   -9.7370   33.1110 C.3   118  THR118      0.1770
     82  OG1      -29.8870  -10.6750   34.1000 O.3   118  THR118     -0.2211
     83  CG2      -27.9410   -9.4150   33.4030 C.3   118  THR118      0.0375
     84  N        -31.3420   -3.8810   33.2340 N.3   121  ARG121     -0.1245
     85  CA       -30.9740   -3.2010   34.4760 C.3   121  ARG121      0.1563
     86  C        -29.4800   -2.8920   34.5330 C.2   121  ARG121      0.2260
     87  O        -29.0710   -1.9930   35.2830 O.2   121  ARG121     -0.2867
     88  CB       -31.4400   -4.0060   35.7120 C.3   121  ARG121      0.0307
     89  CG       -30.9490   -5.4510   35.8570 C.3   121  ARG121      0.0489
     90  CD       -29.4660   -5.5110   36.2420 C.3   121  ARG121      0.2205
     91  NE       -29.1460   -6.5870   37.1700 N.pl3 121  ARG121     -0.0865
     92  CZ       -27.9150   -7.0450   37.3900 C.cat 121  ARG121      0.5346
     93  NH1      -26.8720   -6.5480   36.7110 N.pl3 121  ARG121      0.1354
     94  NH2      -27.7250   -8.0170   38.2840 N.pl3 121  ARG121      0.1354
     95  N        -17.4810   -8.3380   34.6920 N.3   235  ALA235     -0.1231
     96  CA       -17.4620   -8.9070   36.0380 C.3   235  ALA235      0.1694
     97  C        -17.9000  -10.3560   35.9610 C.2   235  ALA235      0.2592
     98  O        -18.9720  -10.6390   35.4220 O.2   235  ALA235     -0.2718
     99  CB       -18.3960   -8.1550   36.9980 C.3   235  ALA235      0.0304
    100  N        -17.0820  -11.2690   36.4810 N.am  236  ASP236     -0.1974
    101  CA       -17.4580  -12.6760   36.5460 C.3   236  ASP236      0.1709
    102  C        -16.5770  -13.4380   37.5310 C.2   236  ASP236      0.2293
    103  O        -16.9840  -13.6720   38.6750 O.2   236  ASP236     -0.2864
    104  CB       -17.4240  -13.3040   35.1460 C.3   236  ASP236      0.1436
    105  CG       -16.1640  -12.9420   34.3510 C.2   236  ASP236      0.3671
    106  OD1      -16.2930  -12.2500   33.3130 O.co2 236  ASP236     -0.2456
    107  OD2      -15.0580  -13.3830   34.7340 O.co2 236  ASP236     -0.2456
    108  N        -20.8360   -4.4090   39.3700 N.3   302  THR302     -0.1203
    109  CA       -20.8240   -5.8580   39.4830 C.3   302  THR302      0.1994
    110  C        -22.2060   -6.4720   39.3710 C.2   302  THR302      0.2618
    111  O        -22.3030   -7.6720   39.0780 O.2   302  THR302     -0.2717
    112  CB       -20.2020   -6.3010   40.8210 C.3   302  THR302      0.1784
    113  OG1      -21.0070   -5.8170   41.9070 O.3   302  THR302     -0.2211
    114  CG2      -18.7820   -5.7520   40.9450 C.3   302  THR302      0.0376
    115  N        -23.2630   -5.6810   39.5690 N.am  303  GLY303     -0.1956
    116  CA       -24.6320   -6.1720   39.5570 C.3   303  GLY303      0.1869
    117  C        -25.0070   -6.7210   40.9170 C.2   303  GLY303      0.2309
    118  O        -24.2050   -7.4160   41.5460 O.2   303  GLY303     -0.2863
@<TRIPOS>BOND
     1    69    70    1
     2    72    71    2
     3    71    70    1
     4    70    73    1
     5    73    74    1
     6    73    75    1
     7    68    67    1
     8    74    76    1
     9    65    67   ar
    10    65    63   ar
    11    67    66   ar
    12    63    62   ar
    13    59    60    2
    14    59    58    1
    15    66    64   ar
    16    79    80    2
    17    79    78    1
    18    58    61    1
    19    58    57    1
    20    62    64   ar
    21    62    61    1
    22    56    55    2
    23    77    78    1
    24    81    78    1
    25    81    83    1
    26    81    82    1
    27    84    85    1
    28   106   105   ar
    29    55    57   am
    30    55    54    1
    31    54    53    1
    32   105   107   ar
    33   105   104    1
    34    85    86    1
    35    85    88    1
    36    86    87    2
    37    53    48   am
    38    95    96    1
    39    52    50    1
    40    12    13    1
    41   104   101    1
    42    98    97    2
    43    15    14    2
    44    88    89    1
    45    48    47    1
    46    48    49    2
    47    89    90    1
    48    97    96    1
    49    97   100   am
    50    96    99    1
    51    47    50    1
    52    47    46    1
    53    50    51    1
    54    90    91    1
    55    14    13    1
    56   100   101    1
    57    13    16    1
    58   101   102    1
    59    93    92    1
    60    45    44    1
    61    18    16    1
    62    91    92    2
    63    43    44    1
    64    43    42    1
    65    92    94    1
    66    16    17    1
    67   102   103    2
    68    42    41    1
    69    17    19    1
    70    27    26   ar
    71   111   110    2
    72    20    21    1
    73   108   109    1
    74   110   109    1
    75   110   115   am
    76   109   112    1
    77   116   115    1
    78   116   117    1
    79    41    38    1
    80    26    25    1
    81    26    28   ar
    82    23    22    2
    83    25    24    1
    84    39    38    1
    85    39    40    2
    86    38    37    1
    87    24    21    1
    88    35    36    1
    89    35    34    1
    90    11     9    1
    91    21    22    1
    92    10     9    1
    93   112   114    1
    94   112   113    1
    95     9     8    2
    96   117   118    2
    97     8     7    1
    98    34    33    1
    99     7     6    1
   100    33    30    1
   101    29    30    1
   102     6     5    1
   103    30    31    1
   104    32    31    2
   105     5     2    1
   106     2     3    1
   107     2     1    1
   108     3     4    2
