@<TRIPOS>MOLECULE
tmp/5yu4C01.pdb
 118 108 0 0 0
SMALL
GASTEIGER

@<TRIPOS>ATOM
      1  N        -59.8710   15.2050   -5.3170 N.3    49  ARG49      -0.1245
      2  CA       -58.8030   14.2960   -5.6840 C.3    49  ARG49       0.1563
      3  C        -59.2230   13.4430   -6.8820 C.2    49  ARG49       0.2260
      4  O        -60.3880   13.3990   -7.2730 O.2    49  ARG49      -0.2867
      5  CB       -58.4160   13.4240   -4.4970 C.3    49  ARG49       0.0307
      6  CG       -59.5010   12.5060   -4.0600 C.3    49  ARG49       0.0489
      7  CD       -59.0150   11.5390   -2.9930 C.3    49  ARG49       0.2205
      8  NE       -60.1630   10.9650   -2.3150 N.pl3  49  ARG49      -0.0865
      9  CZ       -60.3170   10.9180   -1.0030 C.cat  49  ARG49       0.5346
     10  NH1      -59.3640   11.3670   -0.2060 N.pl3  49  ARG49       0.1354
     11  NH2      -61.4150   10.3840   -0.4890 N.pl3  49  ARG49       0.1354
     12  N        -57.9310    1.3230   -5.1000 N.3    61  ILE61      -0.1245
     13  CA       -57.7820    2.5300   -5.8940 C.3    61  ILE61       0.1561
     14  C        -56.4520    3.1730   -5.5410 C.2    61  ILE61       0.2260
     15  O        -55.9300    2.9920   -4.4410 O.2    61  ILE61      -0.2867
     16  CB       -58.9910    3.4770   -5.6730 C.3    61  ILE61       0.0252
     17  CG1      -59.0020    4.5940   -6.7190 C.3    61  ILE61       0.0019
     18  CG2      -59.0440    3.9850   -4.2260 C.3    61  ILE61       0.0019
     19  CD1      -60.2380    5.4970   -6.6430 C.3    61  ILE61       0.0001
     20  N        -54.5790    7.0080   -5.7580 N.3    63  GLU63      -0.1245
     21  CA       -55.1060    8.3620   -5.8460 C.3    63  GLU63       0.1567
     22  C        -54.0050    9.4010   -5.7260 C.2    63  GLU63       0.2260
     23  O        -53.0040    9.1960   -5.0350 O.2    63  GLU63      -0.2867
     24  CB       -56.1590    8.6310   -4.7630 C.3    63  GLU63       0.0388
     25  CG       -57.4890    7.9030   -5.0140 C.3    63  GLU63       0.1160
     26  CD       -58.4450    7.9800   -3.8330 C.2    63  GLU63       0.3649
     27  OE1      -57.9790    7.9010   -2.6730 O.co2  63  GLU63      -0.2457
     28  OE2      -59.6670    8.1320   -4.0670 O.co2  63  GLU63      -0.2457
     29  N        -53.6490   13.5060   -4.6500 N.3    65  MET65      -0.1245
     30  CA       -54.3720   14.4670   -3.8170 C.3    65  MET65       0.1570
     31  C        -53.5720   15.7610   -3.7640 C.2    65  MET65       0.2261
     32  O        -52.6760   15.9180   -2.9260 O.2    65  MET65      -0.2867
     33  CB       -54.6100   13.9020   -2.4160 C.3    65  MET65       0.0387
     34  CG       -55.3840   12.5810   -2.4200 C.3    65  MET65       0.0595
     35  SD       -55.5840   11.8650   -0.7760 S.3    65  MET65      -0.1393
     36  CE       -56.3700   13.2460    0.0610 C.3    65  MET65       0.0692
     37  N        -50.0860   14.3640   -2.3340 N.3    77  LYS77      -0.1245
     38  CA       -50.0340   13.0280   -1.7540 C.3    77  LYS77       0.1561
     39  C        -50.4640   12.0040   -2.7950 C.2    77  LYS77       0.2260
     40  O        -51.5230   12.1440   -3.4130 O.2    77  LYS77      -0.2867
     41  CB       -50.9180   12.8850   -0.5140 C.3    77  LYS77       0.0271
     42  CG       -50.7540   11.4930    0.1100 C.3    77  LYS77       0.0035
     43  CD       -51.2950   11.3940    1.5260 C.3    77  LYS77       0.0206
     44  CE       -52.7980   11.1700    1.5220 C.3    77  LYS77       0.1093
     45  NZ       -53.2440   10.9510    2.9210 N.3    77  LYS77      -0.1314
     46  N        -51.3610    8.0130   -2.9600 N.3    79  VAL79      -0.1231
     47  CA       -51.7460    7.0570   -1.9260 C.3    79  VAL79       0.1692
     48  C        -52.5420    5.9280   -2.5590 C.2    79  VAL79       0.2593
     49  O        -53.4330    6.1530   -3.3840 O.2    79  VAL79      -0.2718
     50  CB       -52.5350    7.7510   -0.7920 C.3    79  VAL79       0.0266
     51  CG1      -53.7890    8.4380   -1.3330 C.3    79  VAL79       0.0020
     52  CG2      -52.8960    6.7550    0.3150 C.3    79  VAL79       0.0020
     53  N        -52.2070    4.7120   -2.1720 N.am   80  GLY80      -0.1942
     54  CA       -52.9350    3.5380   -2.6010 C.3    80  GLY80       0.2014
     55  C        -53.8170    2.9780   -1.5000 C.2    80  GLY80       0.2638
     56  O        -53.5140    3.0830   -0.3120 O.2    80  GLY80      -0.2714
     57  N        -54.9320    2.3970   -1.9220 N.am   81  TYR81      -0.1973
     58  CA       -55.8100    1.6140   -1.0640 C.3    81  TYR81       0.1639
     59  C        -55.8530    0.2200   -1.6750 C.2    81  TYR81       0.2290
     60  O        -56.3750    0.0420   -2.7770 O.2    81  TYR81      -0.2864
     61  CB       -57.1980    2.2430   -0.9810 C.3    81  TYR81       0.0560
     62  CG       -58.2720    1.3320   -0.4310 C.ar   81  TYR81      -0.0198
     63  CD1      -58.3640    1.0710    0.9350 C.ar   81  TYR81      -0.0009
     64  CD2      -59.2030    0.7460   -1.2750 C.ar   81  TYR81      -0.0009
     65  CE1      -59.3580    0.2480    1.4420 C.ar   81  TYR81       0.0417
     66  CE2      -60.1990   -0.0740   -0.7830 C.ar   81  TYR81       0.0417
     67  CZ       -60.2660   -0.3260    0.5790 C.ar   81  TYR81       0.1957
     68  OH       -61.2690   -1.1380    1.0660 O.3    81  TYR81      -0.2866
     69  N        -53.1380    1.0480    3.3150 N.3    94  ILE94      -0.1245
     70  CA       -52.9410    2.4220    2.8660 C.3    94  ILE94       0.1561
     71  C        -51.4410    2.6440    2.7460 C.2    94  ILE94       0.2260
     72  O        -50.7110    2.5750    3.7430 O.2    94  ILE94      -0.2867
     73  CB       -53.5860    3.4310    3.8350 C.3    94  ILE94       0.0252
     74  CG1      -55.1230    3.3680    3.7560 C.3    94  ILE94       0.0019
     75  CG2      -53.0600    4.8460    3.5640 C.3    94  ILE94       0.0019
     76  CD1      -55.6980    3.7440    2.3690 C.3    94  ILE94       0.0001
     77  N        -50.6310    9.8870    7.1590 N.3   118  THR118     -0.1218
     78  CA       -52.0520    9.6920    6.8670 C.3   118  THR118      0.1862
     79  C        -52.8160    9.2490    8.1060 C.2   118  THR118      0.2287
     80  O        -53.8740    9.7990    8.4390 O.2   118  THR118     -0.2866
     81  CB       -52.2160    8.6550    5.7510 C.3   118  THR118      0.1770
     82  OG1      -51.7360    9.2020    4.5230 O.3   118  THR118     -0.2211
     83  CG2      -53.6870    8.2830    5.5690 C.3   118  THR118      0.0375
     84  N        -53.1280   12.2980   10.6910 N.3   121  ARG121     -0.1245
     85  CA       -54.0740   13.3760   10.4100 C.3   121  ARG121      0.1563
     86  C        -55.4990   12.8490   10.2980 C.2   121  ARG121      0.2260
     87  O        -56.4480   13.5970   10.5550 O.2   121  ARG121     -0.2867
     88  CB       -53.6680   14.1870    9.1480 C.3   121  ARG121      0.0307
     89  CG       -53.5170   13.4230    7.8030 C.3   121  ARG121      0.0489
     90  CD       -54.8870   13.0320    7.1980 C.3   121  ARG121      0.2205
     91  NE       -54.9180   13.0710    5.7350 N.pl3 121  ARG121     -0.0865
     92  CZ       -55.8400   12.4600    4.9870 C.cat 121  ARG121      0.5346
     93  NH1      -56.7900   11.7110    5.5580 N.pl3 121  ARG121      0.1354
     94  NH2      -55.8110   12.5870    3.6660 N.pl3 121  ARG121      0.1354
     95  N        -63.4370    4.9430    3.3630 N.3   235  ALA235     -0.1231
     96  CA       -63.5370    5.7390    2.1470 C.3   235  ALA235      0.1694
     97  C        -62.4570    5.3220    1.1610 C.2   235  ALA235      0.2592
     98  O        -61.2600    5.3980    1.4680 O.2   235  ALA235     -0.2718
     99  CB       -63.3900    7.2370    2.4460 C.3   235  ALA235      0.0304
    100  N        -62.8790    4.9040   -0.0240 N.am  236  ASP236     -0.1974
    101  CA       -61.9590    4.5120   -1.0770 C.3   236  ASP236      0.1709
    102  C        -62.6630    4.5780   -2.4260 C.2   236  ASP236      0.2293
    103  O        -62.4190    5.4910   -3.2270 O.2   236  ASP236     -0.2864
    104  CB       -61.3940    3.1130   -0.7850 C.3   236  ASP236      0.1436
    105  CG       -62.4800    2.0760   -0.4880 C.2   236  ASP236      0.3671
    106  OD1      -62.6280    1.7220    0.7080 O.co2 236  ASP236     -0.2456
    107  OD2      -63.1600    1.6010   -1.4330 O.co2 236  ASP236     -0.2456
    108  N        -63.5900   11.9340    4.3820 N.3   302  THR302     -0.1203
    109  CA       -62.9410   11.3730    3.2120 C.3   302  THR302      0.1994
    110  C        -61.4400   11.6120    3.1980 C.2   302  THR302      0.2618
    111  O        -60.7180   10.8600    2.5320 O.2   302  THR302     -0.2717
    112  CB       -63.5420   11.9590    1.9210 C.3   302  THR302      0.1784
    113  OG1      -63.3760   13.3900    1.9110 O.3   302  THR302     -0.2211
    114  CG2      -65.0230   11.6120    1.8370 C.3   302  THR302      0.0376
    115  N        -60.9600   12.6210    3.9310 N.am  303  GLY303     -0.1956
    116  CA       -59.5760   13.0480    3.8700 C.3   303  GLY303      0.1869
    117  C        -59.3410   13.9650    2.6830 C.2   303  GLY303      0.2309
    118  O        -59.8460   13.7030    1.5820 O.2   303  GLY303     -0.2863
@<TRIPOS>BOND
     1     4     3    2
     2     3     2    1
     3    17    19    1
     4    17    16    1
     5    13    16    1
     6    13    14    1
     7    13    12    1
     8    21    20    1
     9    21    22    1
    10    21    24    1
    11    22    23    2
    12     2     1    1
    13     2     5    1
    14    16    18    1
    15    14    15    2
    16    25    24    1
    17    25    26    1
    18    29    30    1
    19     5     6    1
    20    28    26   ar
    21     6     7    1
    22    26    27   ar
    23    30    31    1
    24    30    33    1
    25    31    32    2
    26    40    39    2
    27    49    48    2
    28   103   102    2
    29     7     8    1
    30    46    47    1
    31    39    38    1
    32    60    59    2
    33    54    53    1
    34    54    55    1
    35    48    53   am
    36    48    47    1
    37   102   101    1
    38    34    33    1
    39    34    35    1
    40    37    38    1
    41     8     9    2
    42    47    50    1
    43    57    55   am
    44    57    58    1
    45    38    41    1
    46    59    58    1
    47    55    56    2
    48   107   105   ar
    49    51    50    1
    50    64    66   ar
    51    64    62   ar
    52   101   104    1
    53   101   100    1
    54    58    61    1
    55     9    11    1
    56     9    10    1
    57    61    62    1
    58    50    52    1
    59   104   105    1
    60    66    67   ar
    61    35    36    1
    62    41    42    1
    63   105   106   ar
    64    62    63   ar
    65   100    97   am
    66    42    43    1
    67    67    68    1
    68    67    65   ar
    69    63    65   ar
    70    97    98    2
    71    97    96    1
    72    44    43    1
    73    44    45    1
    74   118   117    2
    75   114   112    1
    76   113   112    1
    77   112   109    1
    78    96    99    1
    79    96    95    1
    80    76    74    1
    81   111   110    2
    82   117   116    1
    83    71    70    1
    84    71    72    2
    85    70    69    1
    86    70    73    1
    87   110   109    1
    88   110   115   am
    89   109   108    1
    90    75    73    1
    91    94    92    1
    92    74    73    1
    93   116   115    1
    94    82    81    1
    95    92    93    1
    96    92    91    2
    97    83    81    1
    98    91    90    1
    99    81    78    1
   100    78    77    1
   101    78    79    1
   102    90    89    1
   103    89    88    1
   104    79    80    2
   105    88    85    1
   106    86    85    1
   107    86    87    2
   108    85    84    1
