@<TRIPOS>MOLECULE
tmp/5yu9B00.pdb
 192 179 0 0 0
SMALL
GASTEIGER

@<TRIPOS>ATOM
      1  N        -26.0400    2.2210    1.8010 N.3    20  LEU20      -0.1231
      2  CA       -26.2700    1.5260    3.0570 C.3    20  LEU20       0.1693
      3  C        -24.9830    1.3470    3.8520 C.2    20  LEU20       0.2593
      4  O        -24.9620    1.5480    5.0520 O.2    20  LEU20      -0.2718
      5  CB       -26.9380    0.1820    2.7990 C.3    20  LEU20       0.0284
      6  CG       -28.3720    0.2670    2.3020 C.3    20  LEU20       0.0019
      7  CD1      -28.9590   -1.1250    2.2160 C.3    20  LEU20       0.0001
      8  CD2      -29.1890    1.1560    3.2170 C.3    20  LEU20       0.0001
      9  N        -23.9280    0.9320    3.1670 N.am   21  GLY21      -0.1942
     10  CA       -22.6030    0.7990    3.7440 C.3    21  GLY21       0.2014
     11  C        -21.5520    0.7090    2.6620 C.2    21  GLY21       0.2639
     12  O        -21.8490    0.3300    1.5400 O.2    21  GLY21      -0.2714
     13  N        -20.3120    1.0310    3.0100 N.am   22  SER22      -0.1949
     14  CA       -19.1910    0.9900    2.0850 C.3    22  SER22       0.1924
     15  C        -18.2230   -0.0220    2.6630 C.2    22  SER22       0.2314
     16  O        -17.9910   -0.1590    3.8310 O.2    22  SER22      -0.2863
     17  CB       -18.6540    2.3920    1.8080 C.3    22  SER22       0.2116
     18  OG       -19.6380    3.3800    2.0410 O.3    22  SER22      -0.2180
     19  N        -22.4540   -0.8060   -0.7970 N.3    28  VAL28      -0.1245
     20  CA       -23.7950   -1.3490   -0.8840 C.3    28  VAL28       0.1561
     21  C        -24.8630   -0.2650   -0.8840 C.2    28  VAL28       0.2260
     22  O        -24.8280    0.6340   -0.0650 O.2    28  VAL28      -0.2867
     23  CB       -24.0770   -2.3220    0.2680 C.3    28  VAL28       0.0252
     24  CG1      -25.4670   -2.9090    0.1300 C.3    28  VAL28       0.0019
     25  CG2      -23.0340   -3.4180    0.2980 C.3    28  VAL28       0.0019
     26  N        -31.1790   -4.6840   -3.2170 N.3    45  ALA45      -0.1245
     27  CA       -29.8980   -4.3070   -2.6730 C.3    45  ALA45       0.1562
     28  C        -28.8760   -4.5200   -3.7550 C.2    45  ALA45       0.2260
     29  O        -28.8810   -5.5390   -4.4180 O.2    45  ALA45      -0.2867
     30  CB       -29.5630   -5.1370   -1.4530 C.3    45  ALA45       0.0290
     31  N        -24.7290   -4.3170   -4.6880 N.3    47  LYS47      -0.1245
     32  CA       -23.3650   -4.1570   -4.2290 C.3    47  LYS47       0.1561
     33  C        -22.4570   -3.8100   -5.3880 C.2    47  LYS47       0.2260
     34  O        -22.2270   -4.6230   -6.2660 O.2    47  LYS47      -0.2867
     35  CB       -22.8700   -5.4090   -3.5250 C.3    47  LYS47       0.0271
     36  CG       -21.3840   -5.3990   -3.2350 C.3    47  LYS47       0.0035
     37  CD       -20.9790   -6.5780   -2.3730 C.3    47  LYS47       0.0206
     38  CE       -21.5940   -6.4920   -0.9910 C.3    47  LYS47       0.1093
     39  NZ       -20.9280   -7.3930   -0.0230 N.3    47  LYS47      -0.1314
     40  N        -22.6650  -18.5140   -8.1150 N.3    63  MET63      -0.1245
     41  CA       -23.2010  -17.7810   -6.9810 C.3    63  MET63       0.1570
     42  C        -24.7280  -17.7720   -7.0400 C.2    63  MET63       0.2261
     43  O        -25.3910  -17.8830   -6.0320 O.2    63  MET63      -0.2867
     44  CB       -22.6560  -16.3560   -6.9530 C.3    63  MET63       0.0387
     45  CG       -21.1960  -16.2570   -6.5500 C.3    63  MET63       0.0595
     46  SD       -20.3610  -14.8100   -7.2130 S.3    63  MET63      -0.1393
     47  CE       -20.5450  -13.6320   -5.8850 C.3    63  MET63       0.0692
     48  N        -27.5530  -16.6480    1.1210 N.3    72  CYS72      -0.1221
     49  CA       -28.1140  -15.6740    0.2020 C.3    72  CYS72       0.1808
     50  C        -27.7340  -16.0130   -1.2380 C.2    72  CYS72       0.2601
     51  O        -26.5800  -16.2650   -1.5420 O.2    72  CYS72      -0.2717
     52  CB       -27.6380  -14.2630    0.5360 C.3    72  CYS72       0.0970
     53  SG       -28.0350  -13.6370    2.1760 S.3    72  CYS72      -0.0800
     54  N        -28.7230  -15.9730   -2.1120 N.am   73  ARG73      -0.1965
     55  CA       -28.5390  -16.2230   -3.5200 C.3    73  ARG73       0.1729
     56  C        -28.2400  -14.9350   -4.2600 C.2    73  ARG73       0.2616
     57  O        -28.8790  -13.9330   -4.0190 O.2    73  ARG73      -0.2715
     58  CB       -29.8140  -16.8130   -4.0970 C.3    73  ARG73       0.0348
     59  CG       -29.6790  -17.3650   -5.4970 C.3    73  ARG73       0.0492
     60  CD       -30.8620  -18.2600   -5.8300 C.3    73  ARG73       0.2205
     61  NE       -32.0050  -17.5710   -6.4060 N.pl3  73  ARG73      -0.0865
     62  CZ       -32.0080  -16.9940   -7.6000 C.cat  73  ARG73       0.5346
     63  NH1      -30.9180  -17.0070   -8.3350 N.pl3  73  ARG73       0.1354
     64  NH2      -33.1010  -16.4060   -8.0560 N.pl3  73  ARG73       0.1354
     65  N        -27.2760  -14.9670   -5.1630 N.am   74  LEU74      -0.1977
     66  CA       -27.1220  -13.8600   -6.0760 C.3    74  LEU74       0.1596
     67  C        -28.2800  -13.9390   -7.0700 C.2    74  LEU74       0.2287
     68  O        -28.4800  -14.9560   -7.6920 O.2    74  LEU74      -0.2864
     69  CB       -25.7860  -13.9410   -6.8050 C.3    74  LEU74       0.0297
     70  CG       -25.5740  -12.8410   -7.8390 C.3    74  LEU74       0.0022
     71  CD1      -25.4130  -11.4970   -7.1700 C.3    74  LEU74       0.0001
     72  CD2      -24.4190  -13.1300   -8.7770 C.3    74  LEU74       0.0001
     73  N        -23.8700   -6.2210   -8.3240 N.3    85  LEU85      -0.1245
     74  CA       -24.4960   -7.4700   -7.9660 C.3    85  LEU85       0.1561
     75  C        -25.8070   -7.1910   -7.2390 C.2    85  LEU85       0.2260
     76  O        -25.8390   -6.4120   -6.3130 O.2    85  LEU85      -0.2867
     77  CB       -23.5540   -8.2820   -7.0800 C.3    85  LEU85       0.0270
     78  CG       -22.1520   -8.6010   -7.5970 C.3    85  LEU85       0.0019
     79  CD1      -21.3420   -9.3440   -6.5630 C.3    85  LEU85       0.0001
     80  CD2      -22.2220   -9.3970   -8.8820 C.3    85  LEU85       0.0001
     81  N        -29.2940   -8.3910   -5.1390 N.3    87  MET87      -0.1230
     82  CA       -29.9950   -9.3260   -4.2860 C.3    87  MET87       0.1702
     83  C        -31.1510   -8.6430   -3.5400 C.2    87  MET87       0.2592
     84  O        -31.3640   -7.4490   -3.6530 O.2    87  MET87      -0.2718
     85  CB       -29.0430  -10.0170   -3.3140 C.3    87  MET87       0.0401
     86  CG       -28.6580   -9.1620   -2.1260 C.3    87  MET87       0.0596
     87  SD       -27.7060  -10.0390   -0.8820 S.3    87  MET87      -0.1393
     88  CE       -28.9980  -10.8690    0.0020 C.3    87  MET87       0.0692
     89  N        -31.9020   -9.4440   -2.8060 N.am   88  GLN88      -0.1966
     90  CA       -33.0170   -8.9770   -2.0180 C.3    88  GLN88       0.1733
     91  C        -32.5110   -8.0050   -0.9540 C.2    88  GLN88       0.2616
     92  O        -31.4090   -8.1420   -0.4710 O.2    88  GLN88      -0.2715
     93  CB       -33.6800  -10.1790   -1.3660 C.3    88  GLN88       0.0408
     94  CG       -34.9420   -9.9240   -0.5850 C.3    88  GLN88       0.0908
     95  CD       -35.5250  -11.2170   -0.0160 C.2    88  GLN88       0.2608
     96  OE1      -34.9030  -11.8650    0.8110 O.2    88  GLN88      -0.2717
     97  NE2      -36.7050  -11.5980   -0.4740 N.am   88  GLN88      -0.0878
     98  N        -33.3120   -6.9980   -0.6370 N.am   89  LEU89      -0.1963
     99  CA       -32.9670   -6.0340    0.3970 C.3    89  LEU89       0.1728
    100  C        -33.2900   -6.5850    1.7870 C.2    89  LEU89       0.2616
    101  O        -34.3960   -7.0290    2.0350 O.2    89  LEU89      -0.2715
    102  CB       -33.7140   -4.7260    0.1650 C.3    89  LEU89       0.0311
    103  CG       -33.4950   -3.6230    1.1990 C.3    89  LEU89       0.0022
    104  CD1      -32.0910   -3.0660    1.1460 C.3    89  LEU89       0.0001
    105  CD2      -34.5100   -2.5070    1.0920 C.3    89  LEU89       0.0001
    106  N        -32.3210   -6.5570    2.6890 N.am   90  MET90      -0.1977
    107  CA       -32.5700   -7.0190    4.0430 C.3    90  MET90       0.1605
    108  C        -32.4260   -5.8860    5.0630 C.2    90  MET90       0.2287
    109  O        -31.3370   -5.5430    5.4790 O.2    90  MET90      -0.2864
    110  CB       -31.6700   -8.2230    4.3530 C.3    90  MET90       0.0413
    111  CG       -32.0590   -9.4530    3.5260 C.3    90  MET90       0.0598
    112  SD       -30.9000  -10.8210    3.4250 S.3    90  MET90      -0.1393
    113  CE       -31.8970  -12.0340    2.5780 C.3    90  MET90       0.0692
    114  N        -30.3160   -5.8220    8.2980 N.3    93  GLY93      -0.1210
    115  CA       -28.8900   -5.6430    8.1330 C.3    93  GLY93       0.1956
    116  C        -28.0370   -6.8180    8.5550 C.2    93  GLY93       0.2612
    117  O        -28.5240   -7.9260    8.6910 O.2    93  GLY93      -0.2717
    118  N        -26.7460   -6.5720    8.7270 N.am   94  CYS94      -0.1970
    119  CA       -25.8110   -7.6310    9.0880 C.3    94  CYS94       0.1712
    120  C        -25.8760   -8.0190   10.5690 C.2    94  CYS94       0.2296
    121  O        -26.1640   -7.2250   11.4540 O.2    94  CYS94      -0.2864
    122  CB       -24.3830   -7.3270    8.6700 C.3    94  CYS94       0.0983
    123  SG       -23.6000   -5.9820    9.6060 S.3    94  CYS94      -0.0798
    124  N        -23.4710   -8.8030   12.7120 N.3    96  LEU96      -0.1231
    125  CA       -22.5100   -8.2290   13.6400 C.3    96  LEU96       0.1693
    126  C        -23.0310   -6.9260   14.2380 C.2    96  LEU96       0.2592
    127  O        -22.9680   -6.7220   15.4360 O.2    96  LEU96      -0.2718
    128  CB       -21.1720   -7.9890   12.9560 C.3    96  LEU96       0.0284
    129  CG       -20.1630   -7.1490   13.7240 C.3    96  LEU96       0.0019
    130  CD1      -19.6060   -7.9150   14.9070 C.3    96  LEU96       0.0001
    131  CD2      -19.0550   -6.6870   12.8000 C.3    96  LEU96       0.0001
    132  N        -23.6020   -6.0900   13.3870 N.am   97  ASP97      -0.1974
    133  CA       -24.2070   -4.8520   13.8300 C.3    97  ASP97       0.1709
    134  C        -25.3850   -5.1640   14.7230 C.2    97  ASP97       0.2293
    135  O        -25.6450   -4.4680   15.6850 O.2    97  ASP97      -0.2864
    136  CB       -24.6770   -4.0270   12.6410 C.3    97  ASP97       0.1436
    137  CG       -23.5460   -3.3220   11.9350 C.2    97  ASP97       0.3671
    138  OD1      -22.3890   -3.6300   12.2170 O.co2  97  ASP97      -0.2456
    139  OD2      -23.8170   -2.4730   11.0820 O.co2  97  ASP97      -0.2456
    140  N        -19.9360  -10.2370   10.0690 N.3   138  ARG138     -0.1245
    141  CA       -20.1780   -9.1550    9.1350 C.3   138  ARG138      0.1563
    142  C        -20.7990   -9.6660    7.8470 C.2   138  ARG138      0.2260
    143  O        -21.4940   -8.9460    7.1710 O.2   138  ARG138     -0.2867
    144  CB       -18.8910   -8.3980    8.8380 C.3   138  ARG138      0.0307
    145  CG       -17.9520   -9.0880    7.8760 C.3   138  ARG138      0.0489
    146  CD       -16.6170   -8.3640    7.7570 C.3   138  ARG138      0.2205
    147  NE       -15.6060   -9.2300    7.1580 N.pl3 138  ARG138     -0.0865
    148  CZ       -14.6360   -9.8530    7.8180 C.cat 138  ARG138      0.5346
    149  NH1      -13.8090  -10.6240    7.1550 N.pl3 138  ARG138      0.1354
    150  NH2      -14.4980   -9.7180    9.1260 N.pl3 138  ARG138      0.1354
    151  N        -26.2860  -11.9720    7.1490 N.3   141  LEU141     -0.1245
    152  CA       -27.3850  -11.0140    7.1130 C.3   141  LEU141      0.1561
    153  C        -28.6130  -11.5210    7.8490 C.2   141  LEU141      0.2260
    154  O        -28.9190  -12.7090    7.8180 O.2   141  LEU141     -0.2867
    155  CB       -27.7770  -10.6600    5.6810 C.3   141  LEU141      0.0270
    156  CG       -26.8050   -9.8240    4.8660 C.3   141  LEU141      0.0019
    157  CD1      -27.2780   -9.7200    3.4310 C.3   141  LEU141      0.0001
    158  CD2      -26.5800   -8.4550    5.4860 C.3   141  LEU141      0.0001
    159  N        -24.0860  -14.4240    3.5160 N.3   151  THR151     -0.1203
    160  CA       -23.9570  -13.6720    2.2770 C.3   151  THR151      0.1994
    161  C        -22.5330  -13.6490    1.7060 C.2   151  THR151      0.2618
    162  O        -21.6150  -14.2100    2.2700 O.2   151  THR151     -0.2717
    163  CB       -24.4690  -12.2330    2.4270 C.3   151  THR151      0.1784
    164  OG1      -24.7450  -11.6950    1.1330 O.3   151  THR151     -0.2211
    165  CG2      -23.4390  -11.3750    3.1180 C.3   151  THR151      0.0376
    166  N        -22.3940  -13.0100    0.5540 N.am  152  ASP152     -0.1959
    167  CA       -21.1130  -12.7970   -0.0810 C.3   152  ASP152      0.1840
    168  C        -20.4320  -14.0920   -0.4950 C.2   152  ASP152      0.2622
    169  O        -19.2290  -14.1370   -0.6410 O.2   152  ASP152     -0.2715
    170  CB       -20.1890  -11.9960    0.8260 C.3   152  ASP152      0.1450
    171  CG       -20.5080  -10.5290    0.8240 C.2   152  ASP152      0.3671
    172  OD1      -21.1090  -10.0450   -0.1370 O.co2 152  ASP152     -0.2456
    173  OD2      -20.1540   -9.8500    1.7900 O.co2 152  ASP152     -0.2456
    174  N        -21.1940  -15.1430   -0.7130 N.am  153  PHE153     -0.1974
    175  CA       -20.5300  -16.3370   -1.1670 C.3   153  PHE153      0.1639
    176  C        -19.8850  -16.0860   -2.5230 C.2   153  PHE153      0.2290
    177  O        -20.4830  -15.5030   -3.4060 O.2   153  PHE153     -0.2864
    178  CB       -21.4650  -17.5220   -1.2910 C.3   153  PHE153      0.0560
    179  CG       -20.8820  -18.6190   -2.1130 C.ar  153  PHE153     -0.0200
    180  CD1      -19.9670  -19.4860   -1.5650 C.ar  153  PHE153     -0.0042
    181  CD2      -21.1830  -18.7290   -3.4500 C.ar  153  PHE153     -0.0042
    182  CE1      -19.3940  -20.4750   -2.3230 C.ar  153  PHE153     -0.0003
    183  CE2      -20.6140  -19.7150   -4.2190 C.ar  153  PHE153     -0.0003
    184  CZ       -19.7140  -20.5910   -3.6550 C.ar  153  PHE153     -0.0000
    185  N        -17.3970  -14.2140   -3.3650 N.3   155  LEU155     -0.1245
    186  CA       -16.6990  -12.9670   -3.5720 C.3   155  LEU155      0.1561
    187  C        -15.1890  -13.0880   -3.3500 C.2   155  LEU155      0.2260
    188  O        -14.4050  -12.5910   -4.1240 O.2   155  LEU155     -0.2867
    189  CB       -17.3060  -11.8600   -2.7210 C.3   155  LEU155      0.0270
    190  CG       -17.8670  -10.6670   -3.4890 C.3   155  LEU155      0.0019
    191  CD1      -18.5620  -11.1320   -4.7480 C.3   155  LEU155      0.0001
    192  CD2      -18.8120   -9.8540   -2.6310 C.3   155  LEU155      0.0001
@<TRIPOS>BOND
     1    80    78    1
     2    72    70    1
     3    63    62    1
     4    73    74    1
     5    40    41    1
     6    64    62    1
     7    74    75    1
     8    74    77    1
     9    70    71    1
    10    70    69    1
    11    68    67    2
    12    62    61    2
    13    78    77    1
    14    78    79    1
    15    75    76    2
    16    46    45    1
    17    46    47    1
    18    67    66    1
    19    42    41    1
    20    42    43    2
    21    41    44    1
    22    44    45    1
    23    69    66    1
    24    61    60    1
    25    34    33    2
    26    66    65    1
    27    60    59    1
    28    59    58    1
    29    33    32    1
    30    65    56   am
    31    81    82    1
    32   191   190    1
    33    31    32    1
    34    29    28    2
    35    82    83    1
    36    82    85    1
    37    56    57    2
    38    56    55    1
    39    32    35    1
    40   183   184   ar
    41   183   181   ar
    42   188   187    2
    43    58    55    1
    44    28    27    1
    45   184   182   ar
    46    84    83    2
    47   186   185    1
    48   186   187    1
    49   186   189    1
    50    83    89   am
    51    35    36    1
    52    55    54    1
    53   190   189    1
    54   190   192    1
    55   181   179   ar
    56   177   176    2
    57    85    86    1
    58    36    37    1
    59    26    27    1
    60    89    90    1
    61    27    30    1
    62   176   175    1
    63    37    38    1
    64   182   180   ar
    65    86    87    1
    66   179   180   ar
    67   179   178    1
    68    54    50   am
    69    90    93    1
    70    90    91    1
    71    51    50    2
    72    93    94    1
    73   178   175    1
    74    50    49    1
    75   175   174    1
    76    38    39    1
    77    91    98   am
    78    91    92    2
    79    20    21    1
    80    20    19    1
    81    20    23    1
    82    21    22    2
    83    87    88    1
    84   174   168   am
    85   169   168    2
    86    98    99    1
    87    94    95    1
    88   168   167    1
    89    97    95   am
    90   172   171   ar
    91   167   166    1
    92   167   170    1
    93    95    96    2
    94    24    23    1
    95   102    99    1
    96   102   103    1
    97    49    52    1
    98    49    48    1
    99    23    25    1
   100    99   100    1
   101    52    53    1
   102   166   161   am
   103   171   170    1
   104   171   173   ar
   105   105   103    1
   106   164   163    1
   107   104   103    1
   108    12    11    2
   109   161   162    2
   110   161   160    1
   111   100   101    2
   112   100   106   am
   113     1     2    1
   114    17    18    1
   115    17    14    1
   116    14    15    1
   117    14    13    1
   118     7     6    1
   119   160   163    1
   120   160   159    1
   121     6     5    1
   122     6     8    1
   123   163   165    1
   124   113   112    1
   125    11    13   am
   126    11    10    1
   127    15    16    2
   128   106   107    1
   129     5     2    1
   130     2     3    1
   131     9    10    1
   132     9     3   am
   133   112   111    1
   134   157   156    1
   135   111   110    1
   136     3     4    2
   137   107   110    1
   138   107   108    1
   139   156   158    1
   140   156   155    1
   141   108   109    2
   142   155   152    1
   143   152   151    1
   144   152   153    1
   145   149   148    1
   146   147   146    1
   147   147   148    2
   148   143   142    2
   149   146   145    1
   150   154   153    2
   151   148   150    1
   152   142   141    1
   153   145   144    1
   154   115   114    1
   155   115   116    1
   156   116   117    2
   157   116   118   am
   158   122   119    1
   159   122   123    1
   160   118   119    1
   161   144   141    1
   162   119   120    1
   163   141   140    1
   164   120   121    2
   165   139   137   ar
   166   137   138   ar
   167   137   136    1
   168   136   133    1
   169   124   125    1
   170   131   129    1
   171   128   125    1
   172   128   129    1
   173   132   133    1
   174   132   126   am
   175   125   126    1
   176   129   130    1
   177   133   134    1
   178   126   127    2
   179   134   135    2
