@<TRIPOS>MOLECULE
tmp/5yuaA04.pdb
 137 134 0 0 0
SMALL
GASTEIGER

@<TRIPOS>ATOM
      1  N         18.0550  -25.6040   38.7070 N.3    77  PRO77      -0.2102
      2  CA        17.5820  -25.1660   37.3910 C.3    77  PRO77       0.1504
      3  C         18.5950  -24.3190   36.6570 C.2    77  PRO77       0.2575
      4  O         18.5730  -24.2870   35.4220 O.2    77  PRO77      -0.2718
      5  CB        16.3160  -24.3700   37.7160 C.3    77  PRO77       0.0282
      6  CG        16.4090  -24.0380   39.1820 C.3    77  PRO77       0.0208
      7  CD        17.6080  -24.7030   39.7780 C.3    77  PRO77       0.0893
      8  N         19.4860  -23.6290   37.3670 N.am   78  TRP78      -0.1977
      9  CA        20.5320  -22.8840   36.6780 C.3    78  TRP78       0.1640
     10  C         21.5290  -23.8330   36.0380 C.2    78  TRP78       0.2290
     11  O         21.8450  -23.7040   34.8500 O.2    78  TRP78      -0.2864
     12  CB        21.2150  -21.9320   37.6520 C.3    78  TRP78       0.0576
     13  CG        20.2010  -21.2010   38.4490 C.ar   78  TRP78       0.0006
     14  CD1       19.7490  -21.5170   39.6960 C.ar   78  TRP78       0.0946
     15  CD2       19.4700  -20.0430   38.0380 C.ar   78  TRP78       0.0152
     16  NE1       18.7930  -20.6160   40.0990 N.ar   78  TRP78      -0.2442
     17  CE2       18.5980  -19.7030   39.0950 C.ar   78  TRP78       0.0810
     18  CE3       19.4750  -19.2560   36.8840 C.ar   78  TRP78       0.0012
     19  CZ2       17.7430  -18.6060   39.0350 C.ar   78  TRP78       0.0191
     20  CZ3       18.6200  -18.1690   36.8230 C.ar   78  TRP78       0.0001
     21  CH2       17.7620  -17.8570   37.8940 C.ar   78  TRP78       0.0015
     22  N         20.0940  -25.6710   33.0420 N.3    81  PHE81      -0.1241
     23  CA        20.1260  -24.8250   31.8570 C.3    81  PHE81       0.1605
     24  C         21.5080  -24.8310   31.2020 C.2    81  PHE81       0.2264
     25  O         21.6170  -24.9760   29.9770 O.2    81  PHE81      -0.2867
     26  CB        19.6980  -23.4060   32.2240 C.3    81  PHE81       0.0534
     27  CG        19.7040  -22.4650   31.0690 C.ar   81  PHE81      -0.0203
     28  CD1       18.6310  -22.4080   30.2000 C.ar   81  PHE81      -0.0042
     29  CD2       20.7920  -21.6490   30.8400 C.ar   81  PHE81      -0.0042
     30  CE1       18.6400  -21.5490   29.1240 C.ar   81  PHE81      -0.0003
     31  CE2       20.8150  -20.7890   29.7730 C.ar   81  PHE81      -0.0003
     32  CZ        19.7350  -20.7370   28.9100 C.ar   81  PHE81      -0.0000
     33  N         23.4220  -16.8930   27.0790 N.3   109  PHE109     -0.1241
     34  CA        22.5520  -16.8430   28.2480 C.3   109  PHE109      0.1605
     35  C         23.2170  -17.4170   29.4930 C.2   109  PHE109      0.2264
     36  O         22.6940  -17.2290   30.5980 O.2   109  PHE109     -0.2867
     37  CB        21.2530  -17.5850   27.9590 C.3   109  PHE109      0.0534
     38  CG        20.2420  -16.7750   27.1960 C.ar  109  PHE109     -0.0203
     39  CD1       19.6620  -15.6510   27.7600 C.ar  109  PHE109     -0.0042
     40  CD2       19.8640  -17.1470   25.9170 C.ar  109  PHE109     -0.0042
     41  CE1       18.7200  -14.9060   27.0630 C.ar  109  PHE109     -0.0003
     42  CE2       18.9310  -16.4080   25.2180 C.ar  109  PHE109     -0.0003
     43  CZ        18.3560  -15.2820   25.7940 C.ar  109  PHE109     -0.0000
     44  N         23.5310  -14.9480   32.2770 N.3   112  VAL112     -0.1231
     45  CA        22.4530  -14.8100   33.2490 C.3   112  VAL112      0.1692
     46  C         22.6800  -15.7570   34.4210 C.2   112  VAL112      0.2592
     47  O         22.5880  -15.3600   35.5850 O.2   112  VAL112     -0.2718
     48  CB        21.0950  -15.0530   32.5670 C.3   112  VAL112      0.0266
     49  CG1       20.0380  -15.4240   33.5960 C.3   112  VAL112      0.0020
     50  CG2       20.6710  -13.8250   31.7480 C.3   112  VAL112      0.0020
     51  N         23.0240  -17.0140   34.1300 N.am  113  THR113     -0.1953
     52  CA        23.2210  -18.0180   35.1810 C.3   113  THR113      0.1897
     53  C         24.5670  -17.9100   35.8980 C.2   113  THR113      0.2313
     54  O         24.6930  -18.4020   37.0210 O.2   113  THR113     -0.2863
     55  CB        23.0910  -19.4370   34.6090 C.3   113  THR113      0.1794
     56  OG1       24.1870  -19.7120   33.7260 O.3   113  THR113     -0.2208
     57  CG2       21.7970  -19.5900   33.8450 C.3   113  THR113      0.0378
     58  N         19.4440  -12.9670   40.1620 N.3   120  LYS120     -0.1245
     59  CA        18.4590  -12.4090   41.0800 C.3   120  LYS120      0.1561
     60  C         17.2580  -11.8870   40.3160 C.2   120  LYS120      0.2260
     61  O         16.1090  -12.1590   40.6830 O.2   120  LYS120     -0.2867
     62  CB        19.0870  -11.2930   41.9190 C.3   120  LYS120      0.0271
     63  CG        18.1810  -10.7500   43.0380 C.3   120  LYS120      0.0035
     64  CD        18.8590   -9.6450   43.8850 C.3   120  LYS120      0.0206
     65  CE        17.9660   -9.1670   45.0450 C.3   120  LYS120      0.1093
     66  NZ        18.2360   -7.7380   45.4160 N.3   120  LYS120     -0.1314
     67  N         16.2360  -12.5680   37.2380 N.3   122  VAL122     -0.1231
     68  CA        15.4900  -13.6150   36.5510 C.3   122  VAL122      0.1692
     69  C         14.5660  -14.3350   37.5240 C.2   122  VAL122      0.2593
     70  O         13.3890  -14.5760   37.2220 O.2   122  VAL122     -0.2718
     71  CB        16.4540  -14.5850   35.8610 C.3   122  VAL122      0.0266
     72  CG1       15.7530  -15.9170   35.5910 C.3   122  VAL122      0.0020
     73  CG2       16.9950  -13.9410   34.5900 C.3   122  VAL122      0.0020
     74  N         15.0830  -14.6880   38.7070 N.am  123  SER123     -0.1938
     75  CA        14.2480  -15.3560   39.7060 C.3   123  SER123      0.2055
     76  C         13.0640  -14.4850   40.0910 C.2   123  SER123      0.2643
     77  O         11.9790  -14.9900   40.4020 O.2   123  SER123     -0.2714
     78  CB        15.0650  -15.6900   40.9520 C.3   123  SER123      0.2130
     79  OG        16.3250  -16.2170   40.6010 O.3   123  SER123     -0.2179
     80  N         13.2660  -13.1700   40.0900 N.am  124  ALA124     -0.1963
     81  CA        12.1930  -12.2470   40.4200 C.3   124  ALA124      0.1728
     82  C         11.1020  -12.2890   39.3680 C.2   124  ALA124      0.2616
     83  O          9.9110  -12.2150   39.6880 O.2   124  ALA124     -0.2715
     84  CB        12.7530  -10.8290   40.5440 C.3   124  ALA124      0.0334
     85  N         11.4910  -12.3740   38.1000 N.am  125  LEU125     -0.1963
     86  CA        10.4900  -12.4630   37.0560 C.3   125  LEU125      0.1728
     87  C          9.7720  -13.8010   37.1200 C.2   125  LEU125      0.2616
     88  O          8.5370  -13.8590   37.0690 O.2   125  LEU125     -0.2715
     89  CB        11.1420  -12.2640   35.6970 C.3   125  LEU125      0.0311
     90  CG        12.0570  -11.0640   35.6010 C.3   125  LEU125      0.0022
     91  CD1       12.7600  -11.1140   34.2640 C.3   125  LEU125      0.0001
     92  CD2       11.2510   -9.7960   35.7480 C.3   125  LEU125      0.0001
     93  N         10.5380  -14.8890   37.2500 N.am  126  ILE126     -0.1963
     94  CA         9.9520  -16.2280   37.2380 C.3   126  ILE126      0.1727
     95  C          9.0000  -16.4120   38.4200 C.2   126  ILE126      0.2616
     96  O          7.9170  -16.9940   38.2810 O.2   126  ILE126     -0.2715
     97  CB        11.0720  -17.2790   37.2260 C.3   126  ILE126      0.0290
     98  CG1       11.7160  -17.3370   35.8570 C.3   126  ILE126      0.0022
     99  CG2       10.5070  -18.6420   37.4540 C.3   126  ILE126      0.0023
    100  CD1       10.9950  -18.2980   34.9060 C.3   126  ILE126      0.0001
    101  N          9.3870  -15.9050   39.5940 N.am  127  SER127     -0.1950
    102  CA         8.4920  -15.8080   40.7440 C.3   127  SER127      0.1924
    103  C          7.0740  -15.3600   40.3770 C.2   127  SER127      0.2314
    104  O          6.0940  -15.9330   40.8640 O.2   127  SER127     -0.2863
    105  CB         9.0780  -14.8330   41.7460 C.3   127  SER127      0.2116
    106  OG         8.0490  -14.1440   42.4320 O.3   127  SER127     -0.2180
    107  N          5.3180  -15.7490   37.8260 N.3   129  ILE129     -0.1231
    108  CA         4.5320  -16.5650   36.9060 C.3   129  ILE129      0.1678
    109  C          3.4980  -17.4230   37.6030 C.2   129  ILE129      0.2434
    110  O          2.3420  -17.4610   37.1380 O.2   129  ILE129     -0.2733
    111  CB         5.4710  -17.3590   35.9880 C.3   129  ILE129      0.0265
    112  CG1        6.1470  -16.3800   35.0390 C.3   129  ILE129      0.0019
    113  CG2        4.7040  -18.4280   35.2190 C.3   129  ILE129      0.0020
    114  CD1        6.9150  -17.0510   33.9760 C.3   129  ILE129      0.0001
    115  N          3.7980  -18.1340   38.7040 N.am  130  PRO130     -0.2729
    116  CA         2.7670  -18.9730   39.3450 C.3   130  PRO130      0.1401
    117  C          1.4350  -18.2800   39.5820 C.2   130  PRO130      0.2269
    118  O          0.3920  -18.8630   39.2620 O.2   130  PRO130     -0.2865
    119  CB         3.4340  -19.3810   40.6580 C.3   130  PRO130      0.0296
    120  CG         4.8510  -19.4940   40.2820 C.3   130  PRO130      0.0237
    121  CD         5.1230  -18.3700   39.3100 C.3   130  PRO130      0.0939
    122  N         -1.0970  -18.2320   36.5680 N.3   133  LEU133     -0.1245
    123  CA        -1.4050  -19.4460   35.8270 C.3   133  LEU133      0.1561
    124  C         -2.9140  -19.6220   35.5890 C.2   133  LEU133      0.2260
    125  O         -3.3250  -20.1520   34.5530 O.2   133  LEU133     -0.2867
    126  CB        -0.7840  -20.6380   36.5530 C.3   133  LEU133      0.0270
    127  CG         0.7410  -20.7560   36.4160 C.3   133  LEU133      0.0019
    128  CD1        1.3380  -21.8340   37.3030 C.3   133  LEU133      0.0001
    129  CD2        1.1250  -21.0300   34.9740 C.3   133  LEU133      0.0001
    130  N          3.7270   -8.8310   49.1960 N.3   225  ILE225     -0.1245
    131  CA         5.0490   -9.2930   49.6130 C.3   225  ILE225      0.1561
    132  C          5.7660   -8.2310   50.4450 C.2   225  ILE225      0.2260
    133  O          6.4300   -8.5500   51.4390 O.2   225  ILE225     -0.2867
    134  CB         5.8770   -9.7120   48.3810 C.3   225  ILE225      0.0252
    135  CG1        5.3900  -11.0640   47.8660 C.3   225  ILE225      0.0019
    136  CG2        7.3760   -9.7310   48.6900 C.3   225  ILE225      0.0019
    137  CD1        5.2640  -12.1060   48.9410 C.3   225  ILE225      0.0001
@<TRIPOS>BOND
     1    42    43   ar
     2    42    40   ar
     3    43    41   ar
     4    40    38   ar
     5    41    39   ar
     6    33    34    1
     7    38    39   ar
     8    38    37    1
     9    37    34    1
    10    34    35    1
    11    32    30   ar
    12    32    31   ar
    13    30    28   ar
    14    35    36    2
    15    31    29   ar
    16    25    24    2
    17    28    27   ar
    18    29    27   ar
    19    27    26    1
    20    24    23    1
    21    50    48    1
    22    23    26    1
    23    23    22    1
    24    44    45    1
    25    48    45    1
    26    48    49    1
    27    45    46    1
    28    56    55    1
    29    57    55    1
    30   114   112    1
    31    51    46   am
    32    51    52    1
    33    91    90    1
    34    46    47    2
    35   125   124    2
    36    73    71    1
    37    55    52    1
    38    11    10    2
    39   100    98    1
    40   129   127    1
    41   112   111    1
    42    52    53    1
    43   113   111    1
    44     4     3    2
    45   124   123    1
    46    72    71    1
    47    90    89    1
    48    90    92    1
    49    89    86    1
    50   123   126    1
    51   123   122    1
    52    98    97    1
    53    71    68    1
    54    53    54    2
    55   111   108    1
    56    10     9    1
    57   127   126    1
    58   127   128    1
    59    68    67    1
    60    68    69    1
    61     3     8   am
    62     3     2    1
    63     9     8    1
    64     9    12    1
    65    20    18   ar
    66    20    21   ar
    67    18    15   ar
    68   108   109    1
    69   108   107    1
    70    86    87    1
    71    86    85    1
    72    88    87    2
    73    87    93   am
    74   110   109    2
    75    70    69    2
    76    97    94    1
    77    97    99    1
    78    94    93    1
    79    94    95    1
    80     2     5    1
    81     2     1    1
    82    69    74   am
    83   109   115   am
    84    12    13    1
    85     5     6    1
    86    21    19   ar
    87    15    13   ar
    88    15    17   ar
    89    85    82   am
    90    96    95    2
    91    95   101   am
    92    13    14   ar
    93   115   121    1
    94   115   116    1
    95     1     7    1
    96    74    75    1
    97    19    17   ar
    98    17    16   ar
    99     6     7    1
   100   118   117    2
   101   121   120    1
   102   116   117    1
   103   116   119    1
   104    82    83    2
   105    82    81    1
   106   101   102    1
   107    14    16   ar
   108    75    76    1
   109    75    78    1
   110    80    76   am
   111    80    81    1
   112    76    77    2
   113    58    59    1
   114   120   119    1
   115    60    61    2
   116    60    59    1
   117   103   102    1
   118   103   104    2
   119    81    84    1
   120    79    78    1
   121   102   105    1
   122    59    62    1
   123   105   106    1
   124    62    63    1
   125    63    64    1
   126    64    65    1
   127    65    66    1
   128   135   134    1
   129   135   137    1
   130   134   136    1
   131   134   131    1
   132   130   131    1
   133   131   132    1
   134   132   133    2
