@<TRIPOS>MOLECULE
tmp/5yuaA01.pdb
 153 152 0 0 0
SMALL
GASTEIGER

@<TRIPOS>ATOM
      1  N        -10.0030  -19.1900   26.1940 N.3   142  PHE142     -0.1241
      2  CA       -10.7080  -18.1770   25.4150 C.3   142  PHE142      0.1605
      3  C        -10.1570  -18.0740   23.9970 C.2   142  PHE142      0.2264
      4  O        -10.9150  -18.0360   23.0180 O.2   142  PHE142     -0.2867
      5  CB       -10.6070  -16.8390   26.1210 C.3   142  PHE142      0.0534
      6  CG       -11.5120  -15.7880   25.5570 C.ar  142  PHE142     -0.0203
      7  CD1      -12.8140  -15.6440   26.0290 C.ar  142  PHE142     -0.0042
      8  CD2      -11.0540  -14.9140   24.5880 C.ar  142  PHE142     -0.0042
      9  CE1      -13.6510  -14.6540   25.5320 C.ar  142  PHE142     -0.0003
     10  CE2      -11.8800  -13.9260   24.0910 C.ar  142  PHE142     -0.0003
     11  CZ       -13.1880  -13.8000   24.5640 C.ar  142  PHE142     -0.0000
     12  N        -12.2980  -19.0340   20.5220 N.3   146  PHE146     -0.1241
     13  CA       -12.5260  -18.0560   19.4690 C.3   146  PHE146      0.1605
     14  C        -11.7670  -18.4080   18.2000 C.2   146  PHE146      0.2264
     15  O        -12.2780  -18.1590   17.1030 O.2   146  PHE146     -0.2867
     16  CB       -12.1650  -16.6660   19.9740 C.3   146  PHE146      0.0534
     17  CG       -13.3100  -15.9750   20.6380 C.ar  146  PHE146     -0.0203
     18  CD1      -13.8500  -16.4780   21.8010 C.ar  146  PHE146     -0.0042
     19  CD2      -13.8740  -14.8430   20.0860 C.ar  146  PHE146     -0.0042
     20  CE1      -14.9170  -15.8600   22.4040 C.ar  146  PHE146     -0.0003
     21  CE2      -14.9430  -14.2110   20.6980 C.ar  146  PHE146     -0.0003
     22  CZ       -15.4600  -14.7230   21.8550 C.ar  146  PHE146     -0.0000
     23  N        -14.1200  -20.7240   16.4620 N.3   149  MET149     -0.1245
     24  CA       -15.1970  -19.9430   15.8890 C.3   149  MET149      0.1570
     25  C        -14.7240  -19.1700   14.6670 C.2   149  MET149      0.2261
     26  O        -15.3710  -19.2100   13.6120 O.2   149  MET149     -0.2867
     27  CB       -15.7670  -19.0120   16.9530 C.3   149  MET149      0.0387
     28  CG       -16.7290  -19.7140   17.9030 C.3   149  MET149      0.0595
     29  SD       -17.2720  -18.5790   19.1590 S.3   149  MET149     -0.1393
     30  CE       -18.4620  -17.6040   18.2260 C.3   149  MET149      0.0692
     31  N        -14.0280  -21.4060   11.6790 N.3   152  GLN152     -0.1231
     32  CA       -15.2750  -21.8120   11.0400 C.3   152  GLN152      0.1698
     33  C        -15.9560  -20.6400   10.3370 C.2   152  GLN152      0.2592
     34  O        -16.3660  -20.7700    9.1790 O.2   152  GLN152     -0.2718
     35  CB       -16.2040  -22.4570   12.0650 C.3   152  GLN152      0.0381
     36  CG       -16.1250  -23.9890   12.0900 C.3   152  GLN152      0.0905
     37  CD       -16.6490  -24.6030   13.3950 C.2   152  GLN152      0.2608
     38  OE1      -17.6610  -24.1590   13.9480 O.2   152  GLN152     -0.2717
     39  NE2      -15.9450  -25.6240   13.8970 N.am  152  GLN152     -0.0878
     40  N        -16.0490  -19.4770   10.9960 N.am  153  LEU153     -0.1966
     41  CA       -16.8000  -18.3500   10.4350 C.3   153  LEU153      0.1728
     42  C        -16.1410  -17.7230    9.2050 C.2   153  LEU153      0.2616
     43  O        -16.8530  -17.1700    8.3590 O.2   153  LEU153     -0.2715
     44  CB       -16.9790  -17.2590   11.4780 C.3   153  LEU153      0.0311
     45  CG       -18.0660  -17.3120   12.5460 C.3   153  LEU153      0.0022
     46  CD1      -17.9350  -16.0570   13.4250 C.3   153  LEU153      0.0001
     47  CD2      -19.4400  -17.4030   11.9190 C.3   153  LEU153      0.0001
     48  N        -14.7990  -17.7450    9.1000 N.am  154  PHE154     -0.1974
     49  CA       -14.0950  -16.9410    8.1010 C.3   154  PHE154      0.1639
     50  C        -12.9900  -17.6480    7.3240 C.2   154  PHE154      0.2290
     51  O        -12.3420  -17.0050    6.4880 O.2   154  PHE154     -0.2864
     52  CB       -13.4160  -15.7200    8.7320 C.3   154  PHE154      0.0560
     53  CG       -14.2820  -14.8940    9.5950 C.ar  154  PHE154     -0.0200
     54  CD1      -15.1880  -14.0140    9.0520 C.ar  154  PHE154     -0.0042
     55  CD2      -14.1300  -14.9250   10.9600 C.ar  154  PHE154     -0.0042
     56  CE1      -15.9760  -13.1900    9.8720 C.ar  154  PHE154     -0.0003
     57  CE2      -14.9090  -14.1080   11.7760 C.ar  154  PHE154     -0.0003
     58  CZ       -15.8310  -13.2360   11.2270 C.ar  154  PHE154     -0.0000
     59  N        -12.8790  -19.8280    4.9320 N.3   156  GLU156     -0.1231
     60  CA       -13.0100  -20.1680    3.5190 C.3   156  GLU156      0.1699
     61  C        -12.6750  -18.9730    2.6460 C.2   156  GLU156      0.2592
     62  O        -11.8730  -19.0840    1.7160 O.2   156  GLU156     -0.2718
     63  CB       -14.4110  -20.6800    3.2020 C.3   156  GLU156      0.0402
     64  CG       -14.4810  -22.1750    2.9000 C.3   156  GLU156      0.1161
     65  CD       -15.9040  -22.6540    2.6320 C.2   156  GLU156      0.3649
     66  OE1      -16.6270  -22.0030    1.8460 O.co2 156  GLU156     -0.2457
     67  OE2      -16.3060  -23.6730    3.2330 O.co2 156  GLU156     -0.2457
     68  N        -13.2610  -17.8210    2.9440 N.am  157  ARG157     -0.1980
     69  CA       -13.0280  -16.6410    2.1300 C.3   157  ARG157      0.1597
     70  C        -11.8060  -15.8760    2.5700 C.2   157  ARG157      0.2287
     71  O        -11.4260  -14.8990    1.9100 O.2   157  ARG157     -0.2864
     72  CB       -14.2520  -15.7360    2.1720 C.3   157  ARG157      0.0334
     73  CG       -15.5330  -16.5470    2.1490 C.3   157  ARG157      0.0492
     74  CD       -16.6970  -15.7480    1.5900 C.3   157  ARG157      0.2205
     75  NE       -17.8160  -16.6100    1.2240 N.pl3 157  ARG157     -0.0865
     76  CZ       -19.0540  -16.1820    0.9960 C.cat 157  ARG157      0.5346
     77  NH1      -19.3490  -14.8890    1.1000 N.pl3 157  ARG157      0.1354
     78  NH2      -20.0000  -17.0530    0.6650 N.pl3 157  ARG157      0.1354
     79  N        -16.8730   -8.2010    3.1960 N.3   192  VAL192     -0.1231
     80  CA       -17.6100   -9.3870    2.7840 C.3   192  VAL192      0.1692
     81  C        -18.6310   -9.7900    3.8370 C.2   192  VAL192      0.2592
     82  O        -19.7300  -10.2570    3.5180 O.2   192  VAL192     -0.2718
     83  CB       -16.6280  -10.5520    2.5260 C.3   192  VAL192      0.0266
     84  CG1      -17.3540  -11.8520    2.3590 C.3   192  VAL192      0.0020
     85  CG2      -15.7970  -10.2780    1.3450 C.3   192  VAL192      0.0020
     86  N        -18.2760   -9.5960    5.0990 N.am  193  TYR193     -0.1963
     87  CA       -19.0270  -10.0420    6.2590 C.3   193  TYR193      0.1756
     88  C        -19.2400   -8.7800    7.0750 C.2   193  TYR193      0.2461
     89  O        -18.4450   -8.4650    7.9770 O.2   193  TYR193     -0.2730
     90  CB       -18.2410  -11.0740    7.0490 C.3   193  TYR193      0.0574
     91  CG       -17.9390  -12.3740    6.3430 C.ar  193  TYR193     -0.0198
     92  CD1      -18.9430  -13.1500    5.8060 C.ar  193  TYR193     -0.0009
     93  CD2      -16.6450  -12.8510    6.2660 C.ar  193  TYR193     -0.0009
     94  CE1      -18.6720  -14.3610    5.2110 C.ar  193  TYR193      0.0417
     95  CE2      -16.3570  -14.0540    5.6590 C.ar  193  TYR193      0.0417
     96  CZ       -17.3760  -14.8190    5.1340 C.ar  193  TYR193      0.1957
     97  OH       -17.0990  -16.0530    4.5440 O.3   193  TYR193     -0.2866
     98  N        -20.2830   -8.0180    6.7750 N.am  194  PRO194     -0.2716
     99  CA       -20.4330   -6.6940    7.3920 C.3   194  PRO194      0.1536
    100  C        -20.6010   -6.7200    8.8910 C.2   194  PRO194      0.2599
    101  O        -20.3480   -5.6960    9.5360 O.2   194  PRO194     -0.2715
    102  CB       -21.6770   -6.1220    6.6980 C.3   194  PRO194      0.0310
    103  CG       -22.3430   -7.3050    6.0930 C.3   194  PRO194      0.0237
    104  CD       -21.2560   -8.2520    5.7120 C.3   194  PRO194      0.0939
    105  N        -21.0180   -7.8410    9.4780 N.am  195  TYR195     -0.1960
    106  CA       -21.2440   -7.8770   10.9130 C.3   195  TYR195      0.1771
    107  C        -20.0760   -8.4700   11.6550 C.2   195  TYR195      0.2619
    108  O        -20.2330   -8.8940   12.8000 O.2   195  TYR195     -0.2715
    109  CB       -22.5480   -8.6110   11.2310 C.3   195  TYR195      0.0574
    110  CG       -23.6980   -7.6520   11.0310 C.ar  195  TYR195     -0.0198
    111  CD1      -23.8330   -6.5390   11.8540 C.ar  195  TYR195     -0.0009
    112  CD2      -24.5850   -7.7950    9.9660 C.ar  195  TYR195     -0.0009
    113  CE1      -24.8350   -5.6310   11.6580 C.ar  195  TYR195      0.0417
    114  CE2      -25.6030   -6.8850    9.7630 C.ar  195  TYR195      0.0417
    115  CZ       -25.7230   -5.8050   10.6200 C.ar  195  TYR195      0.1957
    116  OH       -26.7310   -4.8770   10.4510 O.3   195  TYR195     -0.2866
    117  N        -18.8970   -8.4710   11.0300 N.am  196  ALA196     -0.1977
    118  CA       -17.7100   -9.0720   11.6260 C.3   196  ALA196      0.1597
    119  C        -17.2780   -8.3550   12.9030 C.2   196  ALA196      0.2287
    120  O        -16.6050   -8.9550   13.7550 O.2   196  ALA196     -0.2864
    121  CB       -16.5770   -9.0770   10.5990 C.3   196  ALA196      0.0319
    122  N        -19.0780   -7.6160   15.3390 N.3   198  VAL198     -0.1231
    123  CA       -19.7650   -8.3390   16.4020 C.3   198  VAL198      0.1692
    124  C        -18.8990   -9.4500   16.9650 C.2   198  VAL198      0.2592
    125  O        -18.9900   -9.7860   18.1510 O.2   198  VAL198     -0.2718
    126  CB       -21.0850   -8.8750   15.8420 C.3   198  VAL198      0.0266
    127  CG1      -21.5840  -10.0610   16.6620 C.3   198  VAL198      0.0020
    128  CG2      -22.0820   -7.7230   15.7450 C.3   198  VAL198      0.0020
    129  N        -18.0380  -10.0300   16.1380 N.am  199  PHE199     -0.1976
    130  CA       -17.0870  -10.9950   16.6670 C.3   199  PHE199      0.1639
    131  C        -15.8360  -10.3230   17.2610 C.2   199  PHE199      0.2290
    132  O        -15.3030  -10.7710   18.2840 O.2   199  PHE199     -0.2864
    133  CB       -16.7340  -11.9890   15.5620 C.3   199  PHE199      0.0560
    134  CG       -15.7660  -13.0690   15.9820 C.ar  199  PHE199     -0.0200
    135  CD1      -14.3970  -12.8460   15.9690 C.ar  199  PHE199     -0.0042
    136  CD2      -16.2240  -14.3250   16.3460 C.ar  199  PHE199     -0.0042
    137  CE1      -13.5100  -13.8500   16.3240 C.ar  199  PHE199     -0.0003
    138  CE2      -15.3370  -15.3370   16.6970 C.ar  199  PHE199     -0.0003
    139  CZ       -13.9840  -15.0960   16.6850 C.ar  199  PHE199     -0.0000
    140  N        -16.0480   -7.3700   20.8090 N.3   202  PRO202     -0.2116
    141  CA       -16.0050   -8.1470   22.0660 C.3   202  PRO202      0.1372
    142  C        -14.6970   -8.8860   22.3040 C.2   202  PRO202      0.2244
    143  O        -14.2180   -8.9370   23.4500 O.2   202  PRO202     -0.2868
    144  CB       -17.1700   -9.1310   21.8870 C.3   202  PRO202      0.0268
    145  CG       -18.0980   -8.4500   20.9780 C.3   202  PRO202      0.0207
    146  CD       -17.2280   -7.7180   19.9980 C.3   202  PRO202      0.0892
    147  N        -12.6370   -8.2070   25.7780 N.3   206  VAL206     -0.1245
    148  CA       -12.3890   -9.2340   26.7860 C.3   206  VAL206      0.1561
    149  C        -10.8900   -9.4290   26.9630 C.2   206  VAL206      0.2260
    150  O        -10.3510   -9.3830   28.0800 O.2   206  VAL206     -0.2867
    151  CB       -13.1040  -10.5420   26.3900 C.3   206  VAL206      0.0252
    152  CG1      -12.6520  -11.7410   27.2660 C.3   206  VAL206      0.0019
    153  CG2      -14.6150  -10.3390   26.4800 C.3   206  VAL206      0.0019
@<TRIPOS>BOND
     1    78    76    1
     2    76    77    1
     3    76    75    2
     4    75    74    1
     5    85    83    1
     6    74    73    1
     7    62    61    2
     8    66    65   ar
     9    71    70    2
    10    69    72    1
    11    69    70    1
    12    69    68    1
    13    73    72    1
    14    84    83    1
    15    83    80    1
    16    65    64    1
    17    65    67   ar
    18    61    68   am
    19    61    60    1
    20    80    79    1
    21    80    81    1
    22    64    63    1
    23    63    60    1
    24    82    81    2
    25    60    59    1
    26    81    86   am
    27    97    96    1
    28    86    87    1
    29    96    94   ar
    30    96    95   ar
    31    94    92   ar
    32    95    93   ar
    33   104   103    1
    34   104    98    1
    35    92    91   ar
    36   103   102    1
    37    87    90    1
    38    87    88    1
    39    93    91   ar
    40    91    90    1
    41    51    50    2
    42   102    99    1
    43    98    88   am
    44    98    99    1
    45    88    89    2
    46    50    49    1
    47    99   100    1
    48    49    52    1
    49    49    48    1
    50    43    42    2
    51    52    53    1
    52   100   105   am
    53   100   101    2
    54    54    53   ar
    55    54    56   ar
    56    48    42   am
    57    34    33    2
    58    42    41    1
    59   105   106    1
    60    53    55   ar
    61   114   112   ar
    62   114   115   ar
    63    56    58   ar
    64   112   110   ar
    65    33    40   am
    66    33    32    1
    67    41    40    1
    68    41    44    1
    69   116   115    1
    70   121   118    1
    71   115   113   ar
    72   106   109    1
    73   106   107    1
    74    55    57   ar
    75   117   118    1
    76   117   107   am
    77   110   109    1
    78   110   111   ar
    79    32    31    1
    80    32    35    1
    81    58    57   ar
    82    44    45    1
    83   118   119    1
    84   107   108    2
    85   113   111   ar
    86    47    45    1
    87    35    36    1
    88    36    37    1
    89    45    46    1
    90   119   120    2
    91    37    39   am
    92    37    38    2
    93    26    25    2
    94    25    24    1
    95   122   123    1
    96   133   134    1
    97   133   130    1
    98   128   126    1
    99   126   123    1
   100   126   127    1
   101    24    23    1
   102    24    27    1
   103   135   134   ar
   104   135   137   ar
   105   134   136   ar
   106   129   130    1
   107   129   124   am
   108   137   139   ar
   109   136   138   ar
   110   123   124    1
   111   130   131    1
   112   139   138   ar
   113    27    28    1
   114   124   125    2
   115    15    14    2
   116   131   132    2
   117    28    29    1
   118    14    13    1
   119    30    29    1
   120    13    16    1
   121    13    12    1
   122    16    17    1
   123   146   140    1
   124   146   145    1
   125    19    17   ar
   126    19    21   ar
   127    17    18   ar
   128    21    22   ar
   129   140   141    1
   130   145   144    1
   131    18    20   ar
   132    22    20   ar
   133   144   141    1
   134   141   142    1
   135   142   143    2
   136     4     3    2
   137     3     2    1
   138    10    11   ar
   139    10     8   ar
   140    11     9   ar
   141     8     6   ar
   142     2     5    1
   143     2     1    1
   144     9     7   ar
   145     6     7   ar
   146     6     5    1
   147   147   148    1
   148   151   153    1
   149   151   148    1
   150   151   152    1
   151   148   149    1
   152   149   150    2
