@<TRIPOS>MOLECULE
tmp/5yuaA03.pdb
 92 85 0 0 0
SMALL
GASTEIGER

@<TRIPOS>ATOM
      1  N         32.8110  -16.2330   33.2220 N.3    21  ILE21      -0.1245
      2  CA        32.1050  -15.0280   32.8000 C.3    21  ILE21       0.1561
      3  C         32.8970  -14.2980   31.7280 C.2    21  ILE21       0.2260
      4  O         32.3530  -13.8690   30.7030 O.2    21  ILE21      -0.2867
      5  CB        31.8490  -14.1240   34.0150 C.3    21  ILE21       0.0252
      6  CG1       30.5840  -14.5790   34.7460 C.3    21  ILE21       0.0019
      7  CG2       31.7870  -12.6730   33.5880 C.3    21  ILE21       0.0019
      8  CD1       30.5710  -14.2440   36.2100 C.3    21  ILE21       0.0001
      9  N         32.5830  -15.8680   28.5380 N.3    24  ILE24      -0.1231
     10  CA        31.2700  -15.6460   27.9480 C.3    24  ILE24       0.1692
     11  C         31.2480  -14.3300   27.1850 C.2    24  ILE24       0.2591
     12  O         30.8660  -14.2960   26.0100 O.2    24  ILE24      -0.2718
     13  CB        30.1740  -15.7150   29.0260 C.3    24  ILE24       0.0266
     14  CG1       30.2780  -17.0420   29.7790 C.3    24  ILE24       0.0019
     15  CG2       28.7850  -15.5870   28.4120 C.3    24  ILE24       0.0020
     16  CD1       29.1660  -17.2800   30.7400 C.3    24  ILE24       0.0001
     17  N         31.6920  -13.2320   27.8120 N.am   25  VAL25      -0.1980
     18  CA        31.6170  -11.9440   27.1140 C.3    25  VAL25       0.1595
     19  C         32.5570  -11.9190   25.9130 C.2    25  VAL25       0.2287
     20  O         32.2440  -11.3210   24.8810 O.2    25  VAL25      -0.2864
     21  CB        31.8800  -10.7550   28.0620 C.3    25  VAL25       0.0276
     22  CG1       31.1400  -10.9380   29.3650 C.3    25  VAL25       0.0022
     23  CG2       33.3580  -10.5580   28.2970 C.3    25  VAL25       0.0022
     24  N         30.7730  -13.8250   23.3770 N.3    28  GLY28      -0.1210
     25  CA        29.6670  -12.9750   22.9780 C.3    28  GLY28       0.1956
     26  C         30.0760  -11.9970   21.8990 C.2    28  GLY28       0.2611
     27  O         29.4180  -11.8870   20.8600 O.2    28  GLY28      -0.2717
     28  N         31.1970  -11.3030   22.1140 N.am   29  ILE29      -0.1979
     29  CA        31.7040  -10.3850   21.0960 C.3    29  ILE29       0.1595
     30  C         32.0310  -11.1410   19.8150 C.2    29  ILE29       0.2287
     31  O         31.5870  -10.7590   18.7260 O.2    29  ILE29      -0.2864
     32  CB        32.9270   -9.6180   21.6160 C.3    29  ILE29       0.0276
     33  CG1       32.5500   -8.7820   22.8160 C.3    29  ILE29       0.0022
     34  CG2       33.4460   -8.6870   20.5520 C.3    29  ILE29       0.0022
     35  CD1       33.7400   -8.2990   23.5680 C.3    29  ILE29       0.0001
     36  N         29.1450  -11.6710   17.8180 N.3    32  GLY32      -0.1210
     37  CA        28.7260  -10.4280   17.2010 C.3    32  GLY32       0.1956
     38  C         29.4530  -10.1680   15.8970 C.2    32  GLY32       0.2611
     39  O         28.8570   -9.6940   14.9230 O.2    32  GLY32      -0.2717
     40  N         30.7510  -10.4780   15.8580 N.am   33  LEU33      -0.1979
     41  CA        31.5240  -10.2260   14.6540 C.3    33  LEU33       0.1596
     42  C         31.2100  -11.2480   13.5740 C.2    33  LEU33       0.2287
     43  O         31.2080  -10.9010   12.3870 O.2    33  LEU33      -0.2864
     44  CB        33.0140  -10.2210   14.9760 C.3    33  LEU33       0.0297
     45  CG        33.4420   -9.2310   16.0660 C.3    33  LEU33       0.0022
     46  CD1       34.2550   -9.9230   17.1460 C.3    33  LEU33       0.0001
     47  CD2       34.2420   -8.1180   15.4640 C.3    33  LEU33       0.0001
     48  N         28.4940  -12.3130   12.5890 N.3    35  THR35      -0.1203
     49  CA        27.3740  -11.9590   11.7250 C.3    35  THR35       0.1994
     50  C         27.8750  -11.2450   10.4820 C.2    35  THR35       0.2619
     51  O         27.2790  -11.3750    9.4050 O.2    35  THR35      -0.2717
     52  CB        26.3520  -11.0730   12.4630 C.3    35  THR35       0.1784
     53  OG1       27.0020   -9.8970   12.9760 O.3    35  THR35      -0.2211
     54  CG2       25.6790  -11.8410   13.6240 C.3    35  THR35       0.0376
     55  N         28.9690  -10.4960   10.6340 N.am   36  SER36      -0.1937
     56  CA        29.5820   -9.7470    9.5470 C.3    36  SER36       0.2055
     57  C         30.2770  -10.7000    8.5830 C.2    36  SER36       0.2643
     58  O         31.0400  -11.5680    9.0090 O.2    36  SER36      -0.2714
     59  CB        30.5760   -8.7440   10.1360 C.3    36  SER36       0.2130
     60  OG        31.5530   -8.3580    9.1950 O.3    36  SER36      -0.2179
     61  N         29.9940  -10.5610    7.2830 N.am   37  LYS37      -0.1963
     62  CA        30.6230  -11.4400    6.3000 C.3    37  LYS37       0.1728
     63  C         32.0170  -10.9640    5.9370 C.2    37  LYS37       0.2616
     64  O         32.8670  -11.7860    5.5820 O.2    37  LYS37      -0.2715
     65  CB        29.7680  -11.5480    5.0340 C.3    37  LYS37       0.0311
     66  CG        30.2200  -12.6510    4.0470 C.3    37  LYS37       0.0038
     67  CD        29.3920  -12.6180    2.7500 C.3    37  LYS37       0.0206
     68  CE        29.7350  -13.7530    1.7910 C.3    37  LYS37       0.1093
     69  NZ        28.8690  -13.6850    0.5740 N.3    37  LYS37      -0.1314
     70  N         32.2480   -9.6470    5.9960 N.am   38  THR38      -0.1951
     71  CA        33.5740   -9.0380    5.9280 C.3    38  THR38       0.1897
     72  C         34.5120   -9.6830    6.9390 C.2    38  THR38       0.2313
     73  O         35.4990  -10.3320    6.5730 O.2    38  THR38      -0.2863
     74  CB        33.4780   -7.5300    6.2000 C.3    38  THR38       0.1794
     75  OG1       33.0560   -6.8460    5.0200 O.3    38  THR38      -0.2208
     76  CG2       34.8090   -6.9500    6.6600 C.3    38  THR38       0.0378
     77  N         25.2490  -17.6730   25.1910 N.3   108  LEU108     -0.1245
     78  CA        25.4460  -16.3740   25.8230 C.3   108  LEU108      0.1561
     79  C         24.5800  -16.2290   27.0610 C.2   108  LEU108      0.2260
     80  O         24.9810  -15.5640   28.0260 O.2   108  LEU108     -0.2867
     81  CB        25.1600  -15.2560   24.8310 C.3   108  LEU108      0.0270
     82  CG        26.3140  -14.8580   23.9060 C.3   108  LEU108      0.0019
     83  CD1       26.9700  -16.0640   23.2280 C.3   108  LEU108      0.0001
     84  CD2       25.8240  -13.8430   22.8590 C.3   108  LEU108      0.0001
     85  N         25.5610  -16.1060   30.7500 N.3   111  LEU111     -0.1245
     86  CA        25.8320  -14.8950   31.5140 C.3   111  LEU111      0.1561
     87  C         24.7980  -14.7110   32.6110 C.2   111  LEU111      0.2260
     88  O         25.1310  -14.3690   33.7500 O.2   111  LEU111     -0.2867
     89  CB        25.8440  -13.6820   30.5840 C.3   111  LEU111      0.0270
     90  CG        26.6900  -12.5020   31.0640 C.3   111  LEU111      0.0019
     91  CD1       28.1100  -12.9410   31.2170 C.3   111  LEU111      0.0001
     92  CD2       26.6340  -11.3710   30.0730 C.3   111  LEU111      0.0001
@<TRIPOS>BOND
     1    69    68    1
     2    68    67    1
     3    67    66    1
     4    66    65    1
     5    75    74    1
     6    65    62    1
     7    64    63    2
     8    71    70    1
     9    71    74    1
    10    71    72    1
    11    63    70   am
    12    63    62    1
    13    74    76    1
    14    62    61    1
    15    73    72    2
    16    61    57   am
    17    57    58    2
    18    57    56    1
    19    60    59    1
    20    51    50    2
    21    56    59    1
    22    56    55    1
    23    50    55   am
    24    50    49    1
    25    49    52    1
    26    49    48    1
    27    43    42    2
    28    52    53    1
    29    52    54    1
    30    42    41    1
    31    41    44    1
    32    41    40    1
    33    39    38    2
    34    44    45    1
    35    47    45    1
    36    40    38   am
    37    38    37    1
    38    45    46    1
    39    37    36    1
    40    31    30    2
    41    30    29    1
    42    34    32    1
    43    27    26    2
    44    29    32    1
    45    29    28    1
    46    32    33    1
    47    26    28   am
    48    26    25    1
    49    33    35    1
    50    84    82    1
    51    25    24    1
    52    83    82    1
    53    82    81    1
    54    81    78    1
    55    20    19    2
    56    77    78    1
    57    78    79    1
    58    19    18    1
    59    12    11    2
    60    79    80    2
    61    18    17    1
    62    18    21    1
    63    11    17   am
    64    11    10    1
    65    10     9    1
    66    10    13    1
    67    21    23    1
    68    21    22    1
    69    15    13    1
    70    13    14    1
    71    14    16    1
    72    92    90    1
    73    89    90    1
    74    89    86    1
    75     4     3    2
    76    85    86    1
    77    90    91    1
    78    86    87    1
    79     3     2    1
    80    87    88    2
    81     2     1    1
    82     2     5    1
    83     7     5    1
    84     5     6    1
    85     6     8    1
