@<TRIPOS>MOLECULE
tmp/5yubA00.pdb
 119 110 0 0 0
SMALL
GASTEIGER

@<TRIPOS>ATOM
      1  N         16.4070  -12.5850   37.3630 N.3   122  VAL122     -0.1245
      2  CA        15.6500  -13.6480   36.7030 C.3   122  VAL122      0.1561
      3  C         14.8480  -14.4360   37.7300 C.2   122  VAL122      0.2260
      4  O         13.7310  -14.8890   37.4460 O.2   122  VAL122     -0.2867
      5  CB        16.5840  -14.5490   35.8790 C.3   122  VAL122      0.0252
      6  CG1       15.8360  -15.7820   35.3520 C.3   122  VAL122      0.0019
      7  CG2       17.1810  -13.7340   34.7640 C.3   122  VAL122      0.0019
      8  N         11.7150  -12.4620   38.1010 N.3   125  LEU125     -0.1231
      9  CA        10.7870  -12.5860   36.9870 C.3   125  LEU125      0.1693
     10  C         10.0480  -13.9250   37.0180 C.2   125  LEU125      0.2591
     11  O          8.8300  -13.9680   36.7870 O.2   125  LEU125     -0.2718
     12  CB        11.5380  -12.3660   35.6770 C.3   125  LEU125      0.0284
     13  CG        12.1730  -10.9650   35.6450 C.3   125  LEU125      0.0019
     14  CD1       12.6230  -10.5260   34.2390 C.3   125  LEU125      0.0001
     15  CD2       11.2190   -9.9310   36.2520 C.3   125  LEU125      0.0001
     16  N         10.7510  -15.0190   37.3520 N.am  126  ILE126     -0.1980
     17  CA        10.0950  -16.3250   37.3730 C.3   126  ILE126      0.1595
     18  C          9.2770  -16.5080   38.6290 C.2   126  ILE126      0.2287
     19  O          8.2180  -17.1410   38.5890 O.2   126  ILE126     -0.2864
     20  CB        11.1130  -17.4510   37.1750 C.3   126  ILE126      0.0276
     21  CG1       11.8730  -17.1600   35.8990 C.3   126  ILE126      0.0022
     22  CG2       10.4380  -18.7410   36.9960 C.3   126  ILE126      0.0022
     23  CD1       12.4330  -18.3520   35.2390 C.3   126  ILE126      0.0001
     24  N          5.6790  -15.8750   38.0180 N.3   129  ILE129     -0.1245
     25  CA         4.8850  -16.7090   37.1130 C.3   129  ILE129      0.1561
     26  C          3.9430  -17.6960   37.7900 C.2   129  ILE129      0.2260
     27  O          2.8640  -17.9320   37.2320 O.2   129  ILE129     -0.2867
     28  CB         5.7750  -17.4470   36.1160 C.3   129  ILE129      0.0252
     29  CG1        6.6420  -16.4160   35.4160 C.3   129  ILE129      0.0019
     30  CG2        4.9470  -18.1850   35.1170 C.3   129  ILE129      0.0019
     31  CD1        7.0950  -16.8120   34.0490 C.3   129  ILE129      0.0001
     32  N          0.4710  -16.1010   37.9480 N.3   132  MET132     -0.1245
     33  CA        -0.2300  -15.8650   36.6870 C.3   132  MET132      0.1570
     34  C         -0.9050  -17.0960   36.1070 C.2   132  MET132      0.2261
     35  O         -1.4560  -16.9900   35.0040 O.2   132  MET132     -0.2867
     36  CB         0.7170  -15.3270   35.6140 C.3   132  MET132      0.0387
     37  CG         0.7870  -13.8340   35.5270 C.3   132  MET132      0.0595
     38  SD         2.4240  -13.3560   34.9890 S.3   132  MET132     -0.1393
     39  CE         2.5490  -14.3550   33.5100 C.3   132  MET132      0.0692
     40  N         -3.6900  -17.3490   32.8360 N.3   136  ILE136     -0.1245
     41  CA        -3.1360  -17.8510   31.5750 C.3   136  ILE136      0.1561
     42  C         -3.8780  -19.1050   31.1360 C.2   136  ILE136      0.2260
     43  O         -3.9110  -19.4380   29.9460 O.2   136  ILE136     -0.2867
     44  CB        -1.6390  -18.1520   31.7300 C.3   136  ILE136      0.0252
     45  CG1       -0.8630  -16.8970   32.0990 C.3   136  ILE136      0.0019
     46  CG2       -1.0980  -18.6820   30.4360 C.3   136  ILE136      0.0019
     47  CD1        0.5950  -17.1730   32.3990 C.3   136  ILE136      0.0001
     48  N         -4.0240  -13.6750   18.0400 N.3   173  PHE173     -0.1241
     49  CA        -2.9990  -13.1710   18.8990 C.3   173  PHE173      0.1605
     50  C         -2.6090  -11.8500   18.3650 C.2   173  PHE173      0.2264
     51  O         -2.3790  -10.9390   19.1020 O.2   173  PHE173     -0.2867
     52  CB        -1.7770  -14.0280   18.8400 C.3   173  PHE173      0.0534
     53  CG        -0.6050  -13.4230   19.5120 C.ar  173  PHE173     -0.0203
     54  CD1       -0.5490  -13.3360   20.8620 C.ar  173  PHE173     -0.0042
     55  CD2        0.4420  -12.9740   18.7930 C.ar  173  PHE173     -0.0042
     56  CE1        0.5350  -12.8020   21.4880 C.ar  173  PHE173     -0.0003
     57  CE2        1.5360  -12.4340   19.4100 C.ar  173  PHE173     -0.0003
     58  CZ         1.5790  -12.3440   20.7620 C.ar  173  PHE173     -0.0000
     59  N         -5.0780   -9.2200   19.3350 N.3   176  MET176     -0.1230
     60  CA        -4.9790   -8.9250   20.7640 C.3   176  MET176      0.1702
     61  C         -3.9850   -7.8480   21.0840 C.2   176  MET176      0.2593
     62  O         -4.1660   -7.1170   22.0230 O.2   176  MET176     -0.2718
     63  CB        -4.6270  -10.1630   21.5760 C.3   176  MET176      0.0401
     64  CG        -3.8650   -9.8670   22.8450 C.3   176  MET176      0.0596
     65  SD        -4.2500  -10.9410   24.1890 S.3   176  MET176     -0.1393
     66  CE        -3.5870  -12.4670   23.5970 C.3   176  MET176      0.0692
     67  N         -2.9130   -7.7510   20.3080 N.am  177  THR177     -0.1939
     68  CA        -1.8870   -6.7570   20.4770 C.3   177  THR177      0.2028
     69  C         -2.1970   -5.4950   19.7040 C.2   177  THR177      0.2642
     70  O         -1.3440   -4.6670   19.5430 O.2   177  THR177     -0.2714
     71  CB        -0.5530   -7.2800   19.9760 C.3   177  THR177      0.1808
     72  OG1       -0.5110   -7.1720   18.5670 O.3   177  THR177     -0.2208
     73  CG2       -0.4070   -8.6930   20.2970 C.3   177  THR177      0.0379
     74  N         -3.3770   -5.4260   19.0960 N.am  178  LEU178     -0.1977
     75  CA        -3.8980   -4.3200   18.3240 C.3   178  LEU178      0.1596
     76  C         -3.0120   -3.9710   17.1790 C.2   178  LEU178      0.2287
     77  O         -2.8540   -2.8230   16.8390 O.2   178  LEU178     -0.2864
     78  CB        -4.1470   -3.1200   19.2050 C.3   178  LEU178      0.0297
     79  CG        -4.8760   -3.4630   20.4850 C.3   178  LEU178      0.0022
     80  CD1       -4.8990   -2.2880   21.4220 C.3   178  LEU178      0.0001
     81  CD2       -6.2740   -3.9130   20.1940 C.3   178  LEU178      0.0001
     82  N         -8.6610   -7.3800   26.5810 N.3   208  THR208     -0.1218
     83  CA        -8.0460   -6.2000   27.1750 C.3   208  THR208      0.1862
     84  C         -8.4190   -6.0940   28.6450 C.2   208  THR208      0.2287
     85  O         -7.5790   -5.7440   29.4800 O.2   208  THR208     -0.2866
     86  CB        -8.4430   -4.9290   26.4380 C.3   208  THR208      0.1770
     87  OG1       -7.9940   -5.0150   25.0830 O.3   208  THR208     -0.2211
     88  CG2       -7.6750   -3.7820   27.0650 C.3   208  THR208      0.0375
     89  N         -6.1080   -8.6900   30.2930 N.3   211  MET211     -0.1230
     90  CA        -4.7400   -8.1950   30.4310 C.3   211  MET211      0.1702
     91  C         -4.6080   -7.1610   31.5490 C.2   211  MET211      0.2592
     92  O         -3.6610   -7.2220   32.3460 O.2   211  MET211     -0.2718
     93  CB        -4.2530   -7.6180   29.1140 C.3   211  MET211      0.0401
     94  CG        -3.7280   -8.6610   28.1490 C.3   211  MET211      0.0596
     95  SD        -2.6290   -9.8430   28.9520 S.3   211  MET211     -0.1393
     96  CE        -3.3750  -11.3940   28.4440 C.3   211  MET211      0.0692
     97  N         -5.5280   -6.1900   31.6160 N.am  212  ILE212     -0.1980
     98  CA        -5.4790   -5.2220   32.7130 C.3   212  ILE212      0.1595
     99  C         -5.4440   -5.9500   34.0400 C.2   212  ILE212      0.2287
    100  O         -4.6230   -5.6430   34.9130 O.2   212  ILE212     -0.2864
    101  CB        -6.6660   -4.2420   32.6630 C.3   212  ILE212      0.0276
    102  CG1       -6.5490   -3.3200   31.4510 C.3   212  ILE212      0.0022
    103  CG2       -6.7330   -3.4220   33.9630 C.3   212  ILE212      0.0022
    104  CD1       -7.7010   -2.3380   31.3320 C.3   212  ILE212      0.0001
    105  N         -4.6670   -9.1450   34.7440 N.3   214  LEU214     -0.1231
    106  CA        -3.4350   -9.9040   34.9540 C.3   214  LEU214      0.1693
    107  C         -2.3360   -9.0120   35.5320 C.2   214  LEU214      0.2591
    108  O         -1.5850   -9.4340   36.4220 O.2   214  LEU214     -0.2718
    109  CB        -2.9790  -10.5510   33.6410 C.3   214  LEU214      0.0284
    110  CG        -1.5390  -11.0760   33.5660 C.3   214  LEU214      0.0019
    111  CD1       -1.4910  -12.2030   32.5900 C.3   214  LEU214      0.0001
    112  CD2       -0.5350  -10.0150   33.1230 C.3   214  LEU214      0.0001
    113  N         -2.2300   -7.7750   35.0310 N.am  215  VAL215     -0.1980
    114  CA        -1.1840   -6.8620   35.4700 C.3   215  VAL215      0.1595
    115  C         -1.5090   -6.2870   36.8350 C.2   215  VAL215      0.2287
    116  O         -0.6130   -6.0610   37.6480 O.2   215  VAL215     -0.2864
    117  CB        -0.9790   -5.7590   34.4250 C.3   215  VAL215      0.0276
    118  CG1        0.0180   -4.7140   34.9620 C.3   215  VAL215      0.0022
    119  CG2       -0.5400   -6.3810   33.1280 C.3   215  VAL215      0.0022
@<TRIPOS>BOND
     1    77    76    2
     2    76    75    1
     3    48    49    1
     4    75    74    1
     5    75    78    1
     6    50    49    1
     7    50    51    2
     8    72    71    1
     9    55    57   ar
    10    55    53   ar
    11    52    49    1
    12    52    53    1
    13    74    69   am
    14    78    79    1
    15    59    60    1
    16    57    58   ar
    17    53    54   ar
    18    70    69    2
    19    69    68    1
    20    71    73    1
    21    71    68    1
    22    81    79    1
    23    67    68    1
    24    67    61   am
    25    79    80    1
    26    58    56   ar
    27    60    61    1
    28    60    63    1
    29    54    56   ar
    30    61    62    2
    31    63    64    1
    32    64    65    1
    33    66    65    1
    34    87    86    1
    35    86    88    1
    36    86    83    1
    37    82    83    1
    38    83    84    1
    39    94    95    1
    40    94    93    1
    41    96    95    1
    42    84    85    2
    43    93    90    1
    44    43    42    2
    45    89    90    1
    46    90    91    1
    47    46    44    1
    48    42    41    1
    49   104   102    1
    50   102   101    1
    51    91    97   am
    52    91    92    2
    53    41    44    1
    54    41    40    1
    55    97    98    1
    56    44    45    1
    57    45    47    1
    58   111   110    1
    59   101    98    1
    60   101   103    1
    61    98    99    1
    62   112   110    1
    63   119   117    1
    64    39    38    1
    65   110   109    1
    66   109   106    1
    67    99   100    2
    68    31    29    1
    69    14    13    1
    70   117   118    1
    71   117   114    1
    72   105   106    1
    73     7     5    1
    74   106   107    1
    75    38    37    1
    76    35    34    2
    77   113   114    1
    78   113   107   am
    79    30    28    1
    80    23    21    1
    81     6     5    1
    82    29    28    1
    83   114   115    1
    84    37    36    1
    85   107   108    2
    86    36    33    1
    87    13    12    1
    88    13    15    1
    89    12     9    1
    90     5     2    1
    91    21    20    1
    92    34    33    1
    93    28    25    1
    94    33    32    1
    95     2     1    1
    96     2     3    1
    97    11    10    2
    98   115   116    2
    99     9    10    1
   100     9     8    1
   101    22    20    1
   102    10    16   am
   103    25    26    1
   104    25    24    1
   105    20    17    1
   106    27    26    2
   107    16    17    1
   108    17    18    1
   109     4     3    2
   110    19    18    2
