@<TRIPOS>MOLECULE
tmp/5yumA00.pdb
 89 87 0 0 0
SMALL
GASTEIGER

@<TRIPOS>ATOM
      1  N         -4.7720   23.0880   10.3220 N.3    10  VAL10      -0.1231
      2  CA        -5.9090   23.9440   10.6170 C.3    10  VAL10       0.1692
      3  C         -6.6790   23.3610   11.7920 C.2    10  VAL10       0.2592
      4  O         -6.5430   22.1870   12.1390 O.2    10  VAL10      -0.2718
      5  CB        -6.8540   24.1230    9.4050 C.3    10  VAL10       0.0266
      6  CG1       -6.0680   24.4450    8.1290 C.3    10  VAL10       0.0020
      7  CG2       -7.7150   22.8830    9.2160 C.3    10  VAL10       0.0020
      8  N         -7.4870   24.2170   12.4120 N.am   11  ARG11      -0.1966
      9  CA        -8.4720   23.7680   13.3840 C.3    11  ARG11       0.1729
     10  C         -9.5490   22.9510   12.6830 C.2    11  ARG11       0.2616
     11  O         -9.9960   23.2960   11.5850 O.2    11  ARG11      -0.2715
     12  CB        -9.0990   24.9720   14.0850 C.3    11  ARG11       0.0348
     13  CG        -8.0980   25.9510   14.6710 C.3    11  ARG11       0.0492
     14  CD        -7.5760   25.5260   16.0350 C.3    11  ARG11       0.2205
     15  NE        -6.8100   26.6240   16.6410 N.pl3  11  ARG11      -0.0865
     16  CZ        -5.9590   26.4970   17.6570 C.cat  11  ARG11       0.5346
     17  NH1       -5.7740   25.3140   18.2280 N.pl3  11  ARG11       0.1354
     18  NH2       -5.3090   27.5600   18.1170 N.pl3  11  ARG11       0.1354
     19  N         -9.9610   21.8540   13.3130 N.am   12  ASN12      -0.1958
     20  CA       -10.9720   20.9740   12.7240 C.3    12  ASN12       0.1819
     21  C        -12.3640   21.5220   13.0530 C.2    12  ASN12       0.2621
     22  O        -13.1420   20.9460   13.8180 O.2    12  ASN12      -0.2715
     23  CB       -10.7810   19.5440   13.2180 C.3    12  ASN12       0.1195
     24  CG       -11.6710   18.5490   12.4970 C.2    12  ASN12       0.2630
     25  OD1      -12.2720   18.8620   11.4710 O.2    12  ASN12      -0.2716
     26  ND2      -11.7450   17.3330   13.0260 N.am   12  ASN12      -0.0877
     27  N        -12.6610   22.6790   12.4550 N.am   13  HIS13      -0.1960
     28  CA       -13.9030   23.4090   12.6450 C.3    13  HIS13       0.1772
     29  C        -14.7000   23.4570   11.3470 C.2    13  HIS13       0.2462
     30  O        -14.1200   23.4250   10.2570 O.2    13  HIS13      -0.2730
     31  CB       -13.6480   24.8490   13.1130 C.3    13  HIS13       0.0785
     32  CG       -13.0750   24.9560   14.4900 C.ar   13  HIS13       0.0821
     33  ND1      -12.8340   26.1690   15.1000 N.ar   13  HIS13      -0.2267
     34  CD2      -12.6850   24.0060   15.3710 C.ar   13  HIS13       0.1154
     35  CE1      -12.3260   25.9600   16.3010 C.ar   13  HIS13       0.1986
     36  NE2      -12.2240   24.6560   16.4890 N.ar   13  HIS13      -0.2212
     37  N        -16.0260   23.5450   11.4280 N.am   14  PRO14      -0.2716
     38  CA       -16.8230   23.7280   10.2110 C.3    14  PRO14       0.1536
     39  C        -16.4090   24.9870    9.4620 C.2    14  PRO14       0.2599
     40  O        -16.1580   26.0360   10.0610 O.2    14  PRO14      -0.2715
     41  CB       -18.2570   23.8370   10.7410 C.3    14  PRO14       0.0310
     42  CG       -18.2310   23.0780   12.0210 C.3    14  PRO14       0.0237
     43  CD       -16.8730   23.3410   12.6150 C.3    14  PRO14       0.0939
     44  N        -16.3070   24.8630    8.1390 N.am   15  GLY15      -0.1941
     45  CA       -16.1510   26.0100    7.2730 C.3    15  GLY15       0.2014
     46  C        -14.7310   26.4140    6.9380 C.2    15  GLY15       0.2639
     47  O        -14.5480   27.3390    6.1370 O.2    15  GLY15      -0.2714
     48  N        -13.7150   25.7670    7.5160 N.am   16  VAL16      -0.1963
     49  CA       -12.3460   26.1830    7.2270 C.3    16  VAL16       0.1727
     50  C        -11.9460   25.7670    5.8150 C.2    16  VAL16       0.2616
     51  O        -11.2250   26.4950    5.1240 O.2    16  VAL16      -0.2715
     52  CB       -11.3720   25.6410    8.2930 C.3    16  VAL16       0.0290
     53  CG1      -11.6150   24.1900    8.5420 C.3    16  VAL16       0.0023
     54  CG2       -9.9260   25.8490    7.8640 C.3    16  VAL16       0.0023
     55  N        -12.4270   24.6130    5.3480 N.am   17  MET17      -0.1963
     56  CA       -12.1050   24.1990    3.9840 C.3    17  MET17       0.1736
     57  C        -12.7420   25.1250    2.9560 C.2    17  MET17       0.2617
     58  O        -12.1630   25.3710    1.8910 O.2    17  MET17      -0.2715
     59  CB       -12.5500   22.7620    3.7310 C.3    17  MET17       0.0427
     60  CG       -12.1450   22.2270    2.3530 C.3    17  MET17       0.0599
     61  SD       -10.4230   21.6870    2.2280 S.3    17  MET17      -0.1393
     62  CE        -9.5390   23.2000    1.8860 C.3    17  MET17       0.0692
     63  N        -13.9380   25.6370    3.2490 N.am   18  THR18      -0.1951
     64  CA       -14.5720   26.5920    2.3470 C.3    18  THR18       0.1897
     65  C        -13.7440   27.8650    2.2380 C.2    18  THR18       0.2313
     66  O        -13.5180   28.3800    1.1360 O.2    18  THR18      -0.2863
     67  CB       -15.9870   26.9120    2.8310 C.3    18  THR18       0.1794
     68  OG1      -16.7500   25.7020    2.9050 O.3    18  THR18      -0.2208
     69  CG2      -16.6720   27.8710    1.8760 C.3    18  THR18       0.0378
     70  N         -7.5140   15.6170    3.0020 N.3    36  CYS36      -0.1235
     71  CA        -7.7680   16.2080    4.3100 C.3    36  CYS36       0.1677
     72  C         -7.9720   15.0890    5.3240 C.2    36  CYS36       0.2270
     73  O         -8.8460   14.2380    5.1360 O.2    36  CYS36      -0.2867
     74  CB        -8.9890   17.1340    4.2640 C.3    36  CYS36       0.0956
     75  SG        -8.8160   18.5480    3.1320 S.3    36  CYS36      -0.0801
     76  N         -6.5560   19.3550   11.9840 N.3    45  SER45      -0.1217
     77  CA        -6.5310   18.4920   10.8160 C.3    45  SER45       0.1889
     78  C         -5.4120   18.9500    9.8930 C.2    45  SER45       0.2288
     79  O         -4.9380   20.0880    9.9730 O.2    45  SER45      -0.2866
     80  CB        -7.8680   18.5060   10.0630 C.3    45  SER45       0.2089
     81  OG        -8.9510   18.2400   10.9360 O.3    45  SER45      -0.2183
     82  N         -4.3750   19.5120    5.8710 N.3    47  ILE47      -0.1245
     83  CA        -4.8880   19.7230    4.5220 C.3    47  ILE47       0.1561
     84  C         -3.7010   19.7450    3.5700 C.2    47  ILE47       0.2260
     85  O         -2.8020   20.5840    3.7070 O.2    47  ILE47      -0.2867
     86  CB        -5.7010   21.0220    4.4060 C.3    47  ILE47       0.0252
     87  CG1       -6.8560   21.0280    5.4050 C.3    47  ILE47       0.0019
     88  CG2       -6.2360   21.1890    2.9860 C.3    47  ILE47       0.0019
     89  CD1       -7.7110   22.2860    5.3530 C.3    47  ILE47       0.0001
@<TRIPOS>BOND
     1    66    65    2
     2    69    67    1
     3    62    61    1
     4    58    57    2
     5    61    60    1
     6    65    64    1
     7    64    67    1
     8    64    63    1
     9    60    59    1
    10    67    68    1
    11    57    63   am
    12    57    56    1
    13    88    86    1
    14    70    71    1
    15    75    74    1
    16    84    85    2
    17    84    83    1
    18    59    56    1
    19    56    55    1
    20    74    71    1
    21    71    72    1
    22    86    83    1
    23    86    87    1
    24    83    82    1
    25    51    50    2
    26    73    72    2
    27    55    50   am
    28    89    87    1
    29    50    49    1
    30    47    46    2
    31    46    45    1
    32    46    48   am
    33    49    48    1
    34    49    52    1
    35    45    44    1
    36    54    52    1
    37     6     5    1
    38    44    39   am
    39    52    53    1
    40     7     5    1
    41     5     2    1
    42    39    40    2
    43    39    38    1
    44    78    79    2
    45    78    77    1
    46    80    77    1
    47    80    81    1
    48    38    41    1
    49    38    37    1
    50    30    29    2
    51     1     2    1
    52     2     3    1
    53    41    42    1
    54    77    76    1
    55    29    37   am
    56    29    28    1
    57    37    43    1
    58    25    24    2
    59    11    10    2
    60     3     4    2
    61     3     8   am
    62    42    43    1
    63     8     9    1
    64    27    28    1
    65    27    21   am
    66    24    26   am
    67    24    23    1
    68    28    31    1
    69    10    19   am
    70    10     9    1
    71    20    21    1
    72    20    23    1
    73    20    19    1
    74    21    22    2
    75    31    32    1
    76     9    12    1
    77    12    13    1
    78    32    33   ar
    79    32    34   ar
    80    13    14    1
    81    33    35   ar
    82    34    36   ar
    83    14    15    1
    84    35    36   ar
    85    15    16    2
    86    16    18    1
    87    16    17    1
