@<TRIPOS>MOLECULE
tmp/5yurB00.pdb
 147 141 0 0 0
SMALL
GASTEIGER

@<TRIPOS>ATOM
      1  N        -29.4170   -5.3610   -0.2170 N.3     9  ASP9       -0.1225
      2  CA       -29.5220   -4.7110   -1.5200 C.3     9  ASP9        0.1805
      3  C        -28.5950   -3.4970   -1.5370 C.2     9  ASP9        0.2598
      4  O        -28.8580   -2.5160   -0.8360 O.2     9  ASP9       -0.2718
      5  CB       -30.9830   -4.3070   -1.7720 C.3     9  ASP9        0.1424
      6  CG       -31.2690   -3.9540   -3.2220 C.2     9  ASP9        0.3668
      7  OD1      -30.4610   -3.2380   -3.8410 O.co2   9  ASP9       -0.2456
      8  OD2      -32.3170   -4.3900   -3.7410 O.co2   9  ASP9       -0.2456
      9  N        -27.5230   -3.5500   -2.3350 N.am   10  MET10      -0.1965
     10  CA       -26.6020   -2.4160   -2.4160 C.3    10  MET10       0.1736
     11  C        -27.3240   -1.1690   -2.9270 C.2    10  MET10       0.2616
     12  O        -28.2820   -1.2570   -3.6980 O.2    10  MET10      -0.2715
     13  CB       -25.4210   -2.7450   -3.3340 C.3    10  MET10       0.0427
     14  CG       -24.6230   -3.9810   -2.9290 C.3    10  MET10       0.0599
     15  SD       -23.9580   -3.8100   -1.2720 S.3    10  MET10      -0.1393
     16  CE       -22.9660   -2.3270   -1.4850 C.3    10  MET10       0.0692
     17  N        -26.8570    0.0030   -2.4890 N.am   11  ASP11      -0.1957
     18  CA       -27.4730    1.2750   -2.8660 C.3    11  ASP11       0.1840
     19  C        -26.7930    1.8390   -4.1120 C.2    11  ASP11       0.2622
     20  O        -25.5610    1.9520   -4.1530 O.2    11  ASP11      -0.2715
     21  CB       -27.3860    2.2930   -1.7230 C.3    11  ASP11       0.1450
     22  CG       -28.0670    1.8150   -0.4390 C.2    11  ASP11       0.3671
     23  OD1      -29.2450    1.4020   -0.5080 O.co2  11  ASP11      -0.2456
     24  OD2      -27.4250    1.8580    0.6430 O.co2  11  ASP11      -0.2456
     25  N        -27.6010    2.1950   -5.1150 N.am   12  CYS12      -0.1954
     26  CA       -27.1450    2.7410   -6.4020 C.3    12  CYS12       0.1843
     27  C        -25.8840    2.0420   -6.9130 C.2    12  CYS12       0.2625
     28  O        -24.8510    2.6680   -7.1570 O.2    12  CYS12      -0.2714
     29  CB       -26.9120    4.2440   -6.2950 C.3    12  CYS12       0.0997
     30  SG       -28.3720    5.1580   -5.8340 S.3    12  CYS12      -0.0797
     31  N        -26.0040    0.7250   -7.1100 N.am   13  PHE13      -0.1960
     32  CA       -24.8340   -0.1540   -7.1000 C.3    13  PHE13       0.1771
     33  C        -23.7030    0.3530   -7.9940 C.2    13  PHE13       0.2619
     34  O        -22.6240    0.6870   -7.4960 O.2    13  PHE13      -0.2715
     35  CB       -25.2190   -1.5850   -7.4870 C.3    13  PHE13       0.0574
     36  CG       -24.0580   -2.5540   -7.4090 C.ar   13  PHE13      -0.0200
     37  CD1      -23.0950   -2.4160   -6.4180 C.ar   13  PHE13      -0.0042
     38  CD2      -23.9300   -3.5900   -8.3190 C.ar   13  PHE13      -0.0042
     39  CE1      -22.0220   -3.2960   -6.3380 C.ar   13  PHE13      -0.0003
     40  CE2      -22.8610   -4.4830   -8.2420 C.ar   13  PHE13      -0.0003
     41  CZ       -21.9090   -4.3360   -7.2540 C.ar   13  PHE13      -0.0000
     42  N        -23.9170    0.4030   -9.3170 N.am   14  PHE14      -0.1974
     43  CA       -22.8420    0.8230  -10.2230 C.3    14  PHE14       0.1639
     44  C        -22.3580    2.2290   -9.8870 C.2    14  PHE14       0.2290
     45  O        -21.1520    2.4890   -9.8310 O.2    14  PHE14      -0.2864
     46  CB       -23.2900    0.7900  -11.6930 C.3    14  PHE14       0.0560
     47  CG       -23.6080   -0.5780  -12.2310 C.ar   14  PHE14      -0.0200
     48  CD1      -23.4730   -1.7110  -11.4480 C.ar   14  PHE14      -0.0042
     49  CD2      -24.0470   -0.7240  -13.5400 C.ar   14  PHE14      -0.0042
     50  CE1      -23.7770   -2.9650  -11.9550 C.ar   14  PHE14      -0.0003
     51  CE2      -24.3530   -1.9710  -14.0550 C.ar   14  PHE14      -0.0003
     52  CZ       -24.2210   -3.0960  -13.2570 C.ar   14  PHE14      -0.0000
     53  N        -29.8390    4.0630  -19.7080 N.3    42  ILE42      -0.1231
     54  CA       -29.1850    4.2570  -18.4200 C.3    42  ILE42       0.1692
     55  C        -29.2290    2.9510  -17.6440 C.2    42  ILE42       0.2593
     56  O        -30.2890    2.3290  -17.5180 O.2    42  ILE42      -0.2718
     57  CB       -29.8610    5.3820  -17.6230 C.3    42  ILE42       0.0266
     58  CG1      -29.8870    6.6610  -18.4510 C.3    42  ILE42       0.0019
     59  CG2      -29.1260    5.6030  -16.2980 C.3    42  ILE42       0.0020
     60  CD1      -28.4950    7.1640  -18.8170 C.3    42  ILE42       0.0001
     61  N        -28.0770    2.5300  -17.1230 N.am   43  SER43      -0.1938
     62  CA       -28.0570    1.3780  -16.2330 C.3    43  SER43       0.2055
     63  C        -28.5190    1.7630  -14.8330 C.2    43  SER43       0.2643
     64  O        -29.3830    1.0970  -14.2480 O.2    43  SER43      -0.2714
     65  CB       -26.6570    0.7550  -16.2050 C.3    43  SER43       0.2130
     66  OG       -26.5300   -0.2440  -17.2090 O.3    43  SER43      -0.2179
     67  N        -27.9670    2.8430  -14.2930 N.am   44  THR44      -0.1950
     68  CA       -28.4120    3.3840  -13.0170 C.3    44  THR44       0.1897
     69  C        -27.8900    4.8100  -12.9100 C.2    44  THR44       0.2313
     70  O        -27.0340    5.2400  -13.6870 O.2    44  THR44      -0.2863
     71  CB       -27.9390    2.5210  -11.8360 C.3    44  THR44       0.1794
     72  OG1      -28.6380    2.9070  -10.6480 O.3    44  THR44      -0.2208
     73  CG2      -26.4460    2.7060  -11.6070 C.3    44  THR44       0.0378
     74  N        -28.1790    9.6790   -6.7600 N.3    47  TYR47      -0.1241
     75  CA       -29.2830   10.4770   -6.2350 C.3    47  TYR47       0.1605
     76  C        -29.3320   11.8910   -6.8020 C.2    47  TYR47       0.2264
     77  O        -30.4430   12.3540   -7.1110 O.2    47  TYR47      -0.2867
     78  CB       -29.2400   10.4620   -4.7020 C.3    47  TYR47       0.0534
     79  CG       -29.9020    9.2150   -4.1390 C.ar   47  TYR47      -0.0201
     80  CD1      -31.2880    9.0990   -4.1010 C.ar   47  TYR47      -0.0009
     81  CD2      -29.1460    8.1380   -3.6880 C.ar   47  TYR47      -0.0009
     82  CE1      -31.9000    7.9530   -3.6080 C.ar   47  TYR47       0.0417
     83  CE2      -29.7550    6.9790   -3.1940 C.ar   47  TYR47       0.0417
     84  CZ       -31.1280    6.8970   -3.1590 C.ar   47  TYR47       0.1957
     85  OH       -31.7350    5.7670   -2.6670 O.3    47  TYR47      -0.2866
     86  N        -31.0760   11.2860  -10.0040 N.3    50  ARG50      -0.1245
     87  CA       -32.4520   10.8290   -9.8200 C.3    50  ARG50       0.1563
     88  C        -33.4160   11.9800   -9.5430 C.2    50  ARG50       0.2260
     89  O        -34.5680   11.9330   -9.9870 O.2    50  ARG50      -0.2867
     90  CB       -32.5260    9.7990   -8.6910 C.3    50  ARG50       0.0307
     91  CG       -31.9120    8.4690   -9.0600 C.3    50  ARG50       0.0489
     92  CD       -31.9760    7.4520   -7.9340 C.3    50  ARG50       0.2205
     93  NE       -31.1880    6.2710   -8.2790 N.pl3  50  ARG50      -0.0865
     94  CZ       -31.2910    5.0960   -7.6750 C.cat  50  ARG50       0.5346
     95  NH1      -32.1650    4.9260   -6.6900 N.pl3  50  ARG50       0.1354
     96  NH2      -30.5220    4.0910   -8.0640 N.pl3  50  ARG50       0.1354
     97  N        -32.9410    4.1040  -14.1310 N.3    56  SER56      -0.1202
     98  CA       -32.5990    2.8860  -14.8530 C.3    56  SER56       0.2020
     99  C        -33.5940    2.6360  -15.9790 C.2    56  SER56       0.2618
    100  O        -34.8030    2.8250  -15.8130 O.2    56  SER56      -0.2717
    101  CB       -32.5960    1.6910  -13.9050 C.3    56  SER56       0.2103
    102  OG       -31.6000    1.8530  -12.9140 O.3    56  SER56      -0.2182
    103  N        -33.0710    2.2020  -17.1250 N.am   57  ALA57      -0.1979
    104  CA       -33.7770    1.8160  -18.3470 C.3    57  ALA57       0.1597
    105  C        -34.2440    3.0290  -19.1470 C.2    57  ALA57       0.2287
    106  O        -34.7850    2.8570  -20.2380 O.2    57  ALA57      -0.2864
    107  CB       -34.9730    0.8800  -18.0820 C.3    57  ALA57       0.0319
    108  N        -28.6070  -11.3480   -8.0940 N.3   102  SER102     -0.1217
    109  CA       -27.8760  -10.4830   -9.0140 C.3   102  SER102      0.1889
    110  C        -26.5590  -10.1480   -8.3260 C.2   102  SER102      0.2288
    111  O        -26.2800  -10.6470   -7.2290 O.2   102  SER102     -0.2866
    112  CB       -28.6730   -9.2240   -9.3510 C.3   102  SER102      0.2089
    113  OG       -28.6840   -8.3430   -8.2410 O.3   102  SER102     -0.2183
    114  N        -25.7380   -7.5140   -6.7600 N.3   104  ASP104     -0.1225
    115  CA       -25.8370   -6.6130   -5.6160 C.3   104  ASP104      0.1805
    116  C        -26.9300   -6.9960   -4.6200 C.2   104  ASP104      0.2597
    117  O        -27.2290   -6.2090   -3.7120 O.2   104  ASP104     -0.2718
    118  CB       -26.0590   -5.1800   -6.1090 C.3   104  ASP104      0.1424
    119  CG       -27.5410   -4.7980   -6.2020 C.2   104  ASP104      0.3668
    120  OD1      -28.3610   -5.5890   -6.7070 O.co2 104  ASP104     -0.2456
    121  OD2      -27.8790   -3.6810   -5.7420 O.co2 104  ASP104     -0.2456
    122  N        -27.5260   -8.1830   -4.7570 N.am  105  GLU105     -0.1979
    123  CA       -28.6950   -8.5730   -3.9800 C.3   105  GLU105      0.1602
    124  C        -28.5930  -10.0370   -3.5830 C.2   105  GLU105      0.2287
    125  O        -28.2170  -10.8820   -4.4030 O.2   105  GLU105     -0.2864
    126  CB       -29.9950   -8.3620   -4.7800 C.3   105  GLU105      0.0415
    127  CG       -30.4280   -6.9160   -4.9330 C.3   105  GLU105      0.1163
    128  CD       -31.6690   -6.7670   -5.8110 C.2   105  GLU105      0.3649
    129  OE1      -32.4180   -7.7640   -5.9430 O.co2 105  GLU105     -0.2457
    130  OE2      -31.8890   -5.6620   -6.3640 O.co2 105  GLU105     -0.2457
    131  N        -36.3040   -1.9360    0.6010 N.3   155  ASP155     -0.1239
    132  CA       -36.3480   -0.6820   -0.1420 C.3   155  ASP155      0.1674
    133  C        -36.9660    0.4720    0.6470 C.2   155  ASP155      0.2266
    134  O        -36.8680    1.6210    0.2030 O.2   155  ASP155     -0.2867
    135  CB       -37.1030   -0.8740   -1.4730 C.3   155  ASP155      0.1410
    136  CG       -36.1580   -1.0730   -2.6690 C.2   155  ASP155      0.3668
    137  OD1      -35.2660   -1.9410   -2.6030 O.co2 155  ASP155     -0.2456
    138  OD2      -36.2920   -0.3480   -3.6790 O.co2 155  ASP155     -0.2456
    139  N        -34.1790    2.8400    2.0350 N.3   158  LYS158     -0.1245
    140  CA       -33.0030    3.0960    1.1940 C.3   158  LYS158      0.1561
    141  C        -32.7990    4.5990    1.0620 C.2   158  LYS158      0.2260
    142  O        -33.7700    5.3370    0.9480 O.2   158  LYS158     -0.2867
    143  CB       -33.1470    2.4860   -0.2020 C.3   158  LYS158      0.0271
    144  CG       -33.2020    0.9740   -0.2490 C.3   158  LYS158      0.0035
    145  CD       -33.2190    0.4660   -1.6910 C.3   158  LYS158      0.0206
    146  CE       -31.8380    0.5120   -2.3100 C.3   158  LYS158      0.1093
    147  NZ       -30.9850   -0.6830   -2.0420 N.3   158  LYS158     -0.1314
@<TRIPOS>BOND
     1   106   105    2
     2    53    54    1
     3   105   104    1
     4    60    58    1
     5    58    57    1
     6    54    55    1
     7    54    57    1
     8   104   107    1
     9   104   103    1
    10    55    56    2
    11    55    61   am
    12    57    59    1
    13    66    65    1
    14   103    99   am
    15    61    62    1
    16    62    65    1
    17    62    63    1
    18    99   100    2
    19    99    98    1
    20    98    97    1
    21    98   101    1
    22    63    67   am
    23    63    64    2
    24    67    68    1
    25    51    49   ar
    26    51    52   ar
    27   101   102    1
    28    70    69    2
    29    49    47   ar
    30    52    50   ar
    31    68    69    1
    32    68    71    1
    33    47    46    1
    34    47    48   ar
    35    50    48   ar
    36    71    73    1
    37    71    72    1
    38    46    43    1
    39    43    44    1
    40    43    42    1
    41    86    87    1
    42    89    88    2
    43    44    45    2
    44    87    88    1
    45    87    90    1
    46   112   109    1
    47   112   113    1
    48    42    33   am
    49    91    90    1
    50    91    92    1
    51   109   110    1
    52   109   108    1
    53   110   111    2
    54    38    40   ar
    55    38    36   ar
    56    93    92    1
    57    93    94    2
    58    40    41   ar
    59    96    94    1
    60    33    34    2
    61    33    32    1
    62    94    95    1
    63    35    36    1
    64    35    32    1
    65    36    37   ar
    66    41    39   ar
    67    28    27    2
    68    77    76    2
    69    31    32    1
    70    31    27   am
    71    27    26    1
    72    76    75    1
    73    74    75    1
    74   114   115    1
    75   120   119   ar
    76    37    39   ar
    77    26    29    1
    78    26    25    1
    79   130   128   ar
    80    29    30    1
    81    75    78    1
    82   119   118    1
    83   119   121   ar
    84   118   115    1
    85   129   128   ar
    86   128   127    1
    87   115   116    1
    88    25    19   am
    89   127   126    1
    90   126   123    1
    91   122   116   am
    92   122   123    1
    93    78    79    1
    94   116   117    2
    95   125   124    2
    96    20    19    2
    97    79    80   ar
    98    79    81   ar
    99    19    18    1
   100    80    82   ar
   101   123   124    1
   102     7     6   ar
   103     8     6   ar
   104    12    11    2
   105    81    83   ar
   106   138   136   ar
   107    82    84   ar
   108    13    14    1
   109    13    10    1
   110     6     5    1
   111    83    84   ar
   112    84    85    1
   113    14    15    1
   114    11    17   am
   115    11    10    1
   116    18    17    1
   117    18    21    1
   118   136   137   ar
   119   136   135    1
   120    10     9    1
   121     9     3   am
   122   146   147    1
   123   146   145    1
   124     5     2    1
   125    21    22    1
   126   145   144    1
   127     3     2    1
   128     3     4    2
   129     2     1    1
   130    16    15    1
   131   135   132    1
   132    23    22   ar
   133    22    24   ar
   134   144   143    1
   135   143   140    1
   136   132   131    1
   137   132   133    1
   138   134   133    2
   139   142   141    2
   140   141   140    1
   141   140   139    1
